data_image0
_cell_length_a       14.586
_cell_length_b       18.068
_cell_length_c       24.846
_cell_angle_alpha    90
_cell_angle_beta     90
_cell_angle_gamma    90

_symmetry_space_group_name_H-M    "P 1"
_symmetry_int_tables_number       1

loop_
  _symmetry_equiv_pos_as_xyz
  'x, y, z'

loop_
  _atom_site_label
  _atom_site_occupancy
  _atom_site_fract_x
  _atom_site_fract_y
  _atom_site_fract_z
  _atom_site_thermal_displace_type
  _atom_site_B_iso_or_equiv
  _atom_site_type_symbol
  Zn1      1.0000 0.46049  0.93962  0.14407  Biso   1.000  Zn
  Zn2      1.0000 0.49629  0.74682  0.14498  Biso   1.000  Zn
  O1       1.0000 0.33040  0.91460  0.15110  Biso   1.000  O
  O2       1.0000 0.38240  0.80830  0.12049  Biso   1.000  O
  O3       1.0000 0.66390  0.57830  0.14240  Biso   1.000  O
  O4       1.0000 0.61440  0.68890  0.16666  Biso   1.000  O
  O5       1.0000 0.52610  0.92510  0.07734  Biso   1.000  O
  O6       1.0000 0.58410  0.81600  0.10216  Biso   1.000  O
  O7       1.0000 0.97960  0.92970  0.71279  Biso   1.000  O
  O8       1.0000 0.91160  0.82480  0.68780  Biso   1.000  O
  O9       1.0000 0.53200  0.92200  0.20932  Biso   1.000  O
  O10      1.0000 0.50560  0.80180  0.21767  Biso   1.000  O
  O11      1.0000 0.95820  0.93180  0.58083  Biso   1.000  O
  O12      1.0000 0.98320  0.81100  0.57465  Biso   1.000  O
  N1       1.0000 0.46700  0.05309  0.14360  Biso   1.000  N
  N2       1.0000 0.52620  0.43920  0.14320  Biso   1.000  N
  C1       1.0000 0.51530  0.08770  0.10540  Biso   1.000  C
  H1       1.0000 0.54180  0.05900  0.07740  Biso   1.000  H
  C2       1.0000 0.52840  0.16400  0.10490  Biso   1.000  C
  H2       1.0000 0.56220  0.18730  0.07690  Biso   1.000  H
  C3       1.0000 0.49070  0.20470  0.14630  Biso   1.000  C
  C4       1.0000 0.44050  0.16960  0.18610  Biso   1.000  C
  C5       1.0000 0.39310  0.20890  0.23160  Biso   1.000  C
  H3       1.0000 0.34860  0.24430  0.21690  Biso   1.000  H
  H4       1.0000 0.43850  0.23540  0.25330  Biso   1.000  H
  H5       1.0000 0.36110  0.17270  0.25410  Biso   1.000  H
  C6       1.0000 0.43210  0.09360  0.18270  Biso   1.000  C
  H6       1.0000 0.39910  0.06890  0.21030  Biso   1.000  H
  C7       1.0000 0.47930  0.40450  0.10390  Biso   1.000  C
  H7       1.0000 0.45470  0.43250  0.07500  Biso   1.000  H
  C8       1.0000 0.46650  0.32890  0.10510  Biso   1.000  C
  H8       1.0000 0.43140  0.30540  0.07790  Biso   1.000  H
  C9       1.0000 0.50570  0.28660  0.14690  Biso   1.000  C
  C10      1.0000 0.56050  0.32300  0.18470  Biso   1.000  C
  C11      1.0000 0.61840  0.28380  0.22550  Biso   1.000  C
  H9       1.0000 0.60870  0.23030  0.22250  Biso   1.000  H
  H10      1.0000 0.60140  0.30040  0.26170  Biso   1.000  H
  H11      1.0000 0.68320  0.29510  0.21890  Biso   1.000  H
  C12      1.0000 0.56660  0.39930  0.18150  Biso   1.000  C
  H12      1.0000 0.60140  0.42460  0.20810  Biso   1.000  H
  C13      1.0000 0.31920  0.84830  0.13820  Biso   1.000  C
  C14      1.0000 0.22410  0.81890  0.14050  Biso   1.000  C
  C15      1.0000 0.15130  0.86260  0.15930  Biso   1.000  C
  H13      1.0000 0.16290  0.91100  0.17250  Biso   1.000  H
  C16      1.0000 0.06020  0.83460  0.15840  Biso   1.000  C
  H14      1.0000 0.01090  0.86380  0.17170  Biso   1.000  H
  C17      1.0000 0.04370  0.76350  0.13780  Biso   1.000  C
  C18      1.0000 0.11790  0.71980  0.12030  Biso   1.000  C
  H15      1.0000 0.10730  0.67120  0.10720  Biso   1.000  H
  C19      1.0000 0.20600  0.74750  0.12220  Biso   1.000  C
  H16      1.0000 0.25540  0.71710  0.11070  Biso   1.000  H
  C20      1.0000 0.94840  0.73380  0.13970  Biso   1.000  C
  C21      1.0000 0.93360  0.65800  0.14600  Biso   1.000  C
  H17      1.0000 0.98450  0.62530  0.14790  Biso   1.000  H
  C22      1.0000 0.84640  0.63020  0.14960  Biso   1.000  C
  H18      1.0000 0.83730  0.57870  0.15500  Biso   1.000  H
  C23      1.0000 0.77240  0.67630  0.14540  Biso   1.000  C
  C24      1.0000 0.78510  0.75110  0.14030  Biso   1.000  C
  H19      1.0000 0.73390  0.78360  0.13960  Biso   1.000  H
  C25      1.0000 0.87450  0.77920  0.13620  Biso   1.000  C
  H20      1.0000 0.88350  0.83080  0.13090  Biso   1.000  H
  C26      1.0000 0.67630  0.64610  0.15110  Biso   1.000  C
  C27      1.0000 0.57530  0.86650  0.06980  Biso   1.000  C
  C28      1.0000 0.63410  0.86680  0.02110  Biso   1.000  C
  C29      1.0000 0.64870  0.93170  0.99160  Biso   1.000  C
  H21      1.0000 0.62090  0.97670  0.00280  Biso   1.000  H
  C30      1.0000 0.70330  0.93100  0.94630  Biso   1.000  C
  H22      1.0000 0.71440  0.97590  0.92750  Biso   1.000  H
  C31      1.0000 0.74210  0.86570  0.92760  Biso   1.000  C
  C32      1.0000 0.72540  0.79920  0.95550  Biso   1.000  C
  H23      1.0000 0.75070  0.75390  0.94300  Biso   1.000  H
  C33      1.0000 0.67080  0.80090  0.00230  Biso   1.000  C
  H24      1.0000 0.65890  0.75620  0.02120  Biso   1.000  H
  C34      1.0000 0.79670  0.86510  0.87690  Biso   1.000  C
  C35      1.0000 0.84260  0.92820  0.85930  Biso   1.000  C
  H25      1.0000 0.84040  0.97160  0.88090  Biso   1.000  H
  C36      1.0000 0.89100  0.93010  0.81170  Biso   1.000  C
  H26      1.0000 0.92460  0.97300  0.80180  Biso   1.000  H
  C37      1.0000 0.88970  0.86860  0.77880  Biso   1.000  C
  C38      1.0000 0.84330  0.80560  0.79400  Biso   1.000  C
  H27      1.0000 0.84060  0.76410  0.77060  Biso   1.000  H
  C39      1.0000 0.80120  0.80340  0.84310  Biso   1.000  C
  H28      1.0000 0.77410  0.75830  0.85470  Biso   1.000  H
  C40      1.0000 0.93320  0.87180  0.72290  Biso   1.000  C
  C41      1.0000 0.54380  0.86180  0.23140  Biso   1.000  C
  C42      1.0000 0.60090  0.86230  0.27990  Biso   1.000  C
  C43      1.0000 0.65020  0.92160  0.29410  Biso   1.000  C
  H29      1.0000 0.64780  0.96500  0.27260  Biso   1.000  H
  C44      1.0000 0.70590  0.92060  0.34080  Biso   1.000  C
  H30      1.0000 0.74370  0.96210  0.34860  Biso   1.000  H
  C45      1.0000 0.70630  0.86170  0.37450  Biso   1.000  C
  C46      1.0000 0.65350  0.80040  0.36280  Biso   1.000  C
  H31      1.0000 0.65280  0.75910  0.38650  Biso   1.000  H
  C47      1.0000 0.60040  0.79960  0.31510  Biso   1.000  C
  H32      1.0000 0.56430  0.75750  0.30650  Biso   1.000  H
  C48      1.0000 0.76360  0.86370  0.42390  Biso   1.000  C
  C49      1.0000 0.79270  0.93110  0.44430  Biso   1.000  C
  H33      1.0000 0.77420  0.97600  0.42760  Biso   1.000  H
  C50      1.0000 0.84940  0.93240  0.48960  Biso   1.000  C
  H34      1.0000 0.87020  0.97870  0.50310  Biso   1.000  H
  C51      1.0000 0.87560  0.86890  0.51500  Biso   1.000  C
  C52      1.0000 0.84820  0.80100  0.49370  Biso   1.000  C
  H35      1.0000 0.86830  0.75630  0.51000  Biso   1.000  H
  C53      1.0000 0.79210  0.79850  0.44900  Biso   1.000  C
  H36      1.0000 0.77280  0.75200  0.43510  Biso   1.000  H
  C54      1.0000 0.93920  0.87060  0.56240  Biso   1.000  C
  Zn3      1.0000 0.53416  0.55273  0.14361  Biso   1.000  Zn
  Zn4      1.0000 0.96049  0.56038  0.64407  Biso   1.000  Zn
  Zn5      1.0000 0.99629  0.75318  0.64498  Biso   1.000  Zn
  O13      1.0000 0.83040  0.58540  0.65110  Biso   1.000  O
  O14      1.0000 0.88240  0.69170  0.62049  Biso   1.000  O
  O15      1.0000 0.16390  0.92170  0.64240  Biso   1.000  O
  O16      1.0000 0.11440  0.81110  0.66666  Biso   1.000  O
  O17      1.0000 0.02610  0.57490  0.57734  Biso   1.000  O
  O18      1.0000 0.08410  0.68400  0.60216  Biso   1.000  O
  O19      1.0000 0.47960  0.57030  0.21279  Biso   1.000  O
  O20      1.0000 0.41160  0.67520  0.18780  Biso   1.000  O
  O21      1.0000 0.03200  0.57800  0.70932  Biso   1.000  O
  O22      1.0000 0.00560  0.69820  0.71767  Biso   1.000  O
  O23      1.0000 0.45820  0.56820  0.08083  Biso   1.000  O
  O24      1.0000 0.48320  0.68900  0.07465  Biso   1.000  O
  N3       1.0000 0.96700  0.44691  0.64360  Biso   1.000  N
  N4       1.0000 0.02620  0.06080  0.64320  Biso   1.000  N
  C55      1.0000 0.01530  0.41230  0.60540  Biso   1.000  C
  H37      1.0000 0.04180  0.44100  0.57740  Biso   1.000  H
  C56      1.0000 0.02840  0.33600  0.60490  Biso   1.000  C
  H38      1.0000 0.06220  0.31270  0.57690  Biso   1.000  H
  C57      1.0000 0.99070  0.29530  0.64630  Biso   1.000  C
  C58      1.0000 0.94050  0.33040  0.68610  Biso   1.000  C
  C59      1.0000 0.89310  0.29110  0.73160  Biso   1.000  C
  H39      1.0000 0.84860  0.25570  0.71690  Biso   1.000  H
  H40      1.0000 0.93850  0.26460  0.75330  Biso   1.000  H
  H41      1.0000 0.86110  0.32730  0.75410  Biso   1.000  H
  C60      1.0000 0.93210  0.40640  0.68270  Biso   1.000  C
  H42      1.0000 0.89910  0.43110  0.71030  Biso   1.000  H
  C61      1.0000 0.97930  0.09550  0.60390  Biso   1.000  C
  H43      1.0000 0.95470  0.06750  0.57500  Biso   1.000  H
  C62      1.0000 0.96650  0.17110  0.60510  Biso   1.000  C
  H44      1.0000 0.93140  0.19460  0.57790  Biso   1.000  H
  C63      1.0000 0.00570  0.21340  0.64690  Biso   1.000  C
  C64      1.0000 0.06050  0.17700  0.68470  Biso   1.000  C
  C65      1.0000 0.11840  0.21620  0.72550  Biso   1.000  C
  H45      1.0000 0.10870  0.26970  0.72250  Biso   1.000  H
  H46      1.0000 0.10140  0.19960  0.76170  Biso   1.000  H
  H47      1.0000 0.18320  0.20490  0.71890  Biso   1.000  H
  C66      1.0000 0.06660  0.10070  0.68150  Biso   1.000  C
  H48      1.0000 0.10140  0.07540  0.70810  Biso   1.000  H
  C67      1.0000 0.81920  0.65170  0.63820  Biso   1.000  C
  C68      1.0000 0.72410  0.68110  0.64050  Biso   1.000  C
  C69      1.0000 0.65130  0.63740  0.65930  Biso   1.000  C
  H49      1.0000 0.66290  0.58900  0.67250  Biso   1.000  H
  C70      1.0000 0.56020  0.66540  0.65840  Biso   1.000  C
  H50      1.0000 0.51090  0.63620  0.67170  Biso   1.000  H
  C71      1.0000 0.54370  0.73650  0.63780  Biso   1.000  C
  C72      1.0000 0.61790  0.78020  0.62030  Biso   1.000  C
  H51      1.0000 0.60730  0.82880  0.60720  Biso   1.000  H
  C73      1.0000 0.70600  0.75250  0.62220  Biso   1.000  C
  H52      1.0000 0.75540  0.78290  0.61070  Biso   1.000  H
  C74      1.0000 0.44840  0.76620  0.63970  Biso   1.000  C
  C75      1.0000 0.43360  0.84200  0.64600  Biso   1.000  C
  H53      1.0000 0.48450  0.87470  0.64790  Biso   1.000  H
  C76      1.0000 0.34640  0.86980  0.64960  Biso   1.000  C
  H54      1.0000 0.33730  0.92130  0.65500  Biso   1.000  H
  C77      1.0000 0.27240  0.82370  0.64540  Biso   1.000  C
  C78      1.0000 0.28510  0.74890  0.64030  Biso   1.000  C
  H55      1.0000 0.23390  0.71640  0.63960  Biso   1.000  H
  C79      1.0000 0.37450  0.72080  0.63620  Biso   1.000  C
  H56      1.0000 0.38350  0.66920  0.63090  Biso   1.000  H
  C80      1.0000 0.17630  0.85390  0.65110  Biso   1.000  C
  C81      1.0000 0.07530  0.63350  0.56980  Biso   1.000  C
  C82      1.0000 0.13410  0.63320  0.52110  Biso   1.000  C
  C83      1.0000 0.14870  0.56830  0.49160  Biso   1.000  C
  H57      1.0000 0.12090  0.52330  0.50280  Biso   1.000  H
  C84      1.0000 0.20330  0.56900  0.44630  Biso   1.000  C
  H58      1.0000 0.21440  0.52410  0.42750  Biso   1.000  H
  C85      1.0000 0.24210  0.63430  0.42760  Biso   1.000  C
  C86      1.0000 0.22540  0.70080  0.45550  Biso   1.000  C
  H59      1.0000 0.25070  0.74610  0.44300  Biso   1.000  H
  C87      1.0000 0.17080  0.69910  0.50230  Biso   1.000  C
  H60      1.0000 0.15890  0.74380  0.52120  Biso   1.000  H
  C88      1.0000 0.29670  0.63490  0.37690  Biso   1.000  C
  C89      1.0000 0.34260  0.57180  0.35930  Biso   1.000  C
  H61      1.0000 0.34040  0.52840  0.38090  Biso   1.000  H
  C90      1.0000 0.39100  0.56990  0.31170  Biso   1.000  C
  H62      1.0000 0.42460  0.52700  0.30180  Biso   1.000  H
  C91      1.0000 0.38970  0.63140  0.27880  Biso   1.000  C
  C92      1.0000 0.34330  0.69440  0.29400  Biso   1.000  C
  H63      1.0000 0.34060  0.73590  0.27060  Biso   1.000  H
  C93      1.0000 0.30120  0.69660  0.34310  Biso   1.000  C
  H64      1.0000 0.27410  0.74170  0.35470  Biso   1.000  H
  C94      1.0000 0.43320  0.62820  0.22290  Biso   1.000  C
  C95      1.0000 0.04380  0.63820  0.73140  Biso   1.000  C
  C96      1.0000 0.10090  0.63770  0.77990  Biso   1.000  C
  C97      1.0000 0.15020  0.57840  0.79410  Biso   1.000  C
  H65      1.0000 0.14780  0.53500  0.77260  Biso   1.000  H
  C98      1.0000 0.20590  0.57940  0.84080  Biso   1.000  C
  H66      1.0000 0.24370  0.53790  0.84860  Biso   1.000  H
  C99      1.0000 0.20630  0.63830  0.87450  Biso   1.000  C
  C100     1.0000 0.15350  0.69960  0.86280  Biso   1.000  C
  H67      1.0000 0.15280  0.74090  0.88650  Biso   1.000  H
  C101     1.0000 0.10040  0.70040  0.81510  Biso   1.000  C
  H68      1.0000 0.06430  0.74250  0.80650  Biso   1.000  H
  C102     1.0000 0.26360  0.63630  0.92390  Biso   1.000  C
  C103     1.0000 0.29270  0.56890  0.94430  Biso   1.000  C
  H69      1.0000 0.27420  0.52400  0.92760  Biso   1.000  H
  C104     1.0000 0.34940  0.56760  0.98960  Biso   1.000  C
  H70      1.0000 0.37020  0.52130  0.00310  Biso   1.000  H
  C105     1.0000 0.37560  0.63110  0.01500  Biso   1.000  C
  C106     1.0000 0.34820  0.69900  0.99370  Biso   1.000  C
  H71      1.0000 0.36830  0.74370  0.01000  Biso   1.000  H
  C107     1.0000 0.29210  0.70150  0.94900  Biso   1.000  C
  H72      1.0000 0.27280  0.74800  0.93510  Biso   1.000  H
  C108     1.0000 0.43920  0.62940  0.06240  Biso   1.000  C
  Zn6      1.0000 0.03416  0.94727  0.64361  Biso   1.000  Zn
  Zn7      1.0000 0.03951  0.43962  0.35593  Biso   1.000  Zn
  Zn8      1.0000 0.00371  0.24682  0.35502  Biso   1.000  Zn
  O25      1.0000 0.16960  0.41460  0.34890  Biso   1.000  O
  O26      1.0000 0.11760  0.30830  0.37951  Biso   1.000  O
  O27      1.0000 0.83610  0.07830  0.35760  Biso   1.000  O
  O28      1.0000 0.88560  0.18890  0.33334  Biso   1.000  O
  O29      1.0000 0.97390  0.42510  0.42266  Biso   1.000  O
  O30      1.0000 0.91590  0.31600  0.39784  Biso   1.000  O
  O31      1.0000 0.52040  0.42970  0.78721  Biso   1.000  O
  O32      1.0000 0.58840  0.32480  0.81220  Biso   1.000  O
  O33      1.0000 0.96800  0.42200  0.29068  Biso   1.000  O
  O34      1.0000 0.99440  0.30180  0.28233  Biso   1.000  O
  O35      1.0000 0.54180  0.43180  0.91917  Biso   1.000  O
  O36      1.0000 0.51680  0.31100  0.92535  Biso   1.000  O
  N5       1.0000 0.03300  0.55309  0.35640  Biso   1.000  N
  N6       1.0000 0.97380  0.93920  0.35680  Biso   1.000  N
  C109     1.0000 0.98470  0.58770  0.39460  Biso   1.000  C
  H73      1.0000 0.95820  0.55900  0.42260  Biso   1.000  H
  C110     1.0000 0.97160  0.66400  0.39510  Biso   1.000  C
  H74      1.0000 0.93780  0.68730  0.42310  Biso   1.000  H
  C111     1.0000 0.00930  0.70470  0.35370  Biso   1.000  C
  C112     1.0000 0.05950  0.66960  0.31390  Biso   1.000  C
  C113     1.0000 0.10690  0.70890  0.26840  Biso   1.000  C
  H75      1.0000 0.15140  0.74430  0.28310  Biso   1.000  H
  H76      1.0000 0.06150  0.73540  0.24670  Biso   1.000  H
  H77      1.0000 0.13890  0.67270  0.24590  Biso   1.000  H
  C114     1.0000 0.06790  0.59360  0.31730  Biso   1.000  C
  H78      1.0000 0.10090  0.56890  0.28970  Biso   1.000  H
  C115     1.0000 0.02070  0.90450  0.39610  Biso   1.000  C
  H79      1.0000 0.04530  0.93250  0.42500  Biso   1.000  H
  C116     1.0000 0.03350  0.82890  0.39490  Biso   1.000  C
  H80      1.0000 0.06860  0.80540  0.42210  Biso   1.000  H
  C117     1.0000 0.99430  0.78660  0.35310  Biso   1.000  C
  C118     1.0000 0.93950  0.82300  0.31530  Biso   1.000  C
  C119     1.0000 0.88160  0.78380  0.27450  Biso   1.000  C
  H81      1.0000 0.89130  0.73030  0.27750  Biso   1.000  H
  H82      1.0000 0.89860  0.80040  0.23830  Biso   1.000  H
  H83      1.0000 0.81680  0.79510  0.28110  Biso   1.000  H
  C120     1.0000 0.93340  0.89930  0.31850  Biso   1.000  C
  H84      1.0000 0.89860  0.92460  0.29190  Biso   1.000  H
  C121     1.0000 0.18080  0.34830  0.36180  Biso   1.000  C
  C122     1.0000 0.27590  0.31890  0.35950  Biso   1.000  C
  C123     1.0000 0.34870  0.36260  0.34070  Biso   1.000  C
  H85      1.0000 0.33710  0.41100  0.32750  Biso   1.000  H
  C124     1.0000 0.43980  0.33460  0.34160  Biso   1.000  C
  H86      1.0000 0.48910  0.36380  0.32830  Biso   1.000  H
  C125     1.0000 0.45630  0.26350  0.36220  Biso   1.000  C
  C126     1.0000 0.38210  0.21980  0.37970  Biso   1.000  C
  H87      1.0000 0.39270  0.17120  0.39280  Biso   1.000  H
  C127     1.0000 0.29400  0.24750  0.37780  Biso   1.000  C
  H88      1.0000 0.24460  0.21710  0.38930  Biso   1.000  H
  C128     1.0000 0.55160  0.23380  0.36030  Biso   1.000  C
  C129     1.0000 0.56640  0.15800  0.35400  Biso   1.000  C
  H89      1.0000 0.51550  0.12530  0.35210  Biso   1.000  H
  C130     1.0000 0.65360  0.13020  0.35040  Biso   1.000  C
  H90      1.0000 0.66270  0.07870  0.34500  Biso   1.000  H
  C131     1.0000 0.72760  0.17630  0.35460  Biso   1.000  C
  C132     1.0000 0.71490  0.25110  0.35970  Biso   1.000  C
  H91      1.0000 0.76610  0.28360  0.36040  Biso   1.000  H
  C133     1.0000 0.62550  0.27920  0.36380  Biso   1.000  C
  H92      1.0000 0.61650  0.33080  0.36910  Biso   1.000  H
  C134     1.0000 0.82370  0.14610  0.34890  Biso   1.000  C
  C135     1.0000 0.92470  0.36650  0.43020  Biso   1.000  C
  C136     1.0000 0.86590  0.36680  0.47890  Biso   1.000  C
  C137     1.0000 0.85130  0.43170  0.50840  Biso   1.000  C
  H93      1.0000 0.87910  0.47670  0.49720  Biso   1.000  H
  C138     1.0000 0.79670  0.43100  0.55370  Biso   1.000  C
  H94      1.0000 0.78560  0.47590  0.57250  Biso   1.000  H
  C139     1.0000 0.75790  0.36570  0.57240  Biso   1.000  C
  C140     1.0000 0.77460  0.29920  0.54450  Biso   1.000  C
  H95      1.0000 0.74930  0.25390  0.55700  Biso   1.000  H
  C141     1.0000 0.82920  0.30090  0.49770  Biso   1.000  C
  H96      1.0000 0.84110  0.25620  0.47880  Biso   1.000  H
  C142     1.0000 0.70330  0.36510  0.62310  Biso   1.000  C
  C143     1.0000 0.65740  0.42820  0.64070  Biso   1.000  C
  H97      1.0000 0.65960  0.47160  0.61910  Biso   1.000  H
  C144     1.0000 0.60900  0.43010  0.68830  Biso   1.000  C
  H98      1.0000 0.57540  0.47300  0.69820  Biso   1.000  H
  C145     1.0000 0.61030  0.36860  0.72120  Biso   1.000  C
  C146     1.0000 0.65670  0.30560  0.70600  Biso   1.000  C
  H99      1.0000 0.65940  0.26410  0.72940  Biso   1.000  H
  C147     1.0000 0.69880  0.30340  0.65690  Biso   1.000  C
  H100     1.0000 0.72590  0.25830  0.64530  Biso   1.000  H
  C148     1.0000 0.56680  0.37180  0.77710  Biso   1.000  C
  C149     1.0000 0.95620  0.36180  0.26860  Biso   1.000  C
  C150     1.0000 0.89910  0.36230  0.22010  Biso   1.000  C
  C151     1.0000 0.84980  0.42160  0.20590  Biso   1.000  C
  H101     1.0000 0.85220  0.46500  0.22740  Biso   1.000  H
  C152     1.0000 0.79410  0.42060  0.15920  Biso   1.000  C
  H102     1.0000 0.75630  0.46210  0.15140  Biso   1.000  H
  C153     1.0000 0.79370  0.36170  0.12550  Biso   1.000  C
  C154     1.0000 0.84650  0.30040  0.13720  Biso   1.000  C
  H103     1.0000 0.84720  0.25910  0.11350  Biso   1.000  H
  C155     1.0000 0.89960  0.29960  0.18490  Biso   1.000  C
  H104     1.0000 0.93570  0.25750  0.19350  Biso   1.000  H
  C156     1.0000 0.73640  0.36370  0.07610  Biso   1.000  C
  C157     1.0000 0.70730  0.43110  0.05570  Biso   1.000  C
  H105     1.0000 0.72580  0.47600  0.07240  Biso   1.000  H
  C158     1.0000 0.65060  0.43240  0.01040  Biso   1.000  C
  H106     1.0000 0.62980  0.47870  0.99690  Biso   1.000  H
  C159     1.0000 0.62440  0.36890  0.98500  Biso   1.000  C
  C160     1.0000 0.65180  0.30100  0.00630  Biso   1.000  C
  H107     1.0000 0.63170  0.25630  0.99000  Biso   1.000  H
  C161     1.0000 0.70790  0.29850  0.05100  Biso   1.000  C
  H108     1.0000 0.72720  0.25200  0.06490  Biso   1.000  H
  C162     1.0000 0.56080  0.37060  0.93760  Biso   1.000  C
  Zn9      1.0000 0.96584  0.05273  0.35639  Biso   1.000  Zn
  Zn10     1.0000 0.53951  0.06038  0.85593  Biso   1.000  Zn
  Zn11     1.0000 0.50371  0.25318  0.85502  Biso   1.000  Zn
  O37      1.0000 0.66960  0.08540  0.84890  Biso   1.000  O
  O38      1.0000 0.61760  0.19170  0.87951  Biso   1.000  O
  O39      1.0000 0.33610  0.42170  0.85760  Biso   1.000  O
  O40      1.0000 0.38560  0.31110  0.83334  Biso   1.000  O
  O41      1.0000 0.47390  0.07490  0.92266  Biso   1.000  O
  O42      1.0000 0.41590  0.18400  0.89784  Biso   1.000  O
  O43      1.0000 0.02040  0.07030  0.28721  Biso   1.000  O
  O44      1.0000 0.08840  0.17520  0.31220  Biso   1.000  O
  O45      1.0000 0.46800  0.07800  0.79068  Biso   1.000  O
  O46      1.0000 0.49440  0.19820  0.78233  Biso   1.000  O
  O47      1.0000 0.04180  0.06820  0.41917  Biso   1.000  O
  O48      1.0000 0.01680  0.18900  0.42535  Biso   1.000  O
  N7       1.0000 0.53300  0.94691  0.85640  Biso   1.000  N
  N8       1.0000 0.47380  0.56080  0.85680  Biso   1.000  N
  C163     1.0000 0.48470  0.91230  0.89460  Biso   1.000  C
  H109     1.0000 0.45820  0.94100  0.92260  Biso   1.000  H
  C164     1.0000 0.47160  0.83600  0.89510  Biso   1.000  C
  H110     1.0000 0.43780  0.81270  0.92310  Biso   1.000  H
  C165     1.0000 0.50930  0.79530  0.85370  Biso   1.000  C
  C166     1.0000 0.55950  0.83040  0.81390  Biso   1.000  C
  C167     1.0000 0.60690  0.79110  0.76840  Biso   1.000  C
  H111     1.0000 0.65140  0.75570  0.78310  Biso   1.000  H
  H112     1.0000 0.56150  0.76460  0.74670  Biso   1.000  H
  H113     1.0000 0.63890  0.82730  0.74590  Biso   1.000  H
  C168     1.0000 0.56790  0.90640  0.81730  Biso   1.000  C
  H114     1.0000 0.60090  0.93110  0.78970  Biso   1.000  H
  C169     1.0000 0.52070  0.59550  0.89610  Biso   1.000  C
  H115     1.0000 0.54530  0.56750  0.92500  Biso   1.000  H
  C170     1.0000 0.53350  0.67110  0.89490  Biso   1.000  C
  H116     1.0000 0.56860  0.69460  0.92210  Biso   1.000  H
  C171     1.0000 0.49430  0.71340  0.85310  Biso   1.000  C
  C172     1.0000 0.43950  0.67700  0.81530  Biso   1.000  C
  C173     1.0000 0.38160  0.71620  0.77450  Biso   1.000  C
  H117     1.0000 0.39130  0.76970  0.77750  Biso   1.000  H
  H118     1.0000 0.39860  0.69960  0.73830  Biso   1.000  H
  H119     1.0000 0.31680  0.70490  0.78110  Biso   1.000  H
  C174     1.0000 0.43340  0.60070  0.81850  Biso   1.000  C
  H120     1.0000 0.39860  0.57540  0.79190  Biso   1.000  H
  C175     1.0000 0.68080  0.15170  0.86180  Biso   1.000  C
  C176     1.0000 0.77590  0.18110  0.85950  Biso   1.000  C
  C177     1.0000 0.84870  0.13740  0.84070  Biso   1.000  C
  H121     1.0000 0.83710  0.08900  0.82750  Biso   1.000  H
  C178     1.0000 0.93980  0.16540  0.84160  Biso   1.000  C
  H122     1.0000 0.98910  0.13620  0.82830  Biso   1.000  H
  C179     1.0000 0.95630  0.23650  0.86220  Biso   1.000  C
  C180     1.0000 0.88210  0.28020  0.87970  Biso   1.000  C
  H123     1.0000 0.89270  0.32880  0.89280  Biso   1.000  H
  C181     1.0000 0.79400  0.25250  0.87780  Biso   1.000  C
  H124     1.0000 0.74460  0.28290  0.88930  Biso   1.000  H
  C182     1.0000 0.05160  0.26620  0.86030  Biso   1.000  C
  C183     1.0000 0.06640  0.34200  0.85400  Biso   1.000  C
  H125     1.0000 0.01550  0.37470  0.85210  Biso   1.000  H
  C184     1.0000 0.15360  0.36980  0.85040  Biso   1.000  C
  H126     1.0000 0.16270  0.42130  0.84500  Biso   1.000  H
  C185     1.0000 0.22760  0.32370  0.85460  Biso   1.000  C
  C186     1.0000 0.21490  0.24890  0.85970  Biso   1.000  C
  H127     1.0000 0.26610  0.21640  0.86040  Biso   1.000  H
  C187     1.0000 0.12550  0.22080  0.86380  Biso   1.000  C
  H128     1.0000 0.11650  0.16920  0.86910  Biso   1.000  H
  C188     1.0000 0.32370  0.35390  0.84890  Biso   1.000  C
  C189     1.0000 0.42470  0.13350  0.93020  Biso   1.000  C
  C190     1.0000 0.36590  0.13320  0.97890  Biso   1.000  C
  C191     1.0000 0.35130  0.06830  0.00840  Biso   1.000  C
  H129     1.0000 0.37910  0.02330  0.99720  Biso   1.000  H
  C192     1.0000 0.29670  0.06900  0.05370  Biso   1.000  C
  H130     1.0000 0.28560  0.02410  0.07250  Biso   1.000  H
  C193     1.0000 0.25790  0.13430  0.07240  Biso   1.000  C
  C194     1.0000 0.27460  0.20080  0.04450  Biso   1.000  C
  H131     1.0000 0.24930  0.24610  0.05700  Biso   1.000  H
  C195     1.0000 0.32920  0.19910  0.99770  Biso   1.000  C
  H132     1.0000 0.34110  0.24380  0.97880  Biso   1.000  H
  C196     1.0000 0.20330  0.13490  0.12310  Biso   1.000  C
  C197     1.0000 0.15740  0.07180  0.14070  Biso   1.000  C
  H133     1.0000 0.15960  0.02840  0.11910  Biso   1.000  H
  C198     1.0000 0.10900  0.06990  0.18830  Biso   1.000  C
  H134     1.0000 0.07540  0.02700  0.19820  Biso   1.000  H
  C199     1.0000 0.11030  0.13140  0.22120  Biso   1.000  C
  C200     1.0000 0.15670  0.19440  0.20600  Biso   1.000  C
  H135     1.0000 0.15940  0.23590  0.22940  Biso   1.000  H
  C201     1.0000 0.19880  0.19660  0.15690  Biso   1.000  C
  H136     1.0000 0.22590  0.24170  0.14530  Biso   1.000  H
  C202     1.0000 0.06680  0.12820  0.27710  Biso   1.000  C
  C203     1.0000 0.45620  0.13820  0.76860  Biso   1.000  C
  C204     1.0000 0.39910  0.13770  0.72010  Biso   1.000  C
  C205     1.0000 0.34980  0.07840  0.70590  Biso   1.000  C
  H137     1.0000 0.35220  0.03500  0.72740  Biso   1.000  H
  C206     1.0000 0.29410  0.07940  0.65920  Biso   1.000  C
  H138     1.0000 0.25630  0.03790  0.65140  Biso   1.000  H
  C207     1.0000 0.29370  0.13830  0.62550  Biso   1.000  C
  C208     1.0000 0.34650  0.19960  0.63720  Biso   1.000  C
  H139     1.0000 0.34720  0.24090  0.61350  Biso   1.000  H
  C209     1.0000 0.39960  0.20040  0.68490  Biso   1.000  C
  H140     1.0000 0.43570  0.24250  0.69350  Biso   1.000  H
  C210     1.0000 0.23640  0.13630  0.57610  Biso   1.000  C
  C211     1.0000 0.20730  0.06890  0.55570  Biso   1.000  C
  H141     1.0000 0.22580  0.02400  0.57240  Biso   1.000  H
  C212     1.0000 0.15060  0.06760  0.51040  Biso   1.000  C
  H142     1.0000 0.12980  0.02130  0.49690  Biso   1.000  H
  C213     1.0000 0.12440  0.13110  0.48500  Biso   1.000  C
  C214     1.0000 0.15180  0.19900  0.50630  Biso   1.000  C
  H143     1.0000 0.13170  0.24370  0.49000  Biso   1.000  H
  C215     1.0000 0.20790  0.20150  0.55100  Biso   1.000  C
  H144     1.0000 0.22720  0.24800  0.56490  Biso   1.000  H
  C216     1.0000 0.06080  0.12940  0.43760  Biso   1.000  C
  Zn12     1.0000 0.46584  0.44727  0.85639  Biso   1.000  Zn
