data_TICPOL_charged
_audit_creation_date              2014-07-02
_audit_creation_method            'Materials Studio'
_symmetry_space_group_name_H-M    'P1'
_symmetry_Int_Tables_number       1
_symmetry_cell_setting            triclinic
loop_
_symmetry_equiv_pos_as_xyz
  x,y,z
_cell_length_a                    15.7440
_cell_length_b                    17.8920
_cell_length_c                    18.3020
_cell_angle_alpha                 98.0860
_cell_angle_beta                  111.6340
_cell_angle_gamma                 104.9230
loop_
_atom_site_label
_atom_site_type_symbol
_atom_site_fract_x
_atom_site_fract_y
_atom_site_fract_z
_atom_site_U_iso_or_equiv
_atom_site_adp_type
_atom_site_occupancy
Co1    Co    0.26062   0.24466   0.26093   0.01267  Uiso   1.00
Co2    Co    0.26184   0.26517   0.76806   0.01267  Uiso   1.00
Co3    Co    0.98105   0.36516   0.59961   0.01267  Uiso   1.00
Co4    Co    0.72679   0.10107   0.39485   0.01267  Uiso   1.00
Co5    Co    0.23669   0.72437   0.21782   0.01267  Uiso   1.00
P1     P     0.36674   0.34492   0.36961   0.01267  Uiso   1.00
P2     P     0.15942   0.14708   0.14890   0.01267  Uiso   1.00
P3     P     0.21488   0.38886   0.64937   0.01267  Uiso   1.00
P4     P     0.41081   0.64950   0.22172   0.01267  Uiso   1.00
P5     P     0.75061   0.25524   0.52970   0.01267  Uiso   1.00
P6     P     0.75302   0.98578   0.16244   0.01267  Uiso   1.00
P7     P     0.30414   0.84755   0.10284   0.01267  Uiso   1.00
P8     P     0.08454   0.27210   0.82723   0.01267  Uiso   1.00
H1     H     0.64840   0.04500   0.13500   0.01267  Uiso   1.00
H2     H     0.03160   0.98470   0.11130   0.01267  Uiso   1.00
H3     H     0.88200   0.92730   0.11440   0.01267  Uiso   1.00
H4     H     0.87410   0.14890   0.18810   0.01267  Uiso   1.00
H5     H     0.02380   0.20640   0.18500   0.01267  Uiso   1.00
H6     H     0.57570   0.43410   0.43110   0.01267  Uiso   1.00
H7     H     0.71590   0.40200   0.49310   0.01267  Uiso   1.00
H8     H     0.55020   0.18070   0.47850   0.01267  Uiso   1.00
H9     H     0.41010   0.21280   0.41650   0.01267  Uiso   1.00
H10    H     0.19930   0.37470   0.37750   0.01267  Uiso   1.00
H11    H     0.14260   0.39070   0.47820   0.01267  Uiso   1.00
H12    H     0.38590   0.36930   0.64220   0.01267  Uiso   1.00
H13    H     0.44260   0.35330   0.54150   0.01267  Uiso   1.00
H14    H     0.33900   0.49820   0.40210   0.01267  Uiso   1.00
H15    H     0.34940   0.60600   0.34290   0.01267  Uiso   1.00
H16    H     0.46030   0.50410   0.20410   0.01267  Uiso   1.00
H17    H     0.45000   0.39640   0.26340   0.01267  Uiso   1.00
H18    H     0.22620   0.07920   0.03300   0.01267  Uiso   1.00
H19    H     0.27740   0.96870   0.01670   0.01267  Uiso   1.00
H20    H     0.24960   0.92170   0.21850   0.01267  Uiso   1.00
H21    H     0.19850   0.03220   0.23490   0.01267  Uiso   1.00
H22    H     0.43470   0.37400   0.82700   0.01267  Uiso   1.00
H23    H     0.37000   0.41100   0.79900   0.01267  Uiso   1.00
H24    H     0.16700   0.11600   0.73000   0.01267  Uiso   1.00
H25    H     0.10900   0.16000   0.72900   0.01267  Uiso   1.00
H26    H     0.39000   0.23300   0.70200   0.01267  Uiso   1.00
H27    H     0.39560   0.24300   0.88700   0.01267  Uiso   1.00
H28    H     0.31700   0.18180   0.87400   0.01267  Uiso   1.00
H29    H     0.25320   0.28260   0.96730   0.01267  Uiso   1.00
H30    H     0.96260   0.18030   0.88970   0.01267  Uiso   1.00
H31    H     0.98860   0.13530   0.00730   0.01267  Uiso   1.00
H32    H     0.27880   0.24090   0.08700   0.01267  Uiso   1.00
H33    H     0.02200   0.38700   0.75300   0.01267  Uiso   1.00
H34    H     0.07200   0.45770   0.74900   0.01267  Uiso   1.00
H35    H     0.99900   0.22900   0.65600   0.01267  Uiso   1.00
H36    H     0.05370   0.26200   0.62100   0.01267  Uiso   1.00
H37    H     0.94000   0.49400   0.60800   0.01267  Uiso   1.00
H38    H     0.01700   0.50900   0.59000   0.01267  Uiso   1.00
H39    H     0.96700   0.29100   0.45800   0.01267  Uiso   1.00
H40    H     0.87800   0.28200   0.45600   0.01267  Uiso   1.00
H41    H     0.73100   0.98000   0.31100   0.01267  Uiso   1.00
H42    H     0.65700   0.94150   0.32700   0.01267  Uiso   1.00
H43    H     0.67300   0.09730   0.50600   0.01267  Uiso   1.00
H44    H     0.59440   0.03800   0.44800   0.01267  Uiso   1.00
H45    H     0.35300   0.79800   0.36810   0.01267  Uiso   1.00
H46    H     0.40100   0.76600   0.33300   0.01267  Uiso   1.00
H47    H     0.11950   0.79600   0.26200   0.01267  Uiso   1.00
H48    H     0.20800   0.80600   0.31810   0.01267  Uiso   1.00
H49    H     0.05600   0.66300   0.12400   0.01267  Uiso   1.00
H50    H     0.10000   0.67500   0.07350   0.01267  Uiso   1.00
H51    H     0.17100   0.64800   0.31300   0.01267  Uiso   1.00
H52    H     0.15000   0.59040   0.24800   0.01267  Uiso   1.00
H53    H     0.76800   0.11200   0.27320   0.01267  Uiso   1.00
H54    H     0.85100   0.16200   0.33300   0.01267  Uiso   1.00
H55    H     0.56900   0.08200   0.26120   0.01267  Uiso   1.00
H56    H     0.54200   0.07400   0.32000   0.01267  Uiso   1.00
H57    H     0.89500   0.07600   0.47800   0.01267  Uiso   1.00
H58    H     0.90700   0.14700   0.52300   0.01267  Uiso   1.00
C1     C     0.36000   0.22840   0.24270   0.01267  Uiso   1.00
C2     C     0.21540   0.19130   0.32240   0.01267  Uiso   1.00
C3     C     0.20300   0.31270   0.21810   0.01267  Uiso   1.00
C4     C     0.04173   0.10094   0.14788   0.01267  Uiso   1.00
C5     C     0.99962   0.01805   0.12692   0.01267  Uiso   1.00
C6     C     0.91070   0.98393   0.12874   0.01267  Uiso   1.00
C7     C     0.86398   0.03269   0.15153   0.01267  Uiso   1.00
C8     C     0.90610   0.11558   0.17249   0.01267  Uiso   1.00
C9     C     0.99500   0.14970   0.17067   0.01267  Uiso   1.00
C10    C     0.47973   0.32645   0.41797   0.01267  Uiso   1.00
C11    C     0.57060   0.38267   0.44073   0.01267  Uiso   1.00
C12    C     0.65381   0.36361   0.47757   0.01267  Uiso   1.00
C13    C     0.64623   0.28833   0.49165   0.01267  Uiso   1.00
C14    C     0.55540   0.23212   0.46889   0.01267  Uiso   1.00
C15    C     0.47215   0.25118   0.43205   0.01267  Uiso   1.00
C16    C     0.32626   0.36247   0.45000   0.01267  Uiso   1.00
C17    C     0.23717   0.37357   0.43121   0.01267  Uiso   1.00
C18    C     0.20350   0.38308   0.49106   0.01267  Uiso   1.00
C19    C     0.25892   0.38149   0.56970   0.01267  Uiso   1.00
C20    C     0.34801   0.37039   0.58849   0.01267  Uiso   1.00
C21    C     0.38169   0.36089   0.52864   0.01267  Uiso   1.00
C22    C     0.39350   0.43719   0.33834   0.01267  Uiso   1.00
C23    C     0.36360   0.49942   0.36194   0.01267  Uiso   1.00
C24    C     0.36980   0.56342   0.32673   0.01267  Uiso   1.00
C25    C     0.40580   0.56517   0.26792   0.01267  Uiso   1.00
C26    C     0.43570   0.50294   0.24432   0.01267  Uiso   1.00
C27    C     0.42950   0.43894   0.27953   0.01267  Uiso   1.00
C28    C     0.20750   0.06605   0.13553   0.01267  Uiso   1.00
C29    C     0.23100   0.04721   0.07070   0.01267  Uiso   1.00
C30    C     0.26140   0.98160   0.06096   0.01267  Uiso   1.00
C31    C     0.26830   0.93483   0.11605   0.01267  Uiso   1.00
C32    C     0.24490   0.95367   0.18088   0.01267  Uiso   1.00
C33    C     0.21450   0.01928   0.19062   0.01267  Uiso   1.00
C34    C     0.13540   0.18200   0.05770   0.01267  Uiso   1.00
C35    C     0.10530   0.23580   0.91730   0.01267  Uiso   1.00
C36    C     0.19950   0.25330   0.97570   0.01267  Uiso   1.00
C37    C     0.02690   0.19200   0.92950   0.01267  Uiso   1.00
C38    C     0.04240   0.16530   0.99940   0.01267  Uiso   1.00
C39    C     0.21470   0.22760   0.04630   0.01267  Uiso   1.00
O1     O     0.42250   0.21720   0.23117   0.01267  Uiso   1.00
O2     O     0.18710   0.15860   0.36230   0.01267  Uiso   1.00
O3     O     0.16810   0.35550   0.18950   0.01267  Uiso   1.00
O4     O     0.29570   0.45362   0.72285   0.01267  Uiso   1.00
O5     O     0.12340   0.41037   0.61534   0.01267  Uiso   1.00
O6     O     0.19370   0.30620   0.66679   0.01267  Uiso   1.00
O7     O     0.47860   0.72484   0.28912   0.01267  Uiso   1.00
O8     O     0.30560   0.64828   0.18221   0.01267  Uiso   1.00
O9     O     0.44790   0.63314   0.15697   0.01267  Uiso   1.00
O10    O     0.72420   0.19271   0.57405   0.01267  Uiso   1.00
O11    O     0.83840   0.32791   0.58545   0.01267  Uiso   1.00
O12    O     0.76120   0.21800   0.45459   0.01267  Uiso   1.00
O13    O     0.78880   0.96528   0.24493   0.01267  Uiso   1.00
O14    O     0.70610   0.04962   0.16702   0.01267  Uiso   1.00
O15    O     0.69320   0.91220   0.09222   0.01267  Uiso   1.00
O16    O     0.41140   0.87495   0.12306   0.01267  Uiso   1.00
O17    O     0.24810   0.80226   0.00894   0.01267  Uiso   1.00
O18    O     0.27150   0.79537   0.15000   0.01267  Uiso   1.00
O19    O     0.03920   0.33717   0.83736   0.01267  Uiso   1.00
O20    O     0.01300   0.20163   0.75448   0.01267  Uiso   1.00
O21    O     0.37940   0.37464   0.82333   0.01267  Uiso   1.00
O22    O     0.18210   0.30693   0.82437   0.01267  Uiso   1.00
O23    O     0.15130   0.15443   0.71213   0.01267  Uiso   1.00
O24    O     0.33700   0.22206   0.70540   0.01267  Uiso   1.00
O25    O     0.33450   0.22921   0.86931   0.01267  Uiso   1.00
O26    O     0.02030   0.41786   0.72154   0.01267  Uiso   1.00
O27    O     0.99650   0.25185   0.61782   0.01267  Uiso   1.00
O28    O     0.96140   0.47474   0.57601   0.01267  Uiso   1.00
O29    O     0.93500   0.31467   0.47502   0.01267  Uiso   1.00
O30    O     0.70530   0.98437   0.34401   0.01267  Uiso   1.00
O31    O     0.65590   0.05502   0.46852   0.01267  Uiso   1.00
O32    O     0.36030   0.79010   0.32419   0.01267  Uiso   1.00
O33    O     0.17650   0.80042   0.26780   0.01267  Uiso   1.00
O34    O     0.10420   0.65930   0.11580   0.01267  Uiso   1.00
O35    O     0.18560   0.63792   0.27388   0.01267  Uiso   1.00
O36    O     0.79040   0.14430   0.32059   0.01267  Uiso   1.00
O37    O     0.59070   0.09980   0.31280   0.01267  Uiso   1.00
O38    O     0.86410   0.10810   0.48310   0.01267  Uiso   1.00
Co6    Co    0.23811   0.55591   0.92972   0.01267  Uiso   1.00
H59    H     0.26000   0.64300   0.06700   0.01267  Uiso   1.00
H60    H     0.23400   0.68980   0.01900   0.01267  Uiso   1.00
H61    H     0.12400   0.49100   0.98590   0.01267  Uiso   1.00
H62    H     0.09700   0.44200   0.91400   0.01267  Uiso   1.00
H63    H     0.36700   0.64600   0.88400   0.01267  Uiso   1.00
H64    H     0.39100   0.67100   0.96300   0.01267  Uiso   1.00
H65    H     0.36900   0.55300   0.06410   0.01267  Uiso   1.00
H66    H     0.35500   0.49000   0.00700   0.01267  Uiso   1.00
H67    H     0.09400   0.59600   0.83900   0.01267  Uiso   1.00
H68    H     0.16100   0.62200   0.81300   0.01267  Uiso   1.00
H69    H     0.25900   0.47100   0.81000   0.01267  Uiso   1.00
H70    H     0.21400   0.41600   0.83600   0.01267  Uiso   1.00
O39    O     0.23540   0.64247   0.01721   0.01267  Uiso   1.00
O40    O     0.11720   0.48017   0.93723   0.01267  Uiso   1.00
O41    O     0.34350   0.64330   0.91910   0.01267  Uiso   1.00
O42    O     0.32530   0.51830   0.02166   0.01267  Uiso   1.00
O43    O     0.13990   0.58500   0.83230   0.01267  Uiso   1.00
O44    O     0.23470   0.46630   0.84359   0.01267  Uiso   1.00
Co7    Co    0.73938   0.75534   0.73907   0.01267  Uiso   1.00
Co8    Co    0.73816   0.73483   0.23194   0.01267  Uiso   1.00
Co9    Co    0.01895   0.63484   0.40039   0.01267  Uiso   1.00
Co10   Co    0.27321   0.89893   0.60515   0.01267  Uiso   1.00
Co11   Co    0.76331   0.27563   0.78218   0.01267  Uiso   1.00
P9     P     0.63326   0.65508   0.63039   0.01267  Uiso   1.00
P10    P     0.84058   0.85292   0.85110   0.01267  Uiso   1.00
P11    P     0.78512   0.61114   0.35063   0.01267  Uiso   1.00
P12    P     0.58919   0.35050   0.77828   0.01267  Uiso   1.00
P13    P     0.24939   0.74476   0.47030   0.01267  Uiso   1.00
P14    P     0.24698   0.01422   0.83756   0.01267  Uiso   1.00
P15    P     0.69586   0.15245   0.89716   0.01267  Uiso   1.00
P16    P     0.91546   0.72790   0.17277   0.01267  Uiso   1.00
H71    H     0.35160   0.95500   0.86500   0.01267  Uiso   1.00
H72    H     0.96840   0.01530   0.88870   0.01267  Uiso   1.00
H73    H     0.11800   0.07270   0.88560   0.01267  Uiso   1.00
H74    H     0.12590   0.85110   0.81190   0.01267  Uiso   1.00
H75    H     0.97620   0.79360   0.81500   0.01267  Uiso   1.00
H76    H     0.42430   0.56590   0.56890   0.01267  Uiso   1.00
H77    H     0.28410   0.59800   0.50690   0.01267  Uiso   1.00
H78    H     0.44980   0.81930   0.52150   0.01267  Uiso   1.00
H79    H     0.58990   0.78720   0.58350   0.01267  Uiso   1.00
H80    H     0.80070   0.62530   0.62250   0.01267  Uiso   1.00
H81    H     0.85740   0.60930   0.52180   0.01267  Uiso   1.00
H82    H     0.61410   0.63070   0.35780   0.01267  Uiso   1.00
H83    H     0.55740   0.64670   0.45850   0.01267  Uiso   1.00
H84    H     0.66100   0.50180   0.59790   0.01267  Uiso   1.00
H85    H     0.65060   0.39400   0.65710   0.01267  Uiso   1.00
H86    H     0.53970   0.49590   0.79590   0.01267  Uiso   1.00
H87    H     0.55000   0.60360   0.73660   0.01267  Uiso   1.00
H88    H     0.77380   0.92080   0.96700   0.01267  Uiso   1.00
H89    H     0.72260   0.03130   0.98330   0.01267  Uiso   1.00
H90    H     0.75040   0.07830   0.78150   0.01267  Uiso   1.00
H91    H     0.80150   0.96780   0.76510   0.01267  Uiso   1.00
H92    H     0.56530   0.62600   0.17300   0.01267  Uiso   1.00
H93    H     0.63000   0.58900   0.20100   0.01267  Uiso   1.00
H94    H     0.83300   0.88400   0.27000   0.01267  Uiso   1.00
H95    H     0.89100   0.84000   0.27100   0.01267  Uiso   1.00
H96    H     0.61000   0.76700   0.29800   0.01267  Uiso   1.00
H97    H     0.60440   0.75700   0.11300   0.01267  Uiso   1.00
H98    H     0.68300   0.81820   0.12600   0.01267  Uiso   1.00
H99    H     0.74680   0.71740   0.03270   0.01267  Uiso   1.00
H100   H     0.03740   0.81970   0.11030   0.01267  Uiso   1.00
H101   H     0.01140   0.86470   0.99270   0.01267  Uiso   1.00
H102   H     0.72120   0.75910   0.91300   0.01267  Uiso   1.00
H103   H     0.97800   0.61300   0.24700   0.01267  Uiso   1.00
H104   H     0.92800   0.54230   0.25100   0.01267  Uiso   1.00
H105   H     0.00100   0.77100   0.34400   0.01267  Uiso   1.00
H106   H     0.94630   0.73800   0.37900   0.01267  Uiso   1.00
H107   H     0.06000   0.50600   0.39200   0.01267  Uiso   1.00
H108   H     0.98300   0.49100   0.41000   0.01267  Uiso   1.00
H109   H     0.03300   0.70900   0.54200   0.01267  Uiso   1.00
H110   H     0.12200   0.71800   0.54400   0.01267  Uiso   1.00
H111   H     0.26900   0.02000   0.68900   0.01267  Uiso   1.00
H112   H     0.34300   0.05850   0.67300   0.01267  Uiso   1.00
H113   H     0.32700   0.90270   0.49400   0.01267  Uiso   1.00
H114   H     0.40560   0.96200   0.55200   0.01267  Uiso   1.00
H115   H     0.64700   0.20200   0.63190   0.01267  Uiso   1.00
H116   H     0.59900   0.23400   0.66700   0.01267  Uiso   1.00
H117   H     0.88050   0.20400   0.73800   0.01267  Uiso   1.00
H118   H     0.79200   0.19400   0.68190   0.01267  Uiso   1.00
H119   H     0.94400   0.33700   0.87600   0.01267  Uiso   1.00
H120   H     0.90000   0.32500   0.92650   0.01267  Uiso   1.00
H121   H     0.82900   0.35200   0.68700   0.01267  Uiso   1.00
H122   H     0.85000   0.40960   0.75200   0.01267  Uiso   1.00
H123   H     0.23200   0.88800   0.72680   0.01267  Uiso   1.00
H124   H     0.14900   0.83800   0.66700   0.01267  Uiso   1.00
H125   H     0.43100   0.91800   0.73880   0.01267  Uiso   1.00
H126   H     0.45800   0.92600   0.68000   0.01267  Uiso   1.00
H127   H     0.10500   0.92400   0.52200   0.01267  Uiso   1.00
H128   H     0.09300   0.85300   0.47700   0.01267  Uiso   1.00
C40    C     0.64000   0.77160   0.75730   0.01267  Uiso   1.00
C41    C     0.78460   0.80870   0.67760   0.01267  Uiso   1.00
C42    C     0.79700   0.68730   0.78190   0.01267  Uiso   1.00
C43    C     0.95827   0.89906   0.85212   0.01267  Uiso   1.00
C44    C     0.00038   0.98195   0.87308   0.01267  Uiso   1.00
C45    C     0.08930   0.01607   0.87126   0.01267  Uiso   1.00
C46    C     0.13602   0.96731   0.84847   0.01267  Uiso   1.00
C47    C     0.09390   0.88442   0.82751   0.01267  Uiso   1.00
C48    C     0.00500   0.85030   0.82933   0.01267  Uiso   1.00
C49    C     0.52027   0.67355   0.58203   0.01267  Uiso   1.00
C50    C     0.42940   0.61733   0.55927   0.01267  Uiso   1.00
C51    C     0.34619   0.63639   0.52243   0.01267  Uiso   1.00
C52    C     0.35377   0.71167   0.50835   0.01267  Uiso   1.00
C53    C     0.44460   0.76788   0.53111   0.01267  Uiso   1.00
C54    C     0.52785   0.74882   0.56795   0.01267  Uiso   1.00
C55    C     0.67374   0.63753   0.55000   0.01267  Uiso   1.00
C56    C     0.76283   0.62643   0.56879   0.01267  Uiso   1.00
C57    C     0.79650   0.61692   0.50894   0.01267  Uiso   1.00
C58    C     0.74108   0.61851   0.43030   0.01267  Uiso   1.00
C59    C     0.65199   0.62961   0.41151   0.01267  Uiso   1.00
C60    C     0.61831   0.63911   0.47136   0.01267  Uiso   1.00
C61    C     0.60650   0.56281   0.66166   0.01267  Uiso   1.00
C62    C     0.63640   0.50058   0.63806   0.01267  Uiso   1.00
C63    C     0.63020   0.43658   0.67327   0.01267  Uiso   1.00
C64    C     0.59420   0.43483   0.73208   0.01267  Uiso   1.00
C65    C     0.56430   0.49706   0.75568   0.01267  Uiso   1.00
C66    C     0.57050   0.56106   0.72047   0.01267  Uiso   1.00
C67    C     0.79250   0.93395   0.86447   0.01267  Uiso   1.00
C68    C     0.76900   0.95279   0.92930   0.01267  Uiso   1.00
C69    C     0.73860   0.01840   0.93904   0.01267  Uiso   1.00
C70    C     0.73170   0.06517   0.88395   0.01267  Uiso   1.00
C71    C     0.75510   0.04633   0.81912   0.01267  Uiso   1.00
C72    C     0.78550   0.98072   0.80938   0.01267  Uiso   1.00
C73    C     0.86460   0.81800   0.94230   0.01267  Uiso   1.00
C74    C     0.89470   0.76420   0.08270   0.01267  Uiso   1.00
C75    C     0.80050   0.74670   0.02430   0.01267  Uiso   1.00
C76    C     0.97310   0.80800   0.07050   0.01267  Uiso   1.00
C77    C     0.95760   0.83470   0.00060   0.01267  Uiso   1.00
C78    C     0.78530   0.77240   0.95370   0.01267  Uiso   1.00
O45    O     0.57750   0.78280   0.76883   0.01267  Uiso   1.00
O46    O     0.81290   0.84140   0.63770   0.01267  Uiso   1.00
O47    O     0.83190   0.64450   0.81050   0.01267  Uiso   1.00
O48    O     0.70430   0.54638   0.27715   0.01267  Uiso   1.00
O49    O     0.87660   0.58963   0.38466   0.01267  Uiso   1.00
O50    O     0.80630   0.69380   0.33321   0.01267  Uiso   1.00
O51    O     0.52140   0.27516   0.71088   0.01267  Uiso   1.00
O52    O     0.69440   0.35172   0.81779   0.01267  Uiso   1.00
O53    O     0.55210   0.36686   0.84303   0.01267  Uiso   1.00
O54    O     0.27580   0.80729   0.42595   0.01267  Uiso   1.00
O55    O     0.16160   0.67209   0.41455   0.01267  Uiso   1.00
O56    O     0.23880   0.78200   0.54541   0.01267  Uiso   1.00
O57    O     0.21120   0.03472   0.75507   0.01267  Uiso   1.00
O58    O     0.29390   0.95038   0.83298   0.01267  Uiso   1.00
O59    O     0.30680   0.08780   0.90778   0.01267  Uiso   1.00
O60    O     0.58860   0.12505   0.87694   0.01267  Uiso   1.00
O61    O     0.75190   0.19774   0.99106   0.01267  Uiso   1.00
O62    O     0.72850   0.20463   0.85000   0.01267  Uiso   1.00
O63    O     0.96080   0.66283   0.16264   0.01267  Uiso   1.00
O64    O     0.98700   0.79837   0.24552   0.01267  Uiso   1.00
O65    O     0.62060   0.62536   0.17667   0.01267  Uiso   1.00
O66    O     0.81790   0.69307   0.17563   0.01267  Uiso   1.00
O67    O     0.84870   0.84557   0.28787   0.01267  Uiso   1.00
O68    O     0.66300   0.77794   0.29460   0.01267  Uiso   1.00
O69    O     0.66550   0.77079   0.13069   0.01267  Uiso   1.00
O70    O     0.97970   0.58214   0.27846   0.01267  Uiso   1.00
O71    O     0.00350   0.74815   0.38218   0.01267  Uiso   1.00
O72    O     0.03860   0.52526   0.42399   0.01267  Uiso   1.00
O73    O     0.06500   0.68533   0.52498   0.01267  Uiso   1.00
O74    O     0.29470   0.01563   0.65599   0.01267  Uiso   1.00
O75    O     0.34410   0.94498   0.53148   0.01267  Uiso   1.00
O76    O     0.63970   0.20990   0.67581   0.01267  Uiso   1.00
O77    O     0.82350   0.19958   0.73220   0.01267  Uiso   1.00
O78    O     0.89580   0.34070   0.88420   0.01267  Uiso   1.00
O79    O     0.81440   0.36208   0.72612   0.01267  Uiso   1.00
O80    O     0.20960   0.85570   0.67941   0.01267  Uiso   1.00
O81    O     0.40930   0.90020   0.68720   0.01267  Uiso   1.00
O82    O     0.13590   0.89190   0.51690   0.01267  Uiso   1.00
Co12   Co    0.76189   0.44409   0.07028   0.01267  Uiso   1.00
H129   H     0.74000   0.35700   0.93300   0.01267  Uiso   1.00
H130   H     0.76600   0.31020   0.98100   0.01267  Uiso   1.00
H131   H     0.87600   0.50900   0.01410   0.01267  Uiso   1.00
H132   H     0.90300   0.55800   0.08600   0.01267  Uiso   1.00
H133   H     0.63300   0.35400   0.11600   0.01267  Uiso   1.00
H134   H     0.60900   0.32900   0.03700   0.01267  Uiso   1.00
H135   H     0.63100   0.44700   0.93590   0.01267  Uiso   1.00
H136   H     0.64500   0.51000   0.99300   0.01267  Uiso   1.00
H137   H     0.90600   0.40400   0.16100   0.01267  Uiso   1.00
H138   H     0.83900   0.37800   0.18700   0.01267  Uiso   1.00
H139   H     0.74100   0.52900   0.19000   0.01267  Uiso   1.00
H140   H     0.78600   0.58400   0.16400   0.01267  Uiso   1.00
O83    O     0.76460   0.35753   0.98279   0.01267  Uiso   1.00
O84    O     0.88280   0.51983   0.06277   0.01267  Uiso   1.00
O85    O     0.65650   0.35670   0.08090   0.01267  Uiso   1.00
O86    O     0.67470   0.48170   0.97834   0.01267  Uiso   1.00
O87    O     0.86010   0.41500   0.16770   0.01267  Uiso   1.00
O88    O     0.76530   0.53370   0.15641   0.01267  Uiso   1.00
