data_image0
_cell_length_a       7.62
_cell_length_b       20.963
_cell_length_c       9.876
_cell_angle_alpha    90
_cell_angle_beta     90
_cell_angle_gamma    90

_symmetry_space_group_name_H-M    "P 1"
_symmetry_int_tables_number       1

loop_
  _symmetry_equiv_pos_as_xyz
  'x, y, z'

loop_
  _atom_site_label
  _atom_site_occupancy
  _atom_site_fract_x
  _atom_site_fract_y
  _atom_site_fract_z
  _atom_site_thermal_displace_type
  _atom_site_B_iso_or_equiv
  _atom_site_type_symbol
  N1       1.0000 0.59030  0.17130  0.13620  Biso   1.000  N
  C1       1.0000 0.64070  0.12080  0.06910  Biso   1.000  C
  H1       1.0000 0.75660  0.10900  0.05320  Biso   1.000  H
  H2       1.0000 0.39680  0.02440  0.89330  Biso   1.000  H
  N2       1.0000 0.09030  0.67130  0.63620  Biso   1.000  N
  C2       1.0000 0.14070  0.62080  0.56910  Biso   1.000  C
  H3       1.0000 0.25660  0.60900  0.55320  Biso   1.000  H
  H4       1.0000 0.89680  0.52440  0.39330  Biso   1.000  H
  N3       1.0000 0.40970  0.32870  0.13620  Biso   1.000  N
  C3       1.0000 0.35930  0.37920  0.06910  Biso   1.000  C
  H5       1.0000 0.24340  0.39100  0.05320  Biso   1.000  H
  H6       1.0000 0.60320  0.47560  0.89330  Biso   1.000  H
  N4       1.0000 0.90970  0.82870  0.63620  Biso   1.000  N
  C4       1.0000 0.85930  0.87920  0.56910  Biso   1.000  C
  H7       1.0000 0.74340  0.89100  0.55320  Biso   1.000  H
  H8       1.0000 0.10320  0.97560  0.39330  Biso   1.000  H
  N5       1.0000 0.40970  0.67130  0.86380  Biso   1.000  N
  C5       1.0000 0.35930  0.62080  0.93090  Biso   1.000  C
  H9       1.0000 0.24340  0.60900  0.94680  Biso   1.000  H
  H10      1.0000 0.60320  0.52440  0.10670  Biso   1.000  H
  N6       1.0000 0.90970  0.17130  0.36380  Biso   1.000  N
  C6       1.0000 0.85930  0.12080  0.43090  Biso   1.000  C
  H11      1.0000 0.74340  0.10900  0.44680  Biso   1.000  H
  H12      1.0000 0.10320  0.02440  0.60670  Biso   1.000  H
  N7       1.0000 0.59030  0.82870  0.86380  Biso   1.000  N
  C7       1.0000 0.64070  0.87920  0.93090  Biso   1.000  C
  H13      1.0000 0.75660  0.89100  0.94680  Biso   1.000  H
  H14      1.0000 0.39680  0.97560  0.10670  Biso   1.000  H
  N8       1.0000 0.09030  0.32870  0.36380  Biso   1.000  N
  C8       1.0000 0.14070  0.37920  0.43090  Biso   1.000  C
  H15      1.0000 0.25660  0.39100  0.44680  Biso   1.000  H
  H16      1.0000 0.89680  0.47560  0.60670  Biso   1.000  H
  N9       1.0000 0.40970  0.82870  0.86380  Biso   1.000  N
  C9       1.0000 0.35930  0.87920  0.93090  Biso   1.000  C
  H17      1.0000 0.24340  0.89100  0.94680  Biso   1.000  H
  H18      1.0000 0.60320  0.97560  0.10670  Biso   1.000  H
  N10      1.0000 0.90970  0.32870  0.36380  Biso   1.000  N
  C10      1.0000 0.85930  0.37920  0.43090  Biso   1.000  C
  H19      1.0000 0.74340  0.39100  0.44680  Biso   1.000  H
  H20      1.0000 0.10320  0.47560  0.60670  Biso   1.000  H
  N11      1.0000 0.59030  0.67130  0.86380  Biso   1.000  N
  C11      1.0000 0.64070  0.62080  0.93090  Biso   1.000  C
  H21      1.0000 0.75660  0.60900  0.94680  Biso   1.000  H
  H22      1.0000 0.39680  0.52440  0.10670  Biso   1.000  H
  N12      1.0000 0.09030  0.17130  0.36380  Biso   1.000  N
  C12      1.0000 0.14070  0.12080  0.43090  Biso   1.000  C
  H23      1.0000 0.25660  0.10900  0.44680  Biso   1.000  H
  H24      1.0000 0.89680  0.02440  0.60670  Biso   1.000  H
  N13      1.0000 0.59030  0.32870  0.13620  Biso   1.000  N
  C13      1.0000 0.64070  0.37920  0.06910  Biso   1.000  C
  H25      1.0000 0.75660  0.39100  0.05320  Biso   1.000  H
  H26      1.0000 0.39680  0.47560  0.89330  Biso   1.000  H
  N14      1.0000 0.09030  0.82870  0.63620  Biso   1.000  N
  C14      1.0000 0.14070  0.87920  0.56910  Biso   1.000  C
  H27      1.0000 0.25660  0.89100  0.55320  Biso   1.000  H
  H28      1.0000 0.89680  0.97560  0.39330  Biso   1.000  H
  N15      1.0000 0.40970  0.17130  0.13620  Biso   1.000  N
  C15      1.0000 0.35930  0.12080  0.06910  Biso   1.000  C
  H29      1.0000 0.24340  0.10900  0.05320  Biso   1.000  H
  H30      1.0000 0.60320  0.02440  0.89330  Biso   1.000  H
  N16      1.0000 0.90970  0.67130  0.63620  Biso   1.000  N
  C16      1.0000 0.85930  0.62080  0.56910  Biso   1.000  C
  H31      1.0000 0.74340  0.60900  0.55320  Biso   1.000  H
  H32      1.0000 0.10320  0.52440  0.39330  Biso   1.000  H
  Cd1      1.0000 0.75000  0.25000  0.25000  Biso   1.000  Cd
  Cd2      1.0000 0.25000  0.25000  0.25000  Biso   1.000  Cd
  Cd3      1.0000 0.25000  0.75000  0.75000  Biso   1.000  Cd
  Cd4      1.0000 0.75000  0.75000  0.75000  Biso   1.000  Cd
  Cl1      1.0000 0.00000  0.25000  0.07020  Biso   1.000  Cl
  Cl2      1.0000 0.50000  0.75000  0.57020  Biso   1.000  Cl
  Cl3      1.0000 0.00000  0.75000  0.92980  Biso   1.000  Cl
  Cl4      1.0000 0.50000  0.25000  0.42980  Biso   1.000  Cl
  N17      1.0000 0.50000  0.08890  0.02750  Biso   1.000  N
  C17      1.0000 0.50000  0.02690  0.95050  Biso   1.000  C
  N18      1.0000 0.00000  0.58890  0.52750  Biso   1.000  N
  C18      1.0000 0.00000  0.52690  0.45050  Biso   1.000  C
  N19      1.0000 0.50000  0.41110  0.02750  Biso   1.000  N
  C19      1.0000 0.50000  0.47310  0.95050  Biso   1.000  C
  N20      1.0000 0.00000  0.91110  0.52750  Biso   1.000  N
  C20      1.0000 0.00000  0.97310  0.45050  Biso   1.000  C
  N21      1.0000 0.50000  0.58890  0.97250  Biso   1.000  N
  C21      1.0000 0.50000  0.52690  0.04950  Biso   1.000  C
  N22      1.0000 0.00000  0.08890  0.47250  Biso   1.000  N
  C22      1.0000 0.00000  0.02690  0.54950  Biso   1.000  C
  N23      1.0000 0.50000  0.91110  0.97250  Biso   1.000  N
  C23      1.0000 0.50000  0.97310  0.04950  Biso   1.000  C
  N24      1.0000 0.00000  0.41110  0.47250  Biso   1.000  N
  C24      1.0000 0.00000  0.47310  0.54950  Biso   1.000  C
