data_image0
_cell_length_a       18.912
_cell_length_b       7.5956
_cell_length_c       13.8924
_cell_angle_alpha    90
_cell_angle_beta     90
_cell_angle_gamma    90

_symmetry_space_group_name_H-M    "P 1"
_symmetry_int_tables_number       1

loop_
  _symmetry_equiv_pos_as_xyz
  'x, y, z'

loop_
  _atom_site_label
  _atom_site_occupancy
  _atom_site_fract_x
  _atom_site_fract_y
  _atom_site_fract_z
  _atom_site_thermal_displace_type
  _atom_site_B_iso_or_equiv
  _atom_site_type_symbol
  N1       1.0000 0.57510  0.34130  0.39730  Biso   1.000  N
  N2       1.0000 0.90850  0.34140  0.07480  Biso   1.000  N
  H1       1.0000 0.69630  0.35460  0.17060  Biso   1.000  H
  H2       1.0000 0.78260  0.35440  0.29440  Biso   1.000  H
  C1       1.0000 0.61980  0.38960  0.33190  Biso   1.000  C
  H3       1.0000 0.62970  0.50740  0.31620  Biso   1.000  H
  C2       1.0000 0.86160  0.39170  0.13770  Biso   1.000  C
  H4       1.0000 0.85120  0.50950  0.15270  Biso   1.000  H
  N3       1.0000 0.92490  0.65870  0.89730  Biso   1.000  N
  N4       1.0000 0.59150  0.65860  0.57480  Biso   1.000  N
  H5       1.0000 0.80370  0.64540  0.67060  Biso   1.000  H
  H6       1.0000 0.71740  0.64560  0.79440  Biso   1.000  H
  C3       1.0000 0.88020  0.61040  0.83190  Biso   1.000  C
  H7       1.0000 0.87030  0.49260  0.81620  Biso   1.000  H
  C4       1.0000 0.63840  0.60830  0.63770  Biso   1.000  C
  H8       1.0000 0.64880  0.49050  0.65270  Biso   1.000  H
  N5       1.0000 0.42490  0.84130  0.60270  Biso   1.000  N
  N6       1.0000 0.09150  0.84140  0.92520  Biso   1.000  N
  H9       1.0000 0.30370  0.85460  0.82940  Biso   1.000  H
  H10      1.0000 0.21740  0.85440  0.70560  Biso   1.000  H
  C5       1.0000 0.38020  0.88960  0.66810  Biso   1.000  C
  H11      1.0000 0.37030  0.00740  0.68380  Biso   1.000  H
  C6       1.0000 0.13840  0.89170  0.86230  Biso   1.000  C
  H12      1.0000 0.14880  0.00950  0.84730  Biso   1.000  H
  N7       1.0000 0.07510  0.15870  0.10270  Biso   1.000  N
  N8       1.0000 0.40850  0.15860  0.42520  Biso   1.000  N
  H13      1.0000 0.19630  0.14540  0.32940  Biso   1.000  H
  H14      1.0000 0.28260  0.14560  0.20560  Biso   1.000  H
  C7       1.0000 0.11980  0.11040  0.16810  Biso   1.000  C
  H15      1.0000 0.12970  0.99260  0.18380  Biso   1.000  H
  C8       1.0000 0.36160  0.10830  0.36230  Biso   1.000  C
  H16      1.0000 0.35120  0.99050  0.34730  Biso   1.000  H
  N9       1.0000 0.42490  0.65870  0.60270  Biso   1.000  N
  N10      1.0000 0.09150  0.65860  0.92520  Biso   1.000  N
  H17      1.0000 0.30370  0.64540  0.82940  Biso   1.000  H
  H18      1.0000 0.21740  0.64560  0.70560  Biso   1.000  H
  C9       1.0000 0.38020  0.61040  0.66810  Biso   1.000  C
  H19      1.0000 0.37030  0.49260  0.68380  Biso   1.000  H
  C10      1.0000 0.13840  0.60830  0.86230  Biso   1.000  C
  H20      1.0000 0.14880  0.49050  0.84730  Biso   1.000  H
  N11      1.0000 0.07510  0.34130  0.10270  Biso   1.000  N
  N12      1.0000 0.40850  0.34140  0.42520  Biso   1.000  N
  H21      1.0000 0.19630  0.35460  0.32940  Biso   1.000  H
  H22      1.0000 0.28260  0.35440  0.20560  Biso   1.000  H
  C11      1.0000 0.11980  0.38960  0.16810  Biso   1.000  C
  H23      1.0000 0.12970  0.50740  0.18380  Biso   1.000  H
  C12      1.0000 0.36160  0.39170  0.36230  Biso   1.000  C
  H24      1.0000 0.35120  0.50950  0.34730  Biso   1.000  H
  N13      1.0000 0.57510  0.15870  0.39730  Biso   1.000  N
  N14      1.0000 0.90850  0.15860  0.07480  Biso   1.000  N
  H25      1.0000 0.69630  0.14540  0.17060  Biso   1.000  H
  H26      1.0000 0.78260  0.14560  0.29440  Biso   1.000  H
  C13      1.0000 0.61980  0.11040  0.33190  Biso   1.000  C
  H27      1.0000 0.62970  0.99260  0.31620  Biso   1.000  H
  C14      1.0000 0.86160  0.10830  0.13770  Biso   1.000  C
  H28      1.0000 0.85120  0.99050  0.15270  Biso   1.000  H
  N15      1.0000 0.92490  0.84130  0.89730  Biso   1.000  N
  N16      1.0000 0.59150  0.84140  0.57480  Biso   1.000  N
  H29      1.0000 0.80370  0.85460  0.67060  Biso   1.000  H
  H30      1.0000 0.71740  0.85440  0.79440  Biso   1.000  H
  C15      1.0000 0.88020  0.88960  0.83190  Biso   1.000  C
  H31      1.0000 0.87030  0.00740  0.81620  Biso   1.000  H
  C16      1.0000 0.63840  0.89170  0.63770  Biso   1.000  C
  H32      1.0000 0.64880  0.00950  0.65270  Biso   1.000  H
  Cd1      1.0000 0.50000  0.50000  0.50000  Biso   1.000  Cd
  Cd2      1.0000 0.00000  0.50000  0.00000  Biso   1.000  Cd
  Cd3      1.0000 0.50000  0.00000  0.50000  Biso   1.000  Cd
  Cd4      1.0000 0.00000  0.00000  0.00000  Biso   1.000  Cd
  Cl1      1.0000 0.50925  0.25000  0.62795  Biso   1.000  Cl
  N17      1.0000 0.65030  0.25000  0.28930  Biso   1.000  N
  N18      1.0000 0.83010  0.25000  0.17850  Biso   1.000  N
  C17      1.0000 0.70270  0.25000  0.21100  Biso   1.000  C
  C18      1.0000 0.77650  0.25000  0.25370  Biso   1.000  C
  Cl2      1.0000 0.99075  0.75000  0.12795  Biso   1.000  Cl
  N19      1.0000 0.84970  0.75000  0.78930  Biso   1.000  N
  N20      1.0000 0.66990  0.75000  0.67850  Biso   1.000  N
  C19      1.0000 0.79730  0.75000  0.71100  Biso   1.000  C
  C20      1.0000 0.72350  0.75000  0.75370  Biso   1.000  C
  Cl3      1.0000 0.49075  0.75000  0.37205  Biso   1.000  Cl
  N21      1.0000 0.34970  0.75000  0.71070  Biso   1.000  N
  N22      1.0000 0.16990  0.75000  0.82150  Biso   1.000  N
  C21      1.0000 0.29730  0.75000  0.78900  Biso   1.000  C
  C22      1.0000 0.22350  0.75000  0.74630  Biso   1.000  C
  Cl4      1.0000 0.00925  0.25000  0.87205  Biso   1.000  Cl
  N23      1.0000 0.15030  0.25000  0.21070  Biso   1.000  N
  N24      1.0000 0.33010  0.25000  0.32150  Biso   1.000  N
  C23      1.0000 0.20270  0.25000  0.28900  Biso   1.000  C
  C24      1.0000 0.27650  0.25000  0.24630  Biso   1.000  C
