data_TIDMEA_clean
_audit_creation_date              2014-07-02
_audit_creation_method            'Materials Studio'
_symmetry_space_group_name_H-M    'P1'
_symmetry_Int_Tables_number       1
_symmetry_cell_setting            triclinic
loop_
_symmetry_equiv_pos_as_xyz
  x,y,z
_cell_length_a                    11.0129
_cell_length_b                    13.3554
_cell_length_c                    15.8430
_cell_angle_alpha                 114.9290
_cell_angle_beta                  110.3380
_cell_angle_gamma                 90.0000
loop_
_atom_site_label
_atom_site_type_symbol
_atom_site_fract_x
_atom_site_fract_y
_atom_site_fract_z
_atom_site_U_iso_or_equiv
_atom_site_adp_type
_atom_site_occupancy
Pr1    Pr    0.48530   0.06861   0.44240   0.01267  Uiso   1.00
Pr2    Pr    0.04290   0.93139   0.55760   0.01267  Uiso   1.00
Pr3    Pr    0.54290   0.62621   0.55760   0.01267  Uiso   1.00
Pr4    Pr    0.98530   0.37379   0.44240   0.01267  Uiso   1.00
Pr5    Pr    0.98210   0.00000   0.00000   0.01267  Uiso   1.00
Pr6    Pr    0.48210   0.00000   0.00000   0.01267  Uiso   1.00
P1     P     0.78540   0.01040   0.38900   0.01267  Uiso   1.00
P2     P     0.02580   0.88590   0.17860   0.01267  Uiso   1.00
P3     P     0.39640   0.98960   0.61100   0.01267  Uiso   1.00
P4     P     0.84720   0.11410   0.82140   0.01267  Uiso   1.00
P5     P     0.89640   0.62140   0.61100   0.01267  Uiso   1.00
P6     P     0.34720   0.70730   0.82140   0.01267  Uiso   1.00
P7     P     0.28540   0.37860   0.38900   0.01267  Uiso   1.00
P8     P     0.52580   0.29270   0.17860   0.01267  Uiso   1.00
C1     C     0.91300   0.13450   0.45720   0.01267  Uiso   1.00
C2     C     0.05680   0.15280   0.47640   0.01267  Uiso   1.00
C3     C     0.12760   0.02400   0.25340   0.01267  Uiso   1.00
C4     C     0.22250   0.05940   0.21440   0.01267  Uiso   1.00
C5     C     0.45580   0.86550   0.54280   0.01267  Uiso   1.00
C6     C     0.58040   0.84720   0.52360   0.01267  Uiso   1.00
C7     C     0.87420   0.97600   0.74660   0.01267  Uiso   1.00
C8     C     0.00810   0.94060   0.78560   0.01267  Uiso   1.00
C9     C     0.95580   0.67730   0.54280   0.01267  Uiso   1.00
C10    C     0.08040   0.67640   0.52360   0.01267  Uiso   1.00
C11    C     0.37420   0.77060   0.74660   0.01267  Uiso   1.00
C12    C     0.50810   0.84500   0.78560   0.01267  Uiso   1.00
C13    C     0.41300   0.32270   0.45720   0.01267  Uiso   1.00
C14    C     0.55680   0.32360   0.47640   0.01267  Uiso   1.00
C15    C     0.62760   0.22940   0.25340   0.01267  Uiso   1.00
C16    C     0.72250   0.15500   0.21440   0.01267  Uiso   1.00
O1     O     0.65520   0.05350   0.38160   0.01267  Uiso   1.00
O2     O     0.80950   0.93400   0.44160   0.01267  Uiso   1.00
O3     O     0.79720   0.94410   0.28660   0.01267  Uiso   1.00
O4     O     0.84470   0.22290   0.45800   0.01267  Uiso   1.00
O5     O     0.11960   0.07720   0.49420   0.01267  Uiso   1.00
O6     O     0.10920   0.19840   0.43800   0.01267  Uiso   1.00
O7     O     0.96610   0.86540   0.24520   0.01267  Uiso   1.00
O8     O     0.11750   0.80100   0.15040   0.01267  Uiso   1.00
O9     O     0.91860   0.87980   0.08260   0.01267  Uiso   1.00
O10    O     0.21540   0.02560   0.34460   0.01267  Uiso   1.00
O11    O     0.33910   0.08590   0.28480   0.01267  Uiso   1.00
O12    O     0.21750   0.97780   0.13240   0.01267  Uiso   1.00
O13    O     0.27360   0.94650   0.61840   0.01267  Uiso   1.00
O14    O     0.36790   0.06600   0.55840   0.01267  Uiso   1.00
O15    O     0.51060   0.05590   0.71340   0.01267  Uiso   1.00
O16    O     0.38670   0.77710   0.54200   0.01267  Uiso   1.00
O17    O     0.62540   0.92280   0.50580   0.01267  Uiso   1.00
O18    O     0.67120   0.80160   0.56200   0.01267  Uiso   1.00
O19    O     0.72090   0.13460   0.75480   0.01267  Uiso   1.00
O20    O     0.96710   0.19900   0.84960   0.01267  Uiso   1.00
O21    O     0.83600   0.12020   0.91740   0.01267  Uiso   1.00
O22    O     0.87080   0.97440   0.65540   0.01267  Uiso   1.00
O23    O     0.05430   0.91410   0.71520   0.01267  Uiso   1.00
O24    O     0.08510   0.02220   0.86760   0.01267  Uiso   1.00
O25    O     0.77360   0.67190   0.61840   0.01267  Uiso   1.00
O26    O     0.86790   0.49240   0.55840   0.01267  Uiso   1.00
O27    O     0.01060   0.65750   0.71340   0.01267  Uiso   1.00
O28    O     0.88670   0.76490   0.54200   0.01267  Uiso   1.00
O29    O     0.12540   0.58300   0.50580   0.01267  Uiso   1.00
O30    O     0.17120   0.76040   0.56200   0.01267  Uiso   1.00
O31    O     0.22090   0.62020   0.75480   0.01267  Uiso   1.00
O32    O     0.46710   0.65060   0.84960   0.01267  Uiso   1.00
O33    O     0.33600   0.79720   0.91740   0.01267  Uiso   1.00
O34    O     0.37080   0.68100   0.65540   0.01267  Uiso   1.00
O35    O     0.55430   0.80110   0.71520   0.01267  Uiso   1.00
O36    O     0.58510   0.84540   0.86760   0.01267  Uiso   1.00
O37    O     0.15520   0.32810   0.38160   0.01267  Uiso   1.00
O38    O     0.30950   0.50760   0.44160   0.01267  Uiso   1.00
O39    O     0.29720   0.34250   0.28660   0.01267  Uiso   1.00
O40    O     0.34470   0.23510   0.45800   0.01267  Uiso   1.00
O41    O     0.61960   0.41700   0.49420   0.01267  Uiso   1.00
O42    O     0.60920   0.23960   0.43800   0.01267  Uiso   1.00
O43    O     0.46610   0.37980   0.24520   0.01267  Uiso   1.00
O44    O     0.61750   0.34940   0.15040   0.01267  Uiso   1.00
O45    O     0.41860   0.20280   0.08260   0.01267  Uiso   1.00
O46    O     0.71540   0.31900   0.34460   0.01267  Uiso   1.00
O47    O     0.83910   0.19890   0.28480   0.01267  Uiso   1.00
O48    O     0.71750   0.15460   0.13240   0.01267  Uiso   1.00
