data_image0
_cell_length_a       17.277
_cell_length_b       6.62
_cell_length_c       23.104
_cell_angle_alpha    90
_cell_angle_beta     94.21
_cell_angle_gamma    90

_symmetry_space_group_name_H-M    "P 1"
_symmetry_int_tables_number       1

loop_
  _symmetry_equiv_pos_as_xyz
  'x, y, z'

loop_
  _atom_site_label
  _atom_site_occupancy
  _atom_site_fract_x
  _atom_site_fract_y
  _atom_site_fract_z
  _atom_site_thermal_displace_type
  _atom_site_B_iso_or_equiv
  _atom_site_type_symbol
  Zr1      1.0000 0.35887  0.99997  0.29932  Biso   1.000  Zr
  Zr2      1.0000 0.21853  0.49538  0.42472  Biso   1.000  Zr
  P1       1.0000 0.30704  0.50018  0.29229  Biso   1.000  P
  P2       1.0000 0.26872  0.99796  0.43049  Biso   1.000  P
  P3       1.0000 0.44381  0.07222  0.16533  Biso   1.000  P
  F1       1.0000 0.32875  0.48960  0.45610  Biso   1.000  F
  O1       1.0000 0.36136  0.68410  0.29249  Biso   1.000  O
  O2       1.0000 0.25290  0.49650  0.23671  Biso   1.000  O
  O3       1.0000 0.25790  0.51060  0.34453  Biso   1.000  O
  O4       1.0000 0.35799  0.31050  0.29605  Biso   1.000  O
  O5       1.0000 0.31560  0.00950  0.48985  Biso   1.000  O
  O6       1.0000 0.21793  0.80870  0.42802  Biso   1.000  O
  O7       1.0000 0.32510  0.99090  0.38226  Biso   1.000  O
  O8       1.0000 0.40850  0.00310  0.21997  Biso   1.000  O
  O9       1.0000 0.21598  0.18240  0.42248  Biso   1.000  O
  O10      1.0000 0.39670  0.00620  0.11025  Biso   1.000  O
  O11      1.0000 0.52660  0.99630  0.16372  Biso   1.000  O
  O12      1.0000 0.44360  0.30880  0.16198  Biso   1.000  O
  H1       1.0000 0.46380  0.35260  0.19440  Biso   1.000  H
  Zr3      1.0000 0.85887  0.49997  0.29932  Biso   1.000  Zr
  Zr4      1.0000 0.71853  0.99538  0.42472  Biso   1.000  Zr
  P4       1.0000 0.80704  0.00018  0.29229  Biso   1.000  P
  P5       1.0000 0.76872  0.49796  0.43049  Biso   1.000  P
  P6       1.0000 0.94381  0.57222  0.16533  Biso   1.000  P
  F2       1.0000 0.82875  0.98960  0.45610  Biso   1.000  F
  O13      1.0000 0.86136  0.18410  0.29249  Biso   1.000  O
  O14      1.0000 0.75290  0.99650  0.23671  Biso   1.000  O
  O15      1.0000 0.75790  0.01060  0.34453  Biso   1.000  O
  O16      1.0000 0.85799  0.81050  0.29605  Biso   1.000  O
  O17      1.0000 0.81560  0.50950  0.48985  Biso   1.000  O
  O18      1.0000 0.71793  0.30870  0.42802  Biso   1.000  O
  O19      1.0000 0.82510  0.49090  0.38226  Biso   1.000  O
  O20      1.0000 0.90850  0.50310  0.21997  Biso   1.000  O
  O21      1.0000 0.71598  0.68240  0.42248  Biso   1.000  O
  O22      1.0000 0.89670  0.50620  0.11025  Biso   1.000  O
  O23      1.0000 0.02660  0.49630  0.16372  Biso   1.000  O
  O24      1.0000 0.94360  0.80880  0.16198  Biso   1.000  O
  H2       1.0000 0.96380  0.85260  0.19440  Biso   1.000  H
  Zr5      1.0000 0.64113  0.99997  0.20068  Biso   1.000  Zr
  Zr6      1.0000 0.78147  0.49538  0.07528  Biso   1.000  Zr
  P7       1.0000 0.69296  0.50018  0.20771  Biso   1.000  P
  P8       1.0000 0.73128  0.99796  0.06951  Biso   1.000  P
  P9       1.0000 0.55619  0.07222  0.33467  Biso   1.000  P
  F3       1.0000 0.67125  0.48960  0.04390  Biso   1.000  F
  O25      1.0000 0.63864  0.68410  0.20751  Biso   1.000  O
  O26      1.0000 0.74710  0.49650  0.26329  Biso   1.000  O
  O27      1.0000 0.74210  0.51060  0.15547  Biso   1.000  O
  O28      1.0000 0.64201  0.31050  0.20395  Biso   1.000  O
  O29      1.0000 0.68440  0.00950  0.01015  Biso   1.000  O
  O30      1.0000 0.78207  0.80870  0.07198  Biso   1.000  O
  O31      1.0000 0.67490  0.99090  0.11774  Biso   1.000  O
  O32      1.0000 0.59150  0.00310  0.28003  Biso   1.000  O
  O33      1.0000 0.78402  0.18240  0.07752  Biso   1.000  O
  O34      1.0000 0.60330  0.00620  0.38975  Biso   1.000  O
  O35      1.0000 0.47340  0.99630  0.33628  Biso   1.000  O
  O36      1.0000 0.55640  0.30880  0.33802  Biso   1.000  O
  H3       1.0000 0.53620  0.35260  0.30560  Biso   1.000  H
  Zr7      1.0000 0.14113  0.49997  0.20068  Biso   1.000  Zr
  Zr8      1.0000 0.28147  0.99538  0.07528  Biso   1.000  Zr
  P10      1.0000 0.19296  0.00018  0.20771  Biso   1.000  P
  P11      1.0000 0.23128  0.49796  0.06951  Biso   1.000  P
  P12      1.0000 0.05619  0.57222  0.33467  Biso   1.000  P
  F4       1.0000 0.17125  0.98960  0.04390  Biso   1.000  F
  O37      1.0000 0.13864  0.18410  0.20751  Biso   1.000  O
  O38      1.0000 0.24710  0.99650  0.26329  Biso   1.000  O
  O39      1.0000 0.24210  0.01060  0.15547  Biso   1.000  O
  O40      1.0000 0.14201  0.81050  0.20395  Biso   1.000  O
  O41      1.0000 0.18440  0.50950  0.01015  Biso   1.000  O
  O42      1.0000 0.28207  0.30870  0.07198  Biso   1.000  O
  O43      1.0000 0.17490  0.49090  0.11774  Biso   1.000  O
  O44      1.0000 0.09150  0.50310  0.28003  Biso   1.000  O
  O45      1.0000 0.28402  0.68240  0.07752  Biso   1.000  O
  O46      1.0000 0.10330  0.50620  0.38975  Biso   1.000  O
  O47      1.0000 0.97340  0.49630  0.33628  Biso   1.000  O
  O48      1.0000 0.05640  0.80880  0.33802  Biso   1.000  O
  H4       1.0000 0.03620  0.85260  0.30560  Biso   1.000  H
  Zr9      1.0000 0.64113  0.00003  0.70068  Biso   1.000  Zr
  Zr10     1.0000 0.78147  0.50462  0.57528  Biso   1.000  Zr
  P13      1.0000 0.69296  0.49982  0.70771  Biso   1.000  P
  P14      1.0000 0.73128  0.00204  0.56951  Biso   1.000  P
  P15      1.0000 0.55619  0.92778  0.83467  Biso   1.000  P
  F5       1.0000 0.67125  0.51040  0.54390  Biso   1.000  F
  O49      1.0000 0.63864  0.31590  0.70751  Biso   1.000  O
  O50      1.0000 0.74710  0.50350  0.76329  Biso   1.000  O
  O51      1.0000 0.74210  0.48940  0.65547  Biso   1.000  O
  O52      1.0000 0.64201  0.68950  0.70395  Biso   1.000  O
  O53      1.0000 0.68440  0.99050  0.51015  Biso   1.000  O
  O54      1.0000 0.78207  0.19130  0.57198  Biso   1.000  O
  O55      1.0000 0.67490  0.00910  0.61774  Biso   1.000  O
  O56      1.0000 0.59150  0.99690  0.78003  Biso   1.000  O
  O57      1.0000 0.78402  0.81760  0.57752  Biso   1.000  O
  O58      1.0000 0.60330  0.99380  0.88975  Biso   1.000  O
  O59      1.0000 0.47340  0.00370  0.83628  Biso   1.000  O
  O60      1.0000 0.55640  0.69120  0.83802  Biso   1.000  O
  H5       1.0000 0.53620  0.64740  0.80560  Biso   1.000  H
  Zr11     1.0000 0.14113  0.50003  0.70068  Biso   1.000  Zr
  Zr12     1.0000 0.28147  0.00462  0.57528  Biso   1.000  Zr
  P16      1.0000 0.19296  0.99982  0.70771  Biso   1.000  P
  P17      1.0000 0.23128  0.50204  0.56951  Biso   1.000  P
  P18      1.0000 0.05619  0.42778  0.83467  Biso   1.000  P
  F6       1.0000 0.17125  0.01040  0.54390  Biso   1.000  F
  O61      1.0000 0.13864  0.81590  0.70751  Biso   1.000  O
  O62      1.0000 0.24710  0.00350  0.76329  Biso   1.000  O
  O63      1.0000 0.24210  0.98940  0.65547  Biso   1.000  O
  O64      1.0000 0.14201  0.18950  0.70395  Biso   1.000  O
  O65      1.0000 0.18440  0.49050  0.51015  Biso   1.000  O
  O66      1.0000 0.28207  0.69130  0.57198  Biso   1.000  O
  O67      1.0000 0.17490  0.50910  0.61774  Biso   1.000  O
  O68      1.0000 0.09150  0.49690  0.78003  Biso   1.000  O
  O69      1.0000 0.28402  0.31760  0.57752  Biso   1.000  O
  O70      1.0000 0.10330  0.49380  0.88975  Biso   1.000  O
  O71      1.0000 0.97340  0.50370  0.83628  Biso   1.000  O
  O72      1.0000 0.05640  0.19120  0.83802  Biso   1.000  O
  H6       1.0000 0.03620  0.14740  0.80560  Biso   1.000  H
  Zr13     1.0000 0.35887  0.00003  0.79932  Biso   1.000  Zr
  Zr14     1.0000 0.21853  0.50462  0.92472  Biso   1.000  Zr
  P19      1.0000 0.30704  0.49982  0.79229  Biso   1.000  P
  P20      1.0000 0.26872  0.00204  0.93049  Biso   1.000  P
  P21      1.0000 0.44381  0.92778  0.66533  Biso   1.000  P
  F7       1.0000 0.32875  0.51040  0.95610  Biso   1.000  F
  O73      1.0000 0.36136  0.31590  0.79249  Biso   1.000  O
  O74      1.0000 0.25290  0.50350  0.73671  Biso   1.000  O
  O75      1.0000 0.25790  0.48940  0.84453  Biso   1.000  O
  O76      1.0000 0.35799  0.68950  0.79605  Biso   1.000  O
  O77      1.0000 0.31560  0.99050  0.98985  Biso   1.000  O
  O78      1.0000 0.21793  0.19130  0.92802  Biso   1.000  O
  O79      1.0000 0.32510  0.00910  0.88226  Biso   1.000  O
  O80      1.0000 0.40850  0.99690  0.71997  Biso   1.000  O
  O81      1.0000 0.21598  0.81760  0.92248  Biso   1.000  O
  O82      1.0000 0.39670  0.99380  0.61025  Biso   1.000  O
  O83      1.0000 0.52660  0.00370  0.66372  Biso   1.000  O
  O84      1.0000 0.44360  0.69120  0.66198  Biso   1.000  O
  H7       1.0000 0.46380  0.64740  0.69440  Biso   1.000  H
  Zr15     1.0000 0.85887  0.50003  0.79932  Biso   1.000  Zr
  Zr16     1.0000 0.71853  0.00462  0.92472  Biso   1.000  Zr
  P22      1.0000 0.80704  0.99982  0.79229  Biso   1.000  P
  P23      1.0000 0.76872  0.50204  0.93049  Biso   1.000  P
  P24      1.0000 0.94381  0.42778  0.66533  Biso   1.000  P
  F8       1.0000 0.82875  0.01040  0.95610  Biso   1.000  F
  O85      1.0000 0.86136  0.81590  0.79249  Biso   1.000  O
  O86      1.0000 0.75290  0.00350  0.73671  Biso   1.000  O
  O87      1.0000 0.75790  0.98940  0.84453  Biso   1.000  O
  O88      1.0000 0.85799  0.18950  0.79605  Biso   1.000  O
  O89      1.0000 0.81560  0.49050  0.98985  Biso   1.000  O
  O90      1.0000 0.71793  0.69130  0.92802  Biso   1.000  O
  O91      1.0000 0.82510  0.50910  0.88226  Biso   1.000  O
  O92      1.0000 0.90850  0.49690  0.71997  Biso   1.000  O
  O93      1.0000 0.71598  0.31760  0.92248  Biso   1.000  O
  O94      1.0000 0.89670  0.49380  0.61025  Biso   1.000  O
  O95      1.0000 0.02660  0.50370  0.66372  Biso   1.000  O
  O96      1.0000 0.94360  0.19120  0.66198  Biso   1.000  O
  H8       1.0000 0.96380  0.14740  0.69440  Biso   1.000  H
