data_TIFHEX_charged
_audit_creation_date              2014-07-02
_audit_creation_method            'Materials Studio'
_symmetry_space_group_name_H-M    'P1'
_symmetry_Int_Tables_number       1
_symmetry_cell_setting            triclinic
loop_
_symmetry_equiv_pos_as_xyz
  x,y,z
_cell_length_a                    20.4692
_cell_length_b                    20.4692
_cell_length_c                    20.9090
_cell_angle_alpha                 108.1270
_cell_angle_beta                  108.1270
_cell_angle_gamma                 111.3690
loop_
_atom_site_label
_atom_site_type_symbol
_atom_site_fract_x
_atom_site_fract_y
_atom_site_fract_z
_atom_site_U_iso_or_equiv
_atom_site_adp_type
_atom_site_occupancy
Sm1    Sm    0.61562   0.85032   0.71978   0.01267  Uiso   1.00
Sm2    Sm    0.86946   0.60416   0.21978   0.01267  Uiso   1.00
H1     H     0.77180   0.89720   0.91220   0.01267  Uiso   1.00
H2     H     0.83980   0.85570   0.98770   0.01267  Uiso   1.00
H3     H     0.63550   0.66060   0.90170   0.01267  Uiso   1.00
H4     H     0.51120   0.63280   0.80860   0.01267  Uiso   1.00
H5     H     0.52470   0.66800   0.75410   0.01267  Uiso   1.00
H6     H     0.51080   0.71200   0.82020   0.01267  Uiso   1.00
H7     H     0.69640   0.61060   0.94900   0.01267  Uiso   1.00
H8     H     0.75970   0.57200   0.02710   0.01267  Uiso   1.00
H9     H     0.88940   0.82930   0.07590   0.01267  Uiso   1.00
H10    H     0.00400   0.77900   0.20080   0.01267  Uiso   1.00
H11    H     0.98990   0.85130   0.21400   0.01267  Uiso   1.00
H12    H     0.02410   0.82870   0.15860   0.01267  Uiso   1.00
H13    H     0.58390   0.72650   0.53380   0.01267  Uiso   1.00
H14    H     0.62890   0.65850   0.45740   0.01267  Uiso   1.00
H15    H     0.81680   0.87160   0.54380   0.01267  Uiso   1.00
H16    H     0.75410   0.97090   0.66480   0.01267  Uiso   1.00
H17    H     0.78740   0.99060   0.61080   0.01267  Uiso   1.00
H18    H     0.83690   0.97970   0.67660   0.01267  Uiso   1.00
H19    H     0.64990   0.61930   0.36860   0.01267  Uiso   1.00
H20    H     0.90780   0.74150   0.41870   0.01267  Uiso   1.00
H21    H     0.87350   0.80970   0.49200   0.01267  Uiso   1.00
H22    H     0.69760   0.50820   0.24680   0.01267  Uiso   1.00
H23    H     0.62790   0.52610   0.23720   0.01267  Uiso   1.00
H24    H     0.65100   0.49180   0.29240   0.01267  Uiso   1.00
H25    H     0.01500   0.64040   0.41220   0.01267  Uiso   1.00
H26    H     0.13200   0.64790   0.48770   0.01267  Uiso   1.00
H27    H     0.24110   0.76620   0.40170   0.01267  Uiso   1.00
H28    H     0.17580   0.79740   0.30860   0.01267  Uiso   1.00
H29    H     0.08610   0.72940   0.25410   0.01267  Uiso   1.00
H30    H     0.10820   0.80940   0.32020   0.01267  Uiso   1.00
H31    H     0.33840   0.75260   0.44900   0.01267  Uiso   1.00
H32    H     0.45510   0.76740   0.52710   0.01267  Uiso   1.00
H33    H     0.24660   0.68650   0.57590   0.01267  Uiso   1.00
H34    H     0.42180   0.69680   0.70080   0.01267  Uiso   1.00
H35    H     0.36270   0.72410   0.71400   0.01267  Uiso   1.00
H36    H     0.32990   0.63450   0.65860   0.01267  Uiso   1.00
H37    H     0.80730   0.44990   0.03380   0.01267  Uiso   1.00
H38    H     0.79890   0.32850   0.95740   0.01267  Uiso   1.00
H39    H     0.67220   0.22700   0.04380   0.01267  Uiso   1.00
H40    H     0.69390   0.41070   0.16480   0.01267  Uiso   1.00
H41    H     0.62020   0.32340   0.11080   0.01267  Uiso   1.00
H42    H     0.69690   0.33970   0.17660   0.01267  Uiso   1.00
H43    H     0.74930   0.21870   0.86860   0.01267  Uiso   1.00
H44    H     0.67720   0.01090   0.91870   0.01267  Uiso   1.00
H45    H     0.68230   0.11850   0.99200   0.01267  Uiso   1.00
H46    H     0.73860   0.04920   0.74680   0.01267  Uiso   1.00
H47    H     0.71110   0.10930   0.73720   0.01267  Uiso   1.00
H48    H     0.80060   0.14140   0.79240   0.01267  Uiso   1.00
C1     C     0.74440   0.84810   0.90970   0.01267  Uiso   1.00
C2     C     0.78500   0.82280   0.95540   0.01267  Uiso   1.00
C3     C     0.74650   0.75230   0.95340   0.01267  Uiso   1.00
C4     C     0.66480   0.70910   0.90410   0.01267  Uiso   1.00
C5     C     0.62530   0.73020   0.86070   0.01267  Uiso   1.00
C6     C     0.53440   0.68110   0.80570   0.01267  Uiso   1.00
C7     C     0.78540   0.72490   0.00130   0.01267  Uiso   1.00
C8     C     0.74810   0.64740   0.98910   0.01267  Uiso   1.00
C9     C     0.78670   0.62400   0.03550   0.01267  Uiso   1.00
C10    C     0.90250   0.75130   0.10960   0.01267  Uiso   1.00
C11    C     0.86310   0.77600   0.06410   0.01267  Uiso   1.00
C12    C     0.98820   0.80790   0.17710   0.01267  Uiso   1.00
C13    C     0.63210   0.75620   0.53590   0.01267  Uiso   1.00
C14    C     0.65790   0.71380   0.48770   0.01267  Uiso   1.00
C15    C     0.72690   0.76050   0.49020   0.01267  Uiso   1.00
C16    C     0.76860   0.83990   0.54050   0.01267  Uiso   1.00
C17    C     0.74390   0.87600   0.58650   0.01267  Uiso   1.00
C18    C     0.78400   0.96170   0.63930   0.01267  Uiso   1.00
C19    C     0.75170   0.71930   0.44000   0.01267  Uiso   1.00
C20    C     0.70310   0.64530   0.38000   0.01267  Uiso   1.00
C21    C     0.72640   0.60470   0.33350   0.01267  Uiso   1.00
C22    C     0.85500   0.71740   0.40920   0.01267  Uiso   1.00
C23    C     0.83580   0.75760   0.45300   0.01267  Uiso   1.00
C24    C     0.67130   0.52660   0.27270   0.01267  Uiso   1.00
C25    C     0.06160   0.66530   0.40970   0.01267  Uiso   1.00
C26    C     0.13260   0.67040   0.45540   0.01267  Uiso   1.00
C27    C     0.20110   0.70690   0.45340   0.01267  Uiso   1.00
C28    C     0.19500   0.73930   0.40410   0.01267  Uiso   1.00
C29    C     0.13050   0.73540   0.36070   0.01267  Uiso   1.00
C30    C     0.12460   0.77130   0.30570   0.01267  Uiso   1.00
C31    C     0.27640   0.71590   0.50130   0.01267  Uiso   1.00
C32    C     0.34170   0.74100   0.48910   0.01267  Uiso   1.00
C33    C     0.41150   0.74880   0.53550   0.01267  Uiso   1.00
C34    C     0.35830   0.70710   0.60960   0.01267  Uiso   1.00
C35    C     0.28810   0.70100   0.56410   0.01267  Uiso   1.00
C36    C     0.36920   0.68890   0.67710   0.01267  Uiso   1.00
C37    C     0.77970   0.40380   0.03590   0.01267  Uiso   1.00
C38    C     0.77390   0.32980   0.98770   0.01267  Uiso   1.00
C39    C     0.72970   0.26330   0.99020   0.01267  Uiso   1.00
C40    C     0.70060   0.27190   0.04050   0.01267  Uiso   1.00
C41    C     0.71050   0.34260   0.08650   0.01267  Uiso   1.00
C42    C     0.67760   0.35530   0.13930   0.01267  Uiso   1.00
C43    C     0.72070   0.18830   0.94000   0.01267  Uiso   1.00
C44    C     0.73470   0.17690   0.88000   0.01267  Uiso   1.00
C45    C     0.72880   0.10710   0.83350   0.01267  Uiso   1.00
C46    C     0.69180   0.05420   0.90920   0.01267  Uiso   1.00
C47    C     0.69540   0.11720   0.95300   0.01267  Uiso   1.00
C48    C     0.74610   0.10140   0.77270   0.01267  Uiso   1.00
N1     N     0.66770   0.80130   0.86420   0.01267  Uiso   1.00
N2     N     0.86280   0.67440   0.09320   0.01267  Uiso   1.00
N3     N     0.67140   0.82930   0.57890   0.01267  Uiso   1.00
N4     N     0.80410   0.64360   0.35130   0.01267  Uiso   1.00
N5     N     0.06290   0.69650   0.36420   0.01267  Uiso   1.00
N6     N     0.41880   0.73040   0.59320   0.01267  Uiso   1.00
N7     N     0.74960   0.40750   0.07890   0.01267  Uiso   1.00
N8     N     0.70770   0.04720   0.85130   0.01267  Uiso   1.00
O1     O     0.63050   0.82790   0.82380   0.01267  Uiso   1.00
O2     O     0.89680   0.64860   0.13440   0.01267  Uiso   1.00
O3     O     0.64060   0.86120   0.61940   0.01267  Uiso   1.00
O4     O     0.82640   0.60170   0.30970   0.01267  Uiso   1.00
O5     O     0.61890   0.72780   0.67490   0.01267  Uiso   1.00
O6     O     0.75470   0.87750   0.76380   0.01267  Uiso   1.00
O7     O     0.53480   0.88420   0.77820   0.01267  Uiso   1.00
O8     O     0.55250   0.91270   0.66060   0.01267  Uiso   1.00
O9     O     0.99590   0.69330   0.32380   0.01267  Uiso   1.00
O10    O     0.48580   0.73760   0.63440   0.01267  Uiso   1.00
O11    O     0.75820   0.47880   0.11940   0.01267  Uiso   1.00
O12    O     0.70800   0.98330   0.80970   0.01267  Uiso   1.00
O13    O     0.94710   0.55600   0.17490   0.01267  Uiso   1.00
O14    O     0.88630   0.50910   0.26380   0.01267  Uiso   1.00
O15    O     0.89400   0.74340   0.27820   0.01267  Uiso   1.00
O16    O     0.74790   0.60810   0.16060   0.01267  Uiso   1.00
Sm3    Sm    0.13054   0.39584   0.78022   0.01267  Uiso   1.00
Sm4    Sm    0.38438   0.14968   0.28022   0.01267  Uiso   1.00
H49    H     0.98500   0.35960   0.58780   0.01267  Uiso   1.00
H50    H     0.86800   0.35210   0.51230   0.01267  Uiso   1.00
H51    H     0.75890   0.23380   0.59830   0.01267  Uiso   1.00
H52    H     0.82420   0.20260   0.69140   0.01267  Uiso   1.00
H53    H     0.91390   0.27060   0.74590   0.01267  Uiso   1.00
H54    H     0.89180   0.19060   0.67980   0.01267  Uiso   1.00
H55    H     0.66160   0.24740   0.55100   0.01267  Uiso   1.00
H56    H     0.54490   0.23260   0.47290   0.01267  Uiso   1.00
H57    H     0.75340   0.31350   0.42410   0.01267  Uiso   1.00
H58    H     0.57820   0.30320   0.29920   0.01267  Uiso   1.00
H59    H     0.63730   0.27590   0.28600   0.01267  Uiso   1.00
H60    H     0.67010   0.36550   0.34140   0.01267  Uiso   1.00
H61    H     0.19270   0.55010   0.96620   0.01267  Uiso   1.00
H62    H     0.20110   0.67150   0.04260   0.01267  Uiso   1.00
H63    H     0.32780   0.77300   0.95620   0.01267  Uiso   1.00
H64    H     0.30610   0.58930   0.83520   0.01267  Uiso   1.00
H65    H     0.37980   0.67660   0.88920   0.01267  Uiso   1.00
H66    H     0.30310   0.66030   0.82340   0.01267  Uiso   1.00
H67    H     0.25070   0.78130   0.13140   0.01267  Uiso   1.00
H68    H     0.32280   0.98910   0.08130   0.01267  Uiso   1.00
H69    H     0.31770   0.88150   0.00800   0.01267  Uiso   1.00
H70    H     0.26140   0.95080   0.25320   0.01267  Uiso   1.00
H71    H     0.28890   0.89070   0.26280   0.01267  Uiso   1.00
H72    H     0.19940   0.85860   0.20760   0.01267  Uiso   1.00
H73    H     0.22820   0.10280   0.08780   0.01267  Uiso   1.00
H74    H     0.16020   0.14430   0.01230   0.01267  Uiso   1.00
H75    H     0.36450   0.33940   0.09830   0.01267  Uiso   1.00
H76    H     0.48880   0.36720   0.19140   0.01267  Uiso   1.00
H77    H     0.47530   0.33200   0.24590   0.01267  Uiso   1.00
H78    H     0.48920   0.28800   0.17980   0.01267  Uiso   1.00
H79    H     0.30360   0.38940   0.05100   0.01267  Uiso   1.00
H80    H     0.24030   0.42800   0.97290   0.01267  Uiso   1.00
H81    H     0.11060   0.17070   0.92410   0.01267  Uiso   1.00
H82    H     0.99600   0.22100   0.79920   0.01267  Uiso   1.00
H83    H     0.01010   0.14870   0.78600   0.01267  Uiso   1.00
H84    H     0.97590   0.17130   0.84140   0.01267  Uiso   1.00
H85    H     0.41610   0.27350   0.46620   0.01267  Uiso   1.00
H86    H     0.37110   0.34150   0.54260   0.01267  Uiso   1.00
H87    H     0.18320   0.12840   0.45620   0.01267  Uiso   1.00
H88    H     0.24590   0.02910   0.33520   0.01267  Uiso   1.00
H89    H     0.21260   0.00940   0.38920   0.01267  Uiso   1.00
H90    H     0.16310   0.02030   0.32340   0.01267  Uiso   1.00
H91    H     0.35010   0.38070   0.63140   0.01267  Uiso   1.00
H92    H     0.09220   0.25850   0.58130   0.01267  Uiso   1.00
H93    H     0.12650   0.19030   0.50800   0.01267  Uiso   1.00
H94    H     0.30240   0.49180   0.75320   0.01267  Uiso   1.00
H95    H     0.37210   0.47390   0.76280   0.01267  Uiso   1.00
H96    H     0.34900   0.50820   0.70760   0.01267  Uiso   1.00
C49    C     0.93840   0.33470   0.59030   0.01267  Uiso   1.00
C50    C     0.86740   0.32960   0.54460   0.01267  Uiso   1.00
C51    C     0.79890   0.29310   0.54660   0.01267  Uiso   1.00
C52    C     0.80500   0.26070   0.59590   0.01267  Uiso   1.00
C53    C     0.86950   0.26460   0.63930   0.01267  Uiso   1.00
C54    C     0.87540   0.22870   0.69430   0.01267  Uiso   1.00
C55    C     0.72360   0.28410   0.49870   0.01267  Uiso   1.00
C56    C     0.65830   0.25900   0.51090   0.01267  Uiso   1.00
C57    C     0.58850   0.25120   0.46450   0.01267  Uiso   1.00
C58    C     0.64170   0.29290   0.39040   0.01267  Uiso   1.00
C59    C     0.71190   0.29900   0.43590   0.01267  Uiso   1.00
C60    C     0.63080   0.31110   0.32290   0.01267  Uiso   1.00
C61    C     0.22030   0.59620   0.96410   0.01267  Uiso   1.00
C62    C     0.22610   0.67020   0.01230   0.01267  Uiso   1.00
C63    C     0.27030   0.73670   0.00980   0.01267  Uiso   1.00
C64    C     0.29940   0.72810   0.95950   0.01267  Uiso   1.00
C65    C     0.28950   0.65740   0.91350   0.01267  Uiso   1.00
C66    C     0.32240   0.64470   0.86070   0.01267  Uiso   1.00
C67    C     0.27930   0.81170   0.06000   0.01267  Uiso   1.00
C68    C     0.26530   0.82310   0.12000   0.01267  Uiso   1.00
C69    C     0.27120   0.89290   0.16650   0.01267  Uiso   1.00
C70    C     0.30820   0.94580   0.09080   0.01267  Uiso   1.00
C71    C     0.30460   0.88280   0.04700   0.01267  Uiso   1.00
C72    C     0.25390   0.89860   0.22730   0.01267  Uiso   1.00
C73    C     0.25560   0.15190   0.09030   0.01267  Uiso   1.00
C74    C     0.21500   0.17720   0.04460   0.01267  Uiso   1.00
C75    C     0.25350   0.24770   0.04660   0.01267  Uiso   1.00
C76    C     0.33520   0.29090   0.09590   0.01267  Uiso   1.00
C77    C     0.37470   0.26980   0.13930   0.01267  Uiso   1.00
C78    C     0.46560   0.31890   0.19430   0.01267  Uiso   1.00
C79    C     0.21460   0.27510   0.99870   0.01267  Uiso   1.00
C80    C     0.25190   0.35260   0.01090   0.01267  Uiso   1.00
C81    C     0.21330   0.37600   0.96450   0.01267  Uiso   1.00
C82    C     0.09750   0.24870   0.89040   0.01267  Uiso   1.00
C83    C     0.13690   0.22400   0.93590   0.01267  Uiso   1.00
C84    C     0.01180   0.19210   0.82290   0.01267  Uiso   1.00
C85    C     0.36790   0.24380   0.46410   0.01267  Uiso   1.00
C86    C     0.34210   0.28620   0.51230   0.01267  Uiso   1.00
C87    C     0.27310   0.23950   0.50980   0.01267  Uiso   1.00
C88    C     0.23140   0.16010   0.45950   0.01267  Uiso   1.00
C89    C     0.25610   0.12400   0.41350   0.01267  Uiso   1.00
C90    C     0.21600   0.03830   0.36070   0.01267  Uiso   1.00
C91    C     0.24830   0.28070   0.56000   0.01267  Uiso   1.00
C92    C     0.29690   0.35470   0.62000   0.01267  Uiso   1.00
C93    C     0.27360   0.39530   0.66650   0.01267  Uiso   1.00
C94    C     0.14500   0.28260   0.59080   0.01267  Uiso   1.00
C95    C     0.16420   0.24240   0.54700   0.01267  Uiso   1.00
C96    C     0.32870   0.47340   0.72730   0.01267  Uiso   1.00
N9     N     0.93710   0.30350   0.63580   0.01267  Uiso   1.00
N10    N     0.58120   0.26960   0.40680   0.01267  Uiso   1.00
N11    N     0.25040   0.59250   0.92110   0.01267  Uiso   1.00
N12    N     0.29230   0.95280   0.14870   0.01267  Uiso   1.00
N13    N     0.33230   0.19870   0.13580   0.01267  Uiso   1.00
N14    N     0.13720   0.32560   0.90680   0.01267  Uiso   1.00
N15    N     0.32860   0.17070   0.42110   0.01267  Uiso   1.00
N16    N     0.19590   0.35640   0.64870   0.01267  Uiso   1.00
O17    O     0.00410   0.30670   0.67620   0.01267  Uiso   1.00
O18    O     0.51420   0.26240   0.36560   0.01267  Uiso   1.00
O19    O     0.24180   0.52120   0.88060   0.01267  Uiso   1.00
O20    O     0.29200   0.01670   0.19030   0.01267  Uiso   1.00
O21    O     0.05290   0.44400   0.82510   0.01267  Uiso   1.00
O22    O     0.11370   0.49090   0.73620   0.01267  Uiso   1.00
O23    O     0.10600   0.25660   0.72180   0.01267  Uiso   1.00
O24    O     0.25210   0.39190   0.83940   0.01267  Uiso   1.00
O25    O     0.36950   0.17210   0.17620   0.01267  Uiso   1.00
O26    O     0.10320   0.35140   0.86560   0.01267  Uiso   1.00
O27    O     0.35940   0.13880   0.38060   0.01267  Uiso   1.00
O28    O     0.17360   0.39830   0.69030   0.01267  Uiso   1.00
O29    O     0.38110   0.27220   0.32510   0.01267  Uiso   1.00
O30    O     0.24530   0.12250   0.23620   0.01267  Uiso   1.00
O31    O     0.46520   0.11580   0.22180   0.01267  Uiso   1.00
O32    O     0.44750   0.08730   0.33940   0.01267  Uiso   1.00
Cl1    Cl    0.71680   0.29510   0.74470   0.01267  Uiso   1.00
O33    O     0.68120   0.21640   0.68900   0.01267  Uiso   1.00
O34    O     0.70080   0.29240   0.79900   0.01267  Uiso   1.00
O35    O     0.79980   0.34000   0.76880   0.01267  Uiso   1.00
O36    O     0.68090   0.32660   0.71050   0.01267  Uiso   1.00
Cl2    Cl    0.92330   0.07330   0.55240   0.01267  Uiso   1.00
O37    O     0.90680   0.99520   0.51900   0.01267  Uiso   1.00
O38    O     0.85060   0.06620   0.53300   0.01267  Uiso   1.00
O39    O     0.96600   0.13100   0.54300   0.01267  Uiso   1.00
O40    O     0.95840   0.11320   0.63660   0.01267  Uiso   1.00
Cl3    Cl    0.92430   0.07490   0.92640   0.01267  Uiso   1.00
O41    O     0.88430   0.02300   0.94810   0.01267  Uiso   1.00
O42    O     0.89140   0.03230   0.84610   0.01267  Uiso   1.00
O43    O     0.91900   0.14220   0.94240   0.01267  Uiso   1.00
O44    O     0.00500   0.10520   0.96500   0.01267  Uiso   1.00
Cl4    Cl    0.55040   0.47210   0.75530   0.01267  Uiso   1.00
O45    O     0.52740   0.49220   0.81100   0.01267  Uiso   1.00
O46    O     0.49340   0.40180   0.70100   0.01267  Uiso   1.00
O47    O     0.57120   0.53100   0.73120   0.01267  Uiso   1.00
O48    O     0.61610   0.47040   0.78950   0.01267  Uiso   1.00
Cl5    Cl    0.52090   0.87090   0.94760   0.01267  Uiso   1.00
O49    O     0.47620   0.88780   0.98100   0.01267  Uiso   1.00
O50    O     0.53320   0.81760   0.96700   0.01267  Uiso   1.00
O51    O     0.58800   0.92300   0.95700   0.01267  Uiso   1.00
O52    O     0.47660   0.82180   0.86340   0.01267  Uiso   1.00
Cl6    Cl    0.14850   0.49790   0.57360   0.01267  Uiso   1.00
O53    O     0.07490   0.43620   0.55190   0.01267  Uiso   1.00
O54    O     0.18620   0.54530   0.65390   0.01267  Uiso   1.00
O55    O     0.19980   0.47660   0.55760   0.01267  Uiso   1.00
O56    O     0.14020   0.54000   0.53500   0.01267  Uiso   1.00
Cl7    Cl    0.28320   0.70490   0.25530   0.01267  Uiso   1.00
O57    O     0.31880   0.78360   0.31100   0.01267  Uiso   1.00
O58    O     0.29920   0.70760   0.20100   0.01267  Uiso   1.00
O59    O     0.20020   0.66000   0.23120   0.01267  Uiso   1.00
O60    O     0.31910   0.67340   0.28950   0.01267  Uiso   1.00
Cl8    Cl    0.07670   0.92670   0.44760   0.01267  Uiso   1.00
O61    O     0.09320   0.00480   0.48100   0.01267  Uiso   1.00
O62    O     0.14940   0.93380   0.46700   0.01267  Uiso   1.00
O63    O     0.03400   0.86900   0.45700   0.01267  Uiso   1.00
O64    O     0.04160   0.88680   0.36340   0.01267  Uiso   1.00
Cl9    Cl    0.07570   0.92510   0.07360   0.01267  Uiso   1.00
O65    O     0.11570   0.97700   0.05190   0.01267  Uiso   1.00
O66    O     0.10860   0.96770   0.15390   0.01267  Uiso   1.00
O67    O     0.08100   0.85780   0.05760   0.01267  Uiso   1.00
O68    O     0.99500   0.89480   0.03500   0.01267  Uiso   1.00
Cl10   Cl    0.44960   0.52790   0.24470   0.01267  Uiso   1.00
O69    O     0.47260   0.50780   0.18900   0.01267  Uiso   1.00
O70    O     0.50660   0.59820   0.29900   0.01267  Uiso   1.00
O71    O     0.42880   0.46900   0.26880   0.01267  Uiso   1.00
O72    O     0.38390   0.52960   0.21050   0.01267  Uiso   1.00
Cl11   Cl    0.47910   0.12910   0.05240   0.01267  Uiso   1.00
O73    O     0.52380   0.11220   0.01900   0.01267  Uiso   1.00
O74    O     0.46680   0.18240   0.03300   0.01267  Uiso   1.00
O75    O     0.41200   0.07700   0.04300   0.01267  Uiso   1.00
O76    O     0.52340   0.17820   0.13660   0.01267  Uiso   1.00
Cl12   Cl    0.85150   0.50210   0.42640   0.01267  Uiso   1.00
O77    O     0.92510   0.56380   0.44810   0.01267  Uiso   1.00
O78    O     0.81380   0.45470   0.34610   0.01267  Uiso   1.00
O79    O     0.80020   0.52340   0.44240   0.01267  Uiso   1.00
O80    O     0.85980   0.46000   0.46500   0.01267  Uiso   1.00
