data_TIFHAT_charged
_audit_creation_date              2014-07-02
_audit_creation_method            'Materials Studio'
_symmetry_space_group_name_H-M    'P1'
_symmetry_Int_Tables_number       1
_symmetry_cell_setting            triclinic
loop_
_symmetry_equiv_pos_as_xyz
  x,y,z
_cell_length_a                    20.5381
_cell_length_b                    20.5381
_cell_length_c                    21.0268
_cell_angle_alpha                 71.8834
_cell_angle_beta                  71.8772
_cell_angle_gamma                 111.2960
loop_
_atom_site_label
_atom_site_type_symbol
_atom_site_fract_x
_atom_site_fract_y
_atom_site_fract_z
_atom_site_U_iso_or_equiv
_atom_site_adp_type
_atom_site_occupancy
Nd1    Nd    0.11501   0.35000   0.78033   0.01267  Uiso   1.00
Nd2    Nd    0.36967   0.10466   0.28033   0.01267  Uiso   1.00
H1     H     0.95180   0.26240   0.97580   0.01267  Uiso   1.00
H2     H     0.83780   0.24890   0.05190   0.01267  Uiso   1.00
H3     H     0.74430   0.18540   0.92490   0.01267  Uiso   1.00
H4     H     0.91310   0.23490   0.77880   0.01267  Uiso   1.00
H5     H     0.82080   0.17770   0.81750   0.01267  Uiso   1.00
H6     H     0.87460   0.14430   0.83450   0.01267  Uiso   1.00
H7     H     0.62980   0.14340   0.01440   0.01267  Uiso   1.00
H8     H     0.51660   0.13610   0.08770   0.01267  Uiso   1.00
H9     H     0.74470   0.26650   0.09600   0.01267  Uiso   1.00
H10    H     0.60620   0.30890   0.17730   0.01267  Uiso   1.00
H11    H     0.67880   0.30400   0.18280   0.01267  Uiso   1.00
H12    H     0.59190   0.23290   0.24160   0.01267  Uiso   1.00
H13    H     0.17960   0.51150   0.57910   0.01267  Uiso   1.00
H14    H     0.18750   0.62470   0.50460   0.01267  Uiso   1.00
H15    H     0.24750   0.71980   0.63190   0.01267  Uiso   1.00
H16    H     0.20540   0.54830   0.77410   0.01267  Uiso   1.00
H17    H     0.24990   0.64070   0.74240   0.01267  Uiso   1.00
H18    H     0.29670   0.60010   0.71700   0.01267  Uiso   1.00
H19    H     0.29920   0.83010   0.54190   0.01267  Uiso   1.00
H20    H     0.31370   0.94970   0.46520   0.01267  Uiso   1.00
H21    H     0.17050   0.72650   0.45880   0.01267  Uiso   1.00
H22    H     0.15500   0.89030   0.36590   0.01267  Uiso   1.00
H23    H     0.12920   0.80360   0.37860   0.01267  Uiso   1.00
H24    H     0.21280   0.87490   0.31190   0.01267  Uiso   1.00
H25    H     0.26180   0.07240   0.47580   0.01267  Uiso   1.00
H26    H     0.19920   0.11030   0.55190   0.01267  Uiso   1.00
H27    H     0.38970   0.33080   0.42490   0.01267  Uiso   1.00
H28    H     0.48630   0.30810   0.27880   0.01267  Uiso   1.00
H29    H     0.50480   0.36170   0.31750   0.01267  Uiso   1.00
H30    H     0.52120   0.29090   0.33450   0.01267  Uiso   1.00
H31    H     0.34220   0.35580   0.51440   0.01267  Uiso   1.00
H32    H     0.27620   0.39570   0.58770   0.01267  Uiso   1.00
H33    H     0.13750   0.15930   0.59600   0.01267  Uiso   1.00
H34    H     0.01380   0.21650   0.67730   0.01267  Uiso   1.00
H35    H     0.01320   0.13840   0.68280   0.01267  Uiso   1.00
H36    H     0.02550   0.16650   0.74160   0.01267  Uiso   1.00
H37    H     0.40940   0.24130   0.07910   0.01267  Uiso   1.00
H38    H     0.37070   0.30790   0.00460   0.01267  Uiso   1.00
H39    H     0.14830   0.12060   0.13190   0.01267  Uiso   1.00
H40    H     0.17760   0.02050   0.27410   0.01267  Uiso   1.00
H41    H     0.11690   0.00770   0.24240   0.01267  Uiso   1.00
H42    H     0.18290   0.98630   0.21700   0.01267  Uiso   1.00
H43    H     0.12800   0.15890   0.04190   0.01267  Uiso   1.00
H44    H     0.08510   0.22110   0.96520   0.01267  Uiso   1.00
H45    H     0.31470   0.37070   0.95880   0.01267  Uiso   1.00
H46    H     0.24380   0.47910   0.86590   0.01267  Uiso   1.00
H47    H     0.31780   0.49220   0.87860   0.01267  Uiso   1.00
H48    H     0.31320   0.47530   0.81190   0.01267  Uiso   1.00
C1     C     0.90890   0.24570   0.96640   0.01267  Uiso   1.00
C2     C     0.84150   0.23840   0.01130   0.01267  Uiso   1.00
C3     C     0.77580   0.21490   0.99750   0.01267  Uiso   1.00
C4     C     0.78610   0.20010   0.93600   0.01267  Uiso   1.00
C5     C     0.85590   0.20640   0.89030   0.01267  Uiso   1.00
C6     C     0.86720   0.18930   0.82430   0.01267  Uiso   1.00
C7     C     0.70060   0.20740   0.04560   0.01267  Uiso   1.00
C8     C     0.63070   0.16750   0.04520   0.01267  Uiso   1.00
C9     C     0.56330   0.16300   0.08890   0.01267  Uiso   1.00
C10    C     0.63070   0.23710   0.13780   0.01267  Uiso   1.00
C11    C     0.69850   0.24070   0.09360   0.01267  Uiso   1.00
C12    C     0.62650   0.27410   0.18960   0.01267  Uiso   1.00
C13    C     0.19390   0.55420   0.58890   0.01267  Uiso   1.00
C14    C     0.19880   0.62170   0.54470   0.01267  Uiso   1.00
C15    C     0.22090   0.68850   0.55860   0.01267  Uiso   1.00
C16    C     0.23450   0.67840   0.62010   0.01267  Uiso   1.00
C17    C     0.22990   0.60900   0.66570   0.01267  Uiso   1.00
C18    C     0.24700   0.59870   0.73050   0.01267  Uiso   1.00
C19    C     0.23140   0.76420   0.50940   0.01267  Uiso   1.00
C20    C     0.27530   0.83170   0.51100   0.01267  Uiso   1.00
C21    C     0.28320   0.90350   0.46490   0.01267  Uiso   1.00
C22    C     0.20870   0.84260   0.41530   0.01267  Uiso   1.00
C23    C     0.19970   0.77170   0.46100   0.01267  Uiso   1.00
C24    C     0.17320   0.85380   0.36320   0.01267  Uiso   1.00
C25    C     0.28790   0.12470   0.46640   0.01267  Uiso   1.00
C26    C     0.25030   0.14720   0.51130   0.01267  Uiso   1.00
C27    C     0.28760   0.22670   0.49750   0.01267  Uiso   1.00
C28    C     0.36390   0.27790   0.43600   0.01267  Uiso   1.00
C29    C     0.40330   0.25380   0.39030   0.01267  Uiso   1.00
C30    C     0.48640   0.30850   0.32430   0.01267  Uiso   1.00
C31    C     0.24700   0.25380   0.54560   0.01267  Uiso   1.00
C32    C     0.28730   0.32410   0.54520   0.01267  Uiso   1.00
C33    C     0.24810   0.34780   0.58890   0.01267  Uiso   1.00
C34    C     0.12510   0.23150   0.63780   0.01267  Uiso   1.00
C35    C     0.16570   0.20790   0.59360   0.01267  Uiso   1.00
C36    C     0.03630   0.18390   0.68960   0.01267  Uiso   1.00
C37    C     0.35690   0.21720   0.08890   0.01267  Uiso   1.00
C38    C     0.33360   0.25650   0.04470   0.01267  Uiso   1.00
C39    C     0.25290   0.22050   0.05860   0.01267  Uiso   1.00
C40    C     0.20150   0.14540   0.12010   0.01267  Uiso   1.00
C41    C     0.22530   0.10440   0.16570   0.01267  Uiso   1.00
C42    C     0.17080   0.02250   0.23050   0.01267  Uiso   1.00
C43    C     0.22640   0.25920   0.00940   0.01267  Uiso   1.00
C44    C     0.15730   0.21370   0.01100   0.01267  Uiso   1.00
C45    C     0.13160   0.25190   0.96490   0.01267  Uiso   1.00
C46    C     0.24210   0.37600   0.91530   0.01267  Uiso   1.00
C47    C     0.26730   0.33930   0.96100   0.01267  Uiso   1.00
C48    C     0.28300   0.46360   0.86320   0.01267  Uiso   1.00
N1     N     0.91740   0.22920   0.90660   0.01267  Uiso   1.00
N2     N     0.56350   0.19710   0.13400   0.01267  Uiso   1.00
N3     N     0.21010   0.54940   0.64810   0.01267  Uiso   1.00
N4     N     0.24930   0.90740   0.42170   0.01267  Uiso   1.00
N5     N     0.36420   0.17600   0.40660   0.01267  Uiso   1.00
N6     N     0.16890   0.30250   0.63400   0.01267  Uiso   1.00
N7     N     0.30250   0.14180   0.14810   0.01267  Uiso   1.00
N8     N     0.17090   0.32900   0.92170   0.01267  Uiso   1.00
O1     O     0.98410   0.23420   0.86690   0.01267  Uiso   1.00
O2     O     0.49700   0.19470   0.17450   0.01267  Uiso   1.00
O3     O     0.20830   0.48360   0.68930   0.01267  Uiso   1.00
O4     O     0.25540   0.97650   0.38310   0.01267  Uiso   1.00
O5     O     0.11820   0.22460   0.82560   0.01267  Uiso   1.00
O6     O     0.25590   0.37950   0.73580   0.01267  Uiso   1.00
O7     O     0.05110   0.41330   0.83980   0.01267  Uiso   1.00
O8     O     0.03400   0.38320   0.72240   0.01267  Uiso   1.00
O9     O     0.39890   0.14900   0.36690   0.01267  Uiso   1.00
O10    O     0.13080   0.32850   0.67450   0.01267  Uiso   1.00
O11    O     0.32710   0.10240   0.18930   0.01267  Uiso   1.00
O12    O     0.14040   0.36150   0.88310   0.01267  Uiso   1.00
O13    O     0.44980   0.05620   0.32560   0.01267  Uiso   1.00
O14    O     0.38470   0.00830   0.23580   0.01267  Uiso   1.00
O15    O     0.24690   0.10910   0.33980   0.01267  Uiso   1.00
O16    O     0.39440   0.24360   0.22240   0.01267  Uiso   1.00
Nd3    Nd    0.63033   0.89534   0.71967   0.01267  Uiso   1.00
Nd4    Nd    0.88499   0.65000   0.21967   0.01267  Uiso   1.00
H49    H     0.73820   0.92760   0.52420   0.01267  Uiso   1.00
H50    H     0.80080   0.88970   0.44810   0.01267  Uiso   1.00
H51    H     0.61030   0.66920   0.57510   0.01267  Uiso   1.00
H52    H     0.51370   0.69190   0.72120   0.01267  Uiso   1.00
H53    H     0.49520   0.63830   0.68250   0.01267  Uiso   1.00
H54    H     0.47880   0.70910   0.66550   0.01267  Uiso   1.00
H55    H     0.65780   0.64420   0.48560   0.01267  Uiso   1.00
H56    H     0.72380   0.60430   0.41230   0.01267  Uiso   1.00
H57    H     0.86250   0.84070   0.40400   0.01267  Uiso   1.00
H58    H     0.98620   0.78350   0.32270   0.01267  Uiso   1.00
H59    H     0.98680   0.86160   0.31720   0.01267  Uiso   1.00
H60    H     0.97450   0.83350   0.25840   0.01267  Uiso   1.00
H61    H     0.59060   0.75870   0.92090   0.01267  Uiso   1.00
H62    H     0.62930   0.69210   0.99540   0.01267  Uiso   1.00
H63    H     0.85170   0.87940   0.86810   0.01267  Uiso   1.00
H64    H     0.82240   0.97950   0.72590   0.01267  Uiso   1.00
H65    H     0.88310   0.99230   0.75760   0.01267  Uiso   1.00
H66    H     0.81710   0.01370   0.78300   0.01267  Uiso   1.00
H67    H     0.87200   0.84110   0.95810   0.01267  Uiso   1.00
H68    H     0.91490   0.77890   0.03480   0.01267  Uiso   1.00
H69    H     0.68530   0.62930   0.04120   0.01267  Uiso   1.00
H70    H     0.75620   0.52090   0.13410   0.01267  Uiso   1.00
H71    H     0.68220   0.50780   0.12140   0.01267  Uiso   1.00
H72    H     0.68680   0.52470   0.18810   0.01267  Uiso   1.00
H73    H     0.04820   0.73760   0.02420   0.01267  Uiso   1.00
H74    H     0.16220   0.75110   0.94810   0.01267  Uiso   1.00
H75    H     0.25570   0.81460   0.07510   0.01267  Uiso   1.00
H76    H     0.08690   0.76510   0.22120   0.01267  Uiso   1.00
H77    H     0.17920   0.82230   0.18250   0.01267  Uiso   1.00
H78    H     0.12540   0.85570   0.16550   0.01267  Uiso   1.00
H79    H     0.37020   0.85660   0.98560   0.01267  Uiso   1.00
H80    H     0.48340   0.86390   0.91230   0.01267  Uiso   1.00
H81    H     0.25530   0.73350   0.90400   0.01267  Uiso   1.00
H82    H     0.39380   0.69110   0.82270   0.01267  Uiso   1.00
H83    H     0.32120   0.69600   0.81720   0.01267  Uiso   1.00
H84    H     0.40810   0.76710   0.75840   0.01267  Uiso   1.00
H85    H     0.82040   0.48850   0.42090   0.01267  Uiso   1.00
H86    H     0.81250   0.37530   0.49540   0.01267  Uiso   1.00
H87    H     0.75250   0.28020   0.36810   0.01267  Uiso   1.00
H88    H     0.79460   0.45170   0.22590   0.01267  Uiso   1.00
H89    H     0.75010   0.35930   0.25760   0.01267  Uiso   1.00
H90    H     0.70330   0.39990   0.28300   0.01267  Uiso   1.00
H91    H     0.70080   0.16990   0.45810   0.01267  Uiso   1.00
H92    H     0.68630   0.05030   0.53480   0.01267  Uiso   1.00
H93    H     0.82950   0.27350   0.54120   0.01267  Uiso   1.00
H94    H     0.84500   0.10970   0.63410   0.01267  Uiso   1.00
H95    H     0.87080   0.19640   0.62140   0.01267  Uiso   1.00
H96    H     0.78720   0.12510   0.68810   0.01267  Uiso   1.00
C49    C     0.71210   0.87530   0.53360   0.01267  Uiso   1.00
C50    C     0.74970   0.85280   0.48870   0.01267  Uiso   1.00
C51    C     0.71240   0.77330   0.50250   0.01267  Uiso   1.00
C52    C     0.63610   0.72210   0.56400   0.01267  Uiso   1.00
C53    C     0.59670   0.74620   0.60970   0.01267  Uiso   1.00
C54    C     0.51360   0.69150   0.67570   0.01267  Uiso   1.00
C55    C     0.75300   0.74620   0.45440   0.01267  Uiso   1.00
C56    C     0.71270   0.67590   0.45480   0.01267  Uiso   1.00
C57    C     0.75190   0.65220   0.41110   0.01267  Uiso   1.00
C58    C     0.87490   0.76850   0.36220   0.01267  Uiso   1.00
C59    C     0.83430   0.79210   0.40640   0.01267  Uiso   1.00
C60    C     0.96370   0.81610   0.31040   0.01267  Uiso   1.00
C61    C     0.64310   0.78280   0.91110   0.01267  Uiso   1.00
C62    C     0.66640   0.74350   0.95530   0.01267  Uiso   1.00
C63    C     0.74710   0.77950   0.94140   0.01267  Uiso   1.00
C64    C     0.79850   0.85460   0.87990   0.01267  Uiso   1.00
C65    C     0.77470   0.89560   0.83430   0.01267  Uiso   1.00
C66    C     0.82920   0.97750   0.76950   0.01267  Uiso   1.00
C67    C     0.77360   0.74080   0.99060   0.01267  Uiso   1.00
C68    C     0.84270   0.78630   0.98900   0.01267  Uiso   1.00
C69    C     0.86840   0.74810   0.03510   0.01267  Uiso   1.00
C70    C     0.75790   0.62400   0.08470   0.01267  Uiso   1.00
C71    C     0.73270   0.66070   0.03900   0.01267  Uiso   1.00
C72    C     0.71700   0.53640   0.13680   0.01267  Uiso   1.00
C73    C     0.09110   0.75430   0.03360   0.01267  Uiso   1.00
C74    C     0.15850   0.76160   0.98870   0.01267  Uiso   1.00
C75    C     0.22420   0.78510   0.00250   0.01267  Uiso   1.00
C76    C     0.21390   0.79990   0.06400   0.01267  Uiso   1.00
C77    C     0.14410   0.79360   0.10970   0.01267  Uiso   1.00
C78    C     0.13280   0.81070   0.17570   0.01267  Uiso   1.00
C79    C     0.29940   0.79260   0.95440   0.01267  Uiso   1.00
C80    C     0.36930   0.83250   0.95480   0.01267  Uiso   1.00
C81    C     0.43670   0.83700   0.91110   0.01267  Uiso   1.00
C82    C     0.36930   0.76290   0.86220   0.01267  Uiso   1.00
C83    C     0.30150   0.75930   0.90640   0.01267  Uiso   1.00
C84    C     0.37350   0.72590   0.81040   0.01267  Uiso   1.00
C85    C     0.80610   0.44580   0.41110   0.01267  Uiso   1.00
C86    C     0.80120   0.37830   0.45530   0.01267  Uiso   1.00
C87    C     0.77910   0.31150   0.44140   0.01267  Uiso   1.00
C88    C     0.76550   0.32160   0.37990   0.01267  Uiso   1.00
C89    C     0.77010   0.39100   0.33430   0.01267  Uiso   1.00
C90    C     0.75300   0.40130   0.26950   0.01267  Uiso   1.00
C91    C     0.76860   0.23580   0.49060   0.01267  Uiso   1.00
C92    C     0.72470   0.16830   0.48900   0.01267  Uiso   1.00
C93    C     0.71680   0.09650   0.53510   0.01267  Uiso   1.00
C94    C     0.79130   0.15740   0.58470   0.01267  Uiso   1.00
C95    C     0.80030   0.22830   0.53900   0.01267  Uiso   1.00
C96    C     0.82680   0.14620   0.63680   0.01267  Uiso   1.00
N9     N     0.63580   0.82400   0.59340   0.01267  Uiso   1.00
N10    N     0.83110   0.69750   0.36600   0.01267  Uiso   1.00
N11    N     0.69750   0.85820   0.85190   0.01267  Uiso   1.00
N12    N     0.82910   0.67100   0.07830   0.01267  Uiso   1.00
N13    N     0.08260   0.77080   0.09340   0.01267  Uiso   1.00
N14    N     0.43650   0.80290   0.86600   0.01267  Uiso   1.00
N15    N     0.78990   0.45060   0.35190   0.01267  Uiso   1.00
N16    N     0.75070   0.09260   0.57830   0.01267  Uiso   1.00
O17    O     0.60110   0.85100   0.63310   0.01267  Uiso   1.00
O18    O     0.86920   0.67150   0.32550   0.01267  Uiso   1.00
O19    O     0.67290   0.89760   0.81070   0.01267  Uiso   1.00
O20    O     0.85960   0.63850   0.11690   0.01267  Uiso   1.00
O21    O     0.55020   0.94380   0.67440   0.01267  Uiso   1.00
O22    O     0.61530   0.99170   0.76420   0.01267  Uiso   1.00
O23    O     0.75310   0.89090   0.66020   0.01267  Uiso   1.00
O24    O     0.60560   0.75640   0.77760   0.01267  Uiso   1.00
O25    O     0.01590   0.76580   0.13310   0.01267  Uiso   1.00
O26    O     0.50300   0.80530   0.82550   0.01267  Uiso   1.00
O27    O     0.79170   0.51640   0.31070   0.01267  Uiso   1.00
O28    O     0.74460   0.02350   0.61690   0.01267  Uiso   1.00
O29    O     0.88180   0.77540   0.17440   0.01267  Uiso   1.00
O30    O     0.74410   0.62050   0.26420   0.01267  Uiso   1.00
O31    O     0.94890   0.58670   0.16020   0.01267  Uiso   1.00
O32    O     0.96600   0.61680   0.27760   0.01267  Uiso   1.00
Cl1    Cl    0.97760   0.62760   0.45020   0.01267  Uiso   1.00
O33    O     0.02950   0.61540   0.47750   0.01267  Uiso   1.00
O34    O     0.92070   0.57140   0.45790   0.01267  Uiso   1.00
O35    O     0.96640   0.68380   0.46960   0.01267  Uiso   1.00
O36    O     0.02350   0.67200   0.36730   0.01267  Uiso   1.00
Cl2    Cl    0.35055   0.00109   0.07504   0.01267  Uiso   1.00
O37    O     0.31210   0.95350   0.15640   0.01267  Uiso   1.00
O38    O     0.35680   0.95610   0.03930   0.01267  Uiso   1.00
O39    O     0.30150   0.02780   0.05810   0.01267  Uiso   1.00
O40    O     0.42550   0.06140   0.05270   0.01267  Uiso   1.00
Cl3    Cl    0.94845   0.02688   0.25583   0.01267  Uiso   1.00
O41    O     0.96800   0.00100   0.31340   0.01267  Uiso   1.00
O42    O     0.92430   0.96730   0.23400   0.01267  Uiso   1.00
O43    O     0.00820   0.09900   0.19900   0.01267  Uiso   1.00
O44    O     0.88490   0.03420   0.28610   0.01267  Uiso   1.00
Cl4    Cl    0.57780   0.42780   0.04980   0.01267  Uiso   1.00
O45    O     0.59290   0.50700   0.02250   0.01267  Uiso   1.00
O46    O     0.52930   0.37860   0.04210   0.01267  Uiso   1.00
O47    O     0.65340   0.43600   0.03040   0.01267  Uiso   1.00
O48    O     0.53930   0.39080   0.13270   0.01267  Uiso   1.00
Cl5    Cl    0.57613   0.42559   0.42496   0.01267  Uiso   1.00
O49    O     0.60990   0.46850   0.34360   0.01267  Uiso   1.00
O50    O     0.49540   0.39610   0.46070   0.01267  Uiso   1.00
O51    O     0.58590   0.35960   0.44190   0.01267  Uiso   1.00
O52    O     0.61410   0.47820   0.44730   0.01267  Uiso   1.00
Cl6    Cl    0.78271   0.20428   0.24417   0.01267  Uiso   1.00
O53    O     0.81440   0.28140   0.18660   0.01267  Uiso   1.00
O54    O     0.70130   0.15830   0.26600   0.01267  Uiso   1.00
O55    O     0.79800   0.20720   0.30100   0.01267  Uiso   1.00
O56    O     0.82030   0.17100   0.21390   0.01267  Uiso   1.00
Cl7    Cl    0.02240   0.37240   0.54980   0.01267  Uiso   1.00
O57    O     0.97050   0.38460   0.52250   0.01267  Uiso   1.00
O58    O     0.07930   0.42860   0.54210   0.01267  Uiso   1.00
O59    O     0.03360   0.31620   0.53040   0.01267  Uiso   1.00
O60    O     0.97650   0.32800   0.63270   0.01267  Uiso   1.00
Cl8    Cl    0.64945   0.99891   0.92496   0.01267  Uiso   1.00
O61    O     0.68790   0.04650   0.84360   0.01267  Uiso   1.00
O62    O     0.64320   0.04390   0.96070   0.01267  Uiso   1.00
O63    O     0.69850   0.97220   0.94190   0.01267  Uiso   1.00
O64    O     0.57450   0.93860   0.94730   0.01267  Uiso   1.00
Cl9    Cl    0.05155   0.97312   0.74417   0.01267  Uiso   1.00
O65    O     0.03200   0.99900   0.68660   0.01267  Uiso   1.00
O66    O     0.07570   0.03270   0.76600   0.01267  Uiso   1.00
O67    O     0.99180   0.90100   0.80100   0.01267  Uiso   1.00
O68    O     0.11510   0.96580   0.71390   0.01267  Uiso   1.00
Cl10   Cl    0.42220   0.57220   0.95020   0.01267  Uiso   1.00
O69    O     0.40710   0.49300   0.97750   0.01267  Uiso   1.00
O70    O     0.47070   0.62140   0.95790   0.01267  Uiso   1.00
O71    O     0.34660   0.56400   0.96960   0.01267  Uiso   1.00
O72    O     0.46070   0.60920   0.86730   0.01267  Uiso   1.00
Cl11   Cl    0.42387   0.57441   0.57504   0.01267  Uiso   1.00
O73    O     0.39010   0.53150   0.65640   0.01267  Uiso   1.00
O74    O     0.50460   0.60390   0.53930   0.01267  Uiso   1.00
O75    O     0.41410   0.64040   0.55810   0.01267  Uiso   1.00
O76    O     0.38590   0.52180   0.55270   0.01267  Uiso   1.00
Cl12   Cl    0.21729   0.79572   0.75583   0.01267  Uiso   1.00
O77    O     0.18560   0.71860   0.81340   0.01267  Uiso   1.00
O78    O     0.29870   0.84170   0.73400   0.01267  Uiso   1.00
O79    O     0.20200   0.79280   0.69900   0.01267  Uiso   1.00
O80    O     0.17970   0.82900   0.78610   0.01267  Uiso   1.00
