data_image0
_cell_length_a       16.3351
_cell_length_b       9.275
_cell_length_c       17.2416
_cell_angle_alpha    90
_cell_angle_beta     117.987
_cell_angle_gamma    90

_symmetry_space_group_name_H-M    "P 1"
_symmetry_int_tables_number       1

loop_
  _symmetry_equiv_pos_as_xyz
  'x, y, z'

loop_
  _atom_site_label
  _atom_site_occupancy
  _atom_site_fract_x
  _atom_site_fract_y
  _atom_site_fract_z
  _atom_site_thermal_displace_type
  _atom_site_B_iso_or_equiv
  _atom_site_type_symbol
  Zn1      1.0000 0.13500  0.12230  0.02328  Biso   1.000  Zn
  P1       1.0000 0.14325  0.37332  0.90085  Biso   1.000  P
  P2       1.0000 0.02012  0.91852  0.63382  Biso   1.000  P
  O1       1.0000 0.14208  0.31937  0.98410  Biso   1.000  O
  O2       1.0000 0.23500  0.43628  0.91834  Biso   1.000  O
  O3       1.0000 0.10890  0.25988  0.82990  Biso   1.000  O
  O4       1.0000 0.06550  0.02466  0.70920  Biso   1.000  O
  O5       1.0000 0.08910  0.85970  0.60697  Biso   1.000  O
  O6       1.0000 0.93101  0.97642  0.56141  Biso   1.000  O
  H1       1.0000 0.08620  0.48639  0.87413  Biso   1.000  H
  H2       1.0000 0.99178  0.81108  0.66301  Biso   1.000  H
  Zn2      1.0000 0.63500  0.62230  0.02328  Biso   1.000  Zn
  P3       1.0000 0.64325  0.87332  0.90085  Biso   1.000  P
  P4       1.0000 0.52012  0.41852  0.63382  Biso   1.000  P
  O7       1.0000 0.64208  0.81937  0.98410  Biso   1.000  O
  O8       1.0000 0.73500  0.93628  0.91834  Biso   1.000  O
  O9       1.0000 0.60890  0.75988  0.82990  Biso   1.000  O
  O10      1.0000 0.56550  0.52466  0.70920  Biso   1.000  O
  O11      1.0000 0.58910  0.35970  0.60697  Biso   1.000  O
  O12      1.0000 0.43101  0.47642  0.56141  Biso   1.000  O
  H3       1.0000 0.58620  0.98639  0.87413  Biso   1.000  H
  H4       1.0000 0.49178  0.31108  0.66301  Biso   1.000  H
  Zn3      1.0000 0.86500  0.12230  0.47672  Biso   1.000  Zn
  P5       1.0000 0.85675  0.37332  0.59915  Biso   1.000  P
  P6       1.0000 0.97988  0.91852  0.86618  Biso   1.000  P
  O13      1.0000 0.85792  0.31937  0.51590  Biso   1.000  O
  O14      1.0000 0.76500  0.43628  0.58166  Biso   1.000  O
  O15      1.0000 0.89110  0.25988  0.67010  Biso   1.000  O
  O16      1.0000 0.93450  0.02466  0.79080  Biso   1.000  O
  O17      1.0000 0.91090  0.85970  0.89303  Biso   1.000  O
  O18      1.0000 0.06899  0.97642  0.93859  Biso   1.000  O
  H5       1.0000 0.91380  0.48639  0.62587  Biso   1.000  H
  H6       1.0000 0.00822  0.81108  0.83699  Biso   1.000  H
  Zn4      1.0000 0.36500  0.62230  0.47672  Biso   1.000  Zn
  P7       1.0000 0.35675  0.87332  0.59915  Biso   1.000  P
  P8       1.0000 0.47988  0.41852  0.86618  Biso   1.000  P
  O19      1.0000 0.35792  0.81937  0.51590  Biso   1.000  O
  O20      1.0000 0.26500  0.93628  0.58166  Biso   1.000  O
  O21      1.0000 0.39110  0.75988  0.67010  Biso   1.000  O
  O22      1.0000 0.43450  0.52466  0.79080  Biso   1.000  O
  O23      1.0000 0.41090  0.35970  0.89303  Biso   1.000  O
  O24      1.0000 0.56899  0.47642  0.93859  Biso   1.000  O
  H7       1.0000 0.41380  0.98639  0.62587  Biso   1.000  H
  H8       1.0000 0.50822  0.31108  0.83699  Biso   1.000  H
  Zn5      1.0000 0.86500  0.87770  0.97672  Biso   1.000  Zn
  P9       1.0000 0.85675  0.62668  0.09915  Biso   1.000  P
  P10      1.0000 0.97988  0.08148  0.36618  Biso   1.000  P
  O25      1.0000 0.85792  0.68063  0.01590  Biso   1.000  O
  O26      1.0000 0.76500  0.56372  0.08166  Biso   1.000  O
  O27      1.0000 0.89110  0.74012  0.17010  Biso   1.000  O
  O28      1.0000 0.93450  0.97534  0.29080  Biso   1.000  O
  O29      1.0000 0.91090  0.14030  0.39303  Biso   1.000  O
  O30      1.0000 0.06899  0.02358  0.43859  Biso   1.000  O
  H9       1.0000 0.91380  0.51361  0.12587  Biso   1.000  H
  H10      1.0000 0.00822  0.18892  0.33699  Biso   1.000  H
  Zn6      1.0000 0.36500  0.37770  0.97672  Biso   1.000  Zn
  P11      1.0000 0.35675  0.12668  0.09915  Biso   1.000  P
  P12      1.0000 0.47988  0.58148  0.36618  Biso   1.000  P
  O31      1.0000 0.35792  0.18063  0.01590  Biso   1.000  O
  O32      1.0000 0.26500  0.06372  0.08166  Biso   1.000  O
  O33      1.0000 0.39110  0.24012  0.17010  Biso   1.000  O
  O34      1.0000 0.43450  0.47534  0.29080  Biso   1.000  O
  O35      1.0000 0.41090  0.64030  0.39303  Biso   1.000  O
  O36      1.0000 0.56899  0.52358  0.43859  Biso   1.000  O
  H11      1.0000 0.41380  0.01361  0.12587  Biso   1.000  H
  H12      1.0000 0.50822  0.68892  0.33699  Biso   1.000  H
  Zn7      1.0000 0.13500  0.87770  0.52328  Biso   1.000  Zn
  P13      1.0000 0.14325  0.62668  0.40085  Biso   1.000  P
  P14      1.0000 0.02012  0.08148  0.13382  Biso   1.000  P
  O37      1.0000 0.14208  0.68063  0.48410  Biso   1.000  O
  O38      1.0000 0.23500  0.56372  0.41834  Biso   1.000  O
  O39      1.0000 0.10890  0.74012  0.32990  Biso   1.000  O
  O40      1.0000 0.06550  0.97534  0.20920  Biso   1.000  O
  O41      1.0000 0.08910  0.14030  0.10697  Biso   1.000  O
  O42      1.0000 0.93101  0.02358  0.06141  Biso   1.000  O
  H13      1.0000 0.08620  0.51361  0.37413  Biso   1.000  H
  H14      1.0000 0.99178  0.18892  0.16301  Biso   1.000  H
  Zn8      1.0000 0.63500  0.37770  0.52328  Biso   1.000  Zn
  P15      1.0000 0.64325  0.12668  0.40085  Biso   1.000  P
  P16      1.0000 0.52012  0.58148  0.13382  Biso   1.000  P
  O43      1.0000 0.64208  0.18063  0.48410  Biso   1.000  O
  O44      1.0000 0.73500  0.06372  0.41834  Biso   1.000  O
  O45      1.0000 0.60890  0.24012  0.32990  Biso   1.000  O
  O46      1.0000 0.56550  0.47534  0.20920  Biso   1.000  O
  O47      1.0000 0.58910  0.64030  0.10697  Biso   1.000  O
  O48      1.0000 0.43101  0.52358  0.06141  Biso   1.000  O
  H15      1.0000 0.58620  0.01361  0.37413  Biso   1.000  H
  H16      1.0000 0.49178  0.68892  0.16301  Biso   1.000  H
  Zn9      1.0000 0.00000  0.15385  0.75000  Biso   1.000  Zn
  Zn10     1.0000 0.50000  0.65385  0.75000  Biso   1.000  Zn
  Zn11     1.0000 0.00000  0.84615  0.25000  Biso   1.000  Zn
  Zn12     1.0000 0.50000  0.34615  0.25000  Biso   1.000  Zn
