data_image0
_cell_length_a       13.2385
_cell_length_b       13.2385
_cell_length_c       46.3808
_cell_angle_alpha    90
_cell_angle_beta     90
_cell_angle_gamma    120

_symmetry_space_group_name_H-M    "P 1"
_symmetry_int_tables_number       1

loop_
  _symmetry_equiv_pos_as_xyz
  'x, y, z'

loop_
  _atom_site_label
  _atom_site_occupancy
  _atom_site_fract_x
  _atom_site_fract_y
  _atom_site_fract_z
  _atom_site_thermal_displace_type
  _atom_site_B_iso_or_equiv
  _atom_site_type_symbol
  P1       1.0000 0.75777  0.99441  0.03363  Biso   1.000  P
  Mg1      1.0000 0.99443  0.23291  0.03348  Biso   1.000  Mg
  O1       1.0000 0.96770  0.32180  0.05647  Biso   1.000  O
  O2       1.0000 0.89580  0.43930  0.07955  Biso   1.000  O
  O3       1.0000 0.74350  0.87715  0.04178  Biso   1.000  O
  O4       1.0000 0.88459  0.08592  0.03766  Biso   1.000  O
  O5       1.0000 0.71930  0.99252  0.00269  Biso   1.000  O
  O6       1.0000 0.67970  0.01880  0.05240  Biso   1.000  O
  Al1      1.0000 0.76709  0.76152  0.03348  Biso   1.000  Al
  P2       1.0000 0.42444  0.32774  0.36696  Biso   1.000  P
  Mg2      1.0000 0.66110  0.56624  0.36681  Biso   1.000  Mg
  O7       1.0000 0.63437  0.65513  0.38980  Biso   1.000  O
  O8       1.0000 0.56247  0.77263  0.41288  Biso   1.000  O
  O9       1.0000 0.41017  0.21048  0.37511  Biso   1.000  O
  O10      1.0000 0.55126  0.41925  0.37099  Biso   1.000  O
  O11      1.0000 0.38597  0.32585  0.33602  Biso   1.000  O
  O12      1.0000 0.34637  0.35213  0.38573  Biso   1.000  O
  Al2      1.0000 0.43376  0.09485  0.36681  Biso   1.000  Al
  P3       1.0000 0.09110  0.66108  0.70029  Biso   1.000  P
  Mg3      1.0000 0.32776  0.89958  0.70014  Biso   1.000  Mg
  O13      1.0000 0.30103  0.98847  0.72314  Biso   1.000  O
  O14      1.0000 0.22913  0.10597  0.74622  Biso   1.000  O
  O15      1.0000 0.07683  0.54382  0.70845  Biso   1.000  O
  O16      1.0000 0.21792  0.75259  0.70433  Biso   1.000  O
  O17      1.0000 0.05263  0.65919  0.66936  Biso   1.000  O
  O18      1.0000 0.01303  0.68547  0.71907  Biso   1.000  O
  Al3      1.0000 0.10042  0.42819  0.70014  Biso   1.000  Al
  P4       1.0000 0.00559  0.76336  0.03363  Biso   1.000  P
  O19      1.0000 0.67820  0.64590  0.05647  Biso   1.000  O
  O20      1.0000 0.56070  0.45650  0.07955  Biso   1.000  O
  O21      1.0000 0.12285  0.86635  0.04178  Biso   1.000  O
  O22      1.0000 0.91408  0.79867  0.03766  Biso   1.000  O
  O23      1.0000 0.00748  0.72678  0.00269  Biso   1.000  O
  O24      1.0000 0.98120  0.66090  0.05240  Biso   1.000  O
  Al4      1.0000 0.23848  0.00557  0.03348  Biso   1.000  Al
  P5       1.0000 0.67226  0.09669  0.36696  Biso   1.000  P
  O25      1.0000 0.34487  0.97923  0.38980  Biso   1.000  O
  O26      1.0000 0.22737  0.78983  0.41288  Biso   1.000  O
  O27      1.0000 0.78952  0.19968  0.37511  Biso   1.000  O
  O28      1.0000 0.58075  0.13200  0.37099  Biso   1.000  O
  O29      1.0000 0.67415  0.06011  0.33602  Biso   1.000  O
  O30      1.0000 0.64787  0.99423  0.38573  Biso   1.000  O
  Al5      1.0000 0.90515  0.33890  0.36681  Biso   1.000  Al
  P6       1.0000 0.33892  0.43003  0.70029  Biso   1.000  P
  O31      1.0000 0.01153  0.31257  0.72314  Biso   1.000  O
  O32      1.0000 0.89403  0.12317  0.74622  Biso   1.000  O
  O33      1.0000 0.45618  0.53302  0.70845  Biso   1.000  O
  O34      1.0000 0.24741  0.46534  0.70433  Biso   1.000  O
  O35      1.0000 0.34081  0.39345  0.66936  Biso   1.000  O
  O36      1.0000 0.31453  0.32757  0.71907  Biso   1.000  O
  Al6      1.0000 0.57181  0.67224  0.70014  Biso   1.000  Al
  P7       1.0000 0.23664  0.24223  0.03363  Biso   1.000  P
  O37      1.0000 0.35410  0.03230  0.05647  Biso   1.000  O
  O38      1.0000 0.54350  0.10420  0.07955  Biso   1.000  O
  O39      1.0000 0.13365  0.25650  0.04178  Biso   1.000  O
  O40      1.0000 0.20133  0.11541  0.03766  Biso   1.000  O
  O41      1.0000 0.27322  0.28070  0.00269  Biso   1.000  O
  O42      1.0000 0.33910  0.32030  0.05240  Biso   1.000  O
  P8       1.0000 0.90331  0.57556  0.36696  Biso   1.000  P
  O43      1.0000 0.02077  0.36563  0.38980  Biso   1.000  O
  O44      1.0000 0.21017  0.43753  0.41288  Biso   1.000  O
  O45      1.0000 0.80032  0.58983  0.37511  Biso   1.000  O
  O46      1.0000 0.86800  0.44874  0.37099  Biso   1.000  O
  O47      1.0000 0.93989  0.61403  0.33602  Biso   1.000  O
  O48      1.0000 0.00577  0.65363  0.38573  Biso   1.000  O
  P9       1.0000 0.56997  0.90890  0.70029  Biso   1.000  P
  O49      1.0000 0.68743  0.69897  0.72314  Biso   1.000  O
  O50      1.0000 0.87683  0.77087  0.74622  Biso   1.000  O
  O51      1.0000 0.46698  0.92317  0.70845  Biso   1.000  O
  O52      1.0000 0.53466  0.78208  0.70433  Biso   1.000  O
  O53      1.0000 0.60655  0.94737  0.66936  Biso   1.000  O
  O54      1.0000 0.67243  0.98697  0.71907  Biso   1.000  O
  P10      1.0000 0.99441  0.75777  0.46637  Biso   1.000  P
  Mg4      1.0000 0.23291  0.99443  0.46652  Biso   1.000  Mg
  O55      1.0000 0.32180  0.96770  0.44353  Biso   1.000  O
  O56      1.0000 0.43930  0.89580  0.42045  Biso   1.000  O
  O57      1.0000 0.87715  0.74350  0.45822  Biso   1.000  O
  O58      1.0000 0.08592  0.88459  0.46234  Biso   1.000  O
  O59      1.0000 0.99252  0.71930  0.49731  Biso   1.000  O
  O60      1.0000 0.01880  0.67970  0.44760  Biso   1.000  O
  Al7      1.0000 0.76152  0.76709  0.46652  Biso   1.000  Al
  P11      1.0000 0.66108  0.09110  0.79971  Biso   1.000  P
  Mg5      1.0000 0.89958  0.32776  0.79986  Biso   1.000  Mg
  O61      1.0000 0.98847  0.30103  0.77686  Biso   1.000  O
  O62      1.0000 0.10597  0.22913  0.75378  Biso   1.000  O
  O63      1.0000 0.54382  0.07683  0.79155  Biso   1.000  O
  O64      1.0000 0.75259  0.21792  0.79567  Biso   1.000  O
  O65      1.0000 0.65919  0.05263  0.83064  Biso   1.000  O
  O66      1.0000 0.68547  0.01303  0.78093  Biso   1.000  O
  Al8      1.0000 0.42819  0.10042  0.79986  Biso   1.000  Al
  P12      1.0000 0.32774  0.42444  0.13304  Biso   1.000  P
  Mg6      1.0000 0.56624  0.66110  0.13319  Biso   1.000  Mg
  O67      1.0000 0.65513  0.63437  0.11020  Biso   1.000  O
  O68      1.0000 0.77263  0.56247  0.08712  Biso   1.000  O
  O69      1.0000 0.21048  0.41017  0.12489  Biso   1.000  O
  O70      1.0000 0.41925  0.55126  0.12901  Biso   1.000  O
  O71      1.0000 0.32585  0.38597  0.16398  Biso   1.000  O
  O72      1.0000 0.35213  0.34637  0.11427  Biso   1.000  O
  Al9      1.0000 0.09485  0.43376  0.13319  Biso   1.000  Al
  P13      1.0000 0.76336  0.00559  0.46637  Biso   1.000  P
  O73      1.0000 0.64590  0.67820  0.44353  Biso   1.000  O
  O74      1.0000 0.45650  0.56070  0.42045  Biso   1.000  O
  O75      1.0000 0.86635  0.12285  0.45822  Biso   1.000  O
  O76      1.0000 0.79867  0.91408  0.46234  Biso   1.000  O
  O77      1.0000 0.72678  0.00748  0.49731  Biso   1.000  O
  O78      1.0000 0.66090  0.98120  0.44760  Biso   1.000  O
  Al10     1.0000 0.00557  0.23848  0.46652  Biso   1.000  Al
  P14      1.0000 0.43003  0.33892  0.79971  Biso   1.000  P
  O79      1.0000 0.31257  0.01153  0.77686  Biso   1.000  O
  O80      1.0000 0.12317  0.89403  0.75378  Biso   1.000  O
  O81      1.0000 0.53302  0.45618  0.79155  Biso   1.000  O
  O82      1.0000 0.46534  0.24741  0.79567  Biso   1.000  O
  O83      1.0000 0.39345  0.34081  0.83064  Biso   1.000  O
  O84      1.0000 0.32757  0.31453  0.78093  Biso   1.000  O
  Al11     1.0000 0.67224  0.57181  0.79986  Biso   1.000  Al
  P15      1.0000 0.09669  0.67226  0.13304  Biso   1.000  P
  O85      1.0000 0.97923  0.34487  0.11020  Biso   1.000  O
  O86      1.0000 0.78983  0.22737  0.08712  Biso   1.000  O
  O87      1.0000 0.19968  0.78952  0.12489  Biso   1.000  O
  O88      1.0000 0.13200  0.58075  0.12901  Biso   1.000  O
  O89      1.0000 0.06011  0.67415  0.16398  Biso   1.000  O
  O90      1.0000 0.99423  0.64787  0.11427  Biso   1.000  O
  Al12     1.0000 0.33890  0.90515  0.13319  Biso   1.000  Al
  P16      1.0000 0.24223  0.23664  0.46637  Biso   1.000  P
  O91      1.0000 0.03230  0.35410  0.44353  Biso   1.000  O
  O92      1.0000 0.10420  0.54350  0.42045  Biso   1.000  O
  O93      1.0000 0.25650  0.13365  0.45822  Biso   1.000  O
  O94      1.0000 0.11541  0.20133  0.46234  Biso   1.000  O
  O95      1.0000 0.28070  0.27322  0.49731  Biso   1.000  O
  O96      1.0000 0.32030  0.33910  0.44760  Biso   1.000  O
  P17      1.0000 0.90890  0.56997  0.79971  Biso   1.000  P
  O97      1.0000 0.69897  0.68743  0.77686  Biso   1.000  O
  O98      1.0000 0.77087  0.87683  0.75378  Biso   1.000  O
  O99      1.0000 0.92317  0.46698  0.79155  Biso   1.000  O
  O100     1.0000 0.78208  0.53466  0.79567  Biso   1.000  O
  O101     1.0000 0.94737  0.60655  0.83064  Biso   1.000  O
  O102     1.0000 0.98697  0.67243  0.78093  Biso   1.000  O
  P18      1.0000 0.57556  0.90331  0.13304  Biso   1.000  P
  O103     1.0000 0.36563  0.02077  0.11020  Biso   1.000  O
  O104     1.0000 0.43753  0.21017  0.08712  Biso   1.000  O
  O105     1.0000 0.58983  0.80032  0.12489  Biso   1.000  O
  O106     1.0000 0.44874  0.86800  0.12901  Biso   1.000  O
  O107     1.0000 0.61403  0.93989  0.16398  Biso   1.000  O
  O108     1.0000 0.65363  0.00577  0.11427  Biso   1.000  O
  P19      1.0000 0.24223  0.00559  0.96637  Biso   1.000  P
  Mg7      1.0000 0.00557  0.76709  0.96652  Biso   1.000  Mg
  O109     1.0000 0.03230  0.67820  0.94353  Biso   1.000  O
  O110     1.0000 0.10420  0.56070  0.92045  Biso   1.000  O
  O111     1.0000 0.25650  0.12285  0.95822  Biso   1.000  O
  O112     1.0000 0.11541  0.91408  0.96234  Biso   1.000  O
  O113     1.0000 0.28070  0.00748  0.99731  Biso   1.000  O
  O114     1.0000 0.32030  0.98120  0.94760  Biso   1.000  O
  Al13     1.0000 0.23291  0.23848  0.96652  Biso   1.000  Al
  P20      1.0000 0.90890  0.33892  0.29971  Biso   1.000  P
  Mg8      1.0000 0.67224  0.10042  0.29986  Biso   1.000  Mg
  O115     1.0000 0.69897  0.01153  0.27686  Biso   1.000  O
  O116     1.0000 0.77087  0.89403  0.25378  Biso   1.000  O
  O117     1.0000 0.92317  0.45618  0.29155  Biso   1.000  O
  O118     1.0000 0.78208  0.24741  0.29567  Biso   1.000  O
  O119     1.0000 0.94737  0.34081  0.33064  Biso   1.000  O
  O120     1.0000 0.98697  0.31453  0.28093  Biso   1.000  O
  Al14     1.0000 0.89958  0.57181  0.29986  Biso   1.000  Al
  P21      1.0000 0.57556  0.67226  0.63304  Biso   1.000  P
  Mg9      1.0000 0.33890  0.43376  0.63319  Biso   1.000  Mg
  O121     1.0000 0.36563  0.34487  0.61020  Biso   1.000  O
  O122     1.0000 0.43753  0.22737  0.58712  Biso   1.000  O
  O123     1.0000 0.58983  0.78952  0.62489  Biso   1.000  O
  O124     1.0000 0.44874  0.58075  0.62901  Biso   1.000  O
  O125     1.0000 0.61403  0.67415  0.66398  Biso   1.000  O
  O126     1.0000 0.65363  0.64787  0.61427  Biso   1.000  O
  Al15     1.0000 0.56624  0.90515  0.63319  Biso   1.000  Al
  P22      1.0000 0.99441  0.23664  0.96637  Biso   1.000  P
  O127     1.0000 0.32180  0.35410  0.94353  Biso   1.000  O
  O128     1.0000 0.43930  0.54350  0.92045  Biso   1.000  O
  O129     1.0000 0.87715  0.13365  0.95822  Biso   1.000  O
  O130     1.0000 0.08592  0.20133  0.96234  Biso   1.000  O
  O131     1.0000 0.99252  0.27322  0.99731  Biso   1.000  O
  O132     1.0000 0.01880  0.33910  0.94760  Biso   1.000  O
  Al16     1.0000 0.76152  0.99443  0.96652  Biso   1.000  Al
  P23      1.0000 0.66108  0.56997  0.29971  Biso   1.000  P
  O133     1.0000 0.98847  0.68743  0.27686  Biso   1.000  O
  O134     1.0000 0.10597  0.87683  0.25378  Biso   1.000  O
  O135     1.0000 0.54382  0.46698  0.29155  Biso   1.000  O
  O136     1.0000 0.75259  0.53466  0.29567  Biso   1.000  O
  O137     1.0000 0.65919  0.60655  0.33064  Biso   1.000  O
  O138     1.0000 0.68547  0.67243  0.28093  Biso   1.000  O
  Al17     1.0000 0.42819  0.32776  0.29986  Biso   1.000  Al
  P24      1.0000 0.32774  0.90331  0.63304  Biso   1.000  P
  O139     1.0000 0.65513  0.02077  0.61020  Biso   1.000  O
  O140     1.0000 0.77263  0.21017  0.58712  Biso   1.000  O
  O141     1.0000 0.21048  0.80032  0.62489  Biso   1.000  O
  O142     1.0000 0.41925  0.86800  0.62901  Biso   1.000  O
  O143     1.0000 0.32585  0.93989  0.66398  Biso   1.000  O
  O144     1.0000 0.35213  0.00577  0.61427  Biso   1.000  O
  Al18     1.0000 0.09485  0.66110  0.63319  Biso   1.000  Al
  P25      1.0000 0.76336  0.75777  0.96637  Biso   1.000  P
  O145     1.0000 0.64590  0.96770  0.94353  Biso   1.000  O
  O146     1.0000 0.45650  0.89580  0.92045  Biso   1.000  O
  O147     1.0000 0.86635  0.74350  0.95822  Biso   1.000  O
  O148     1.0000 0.79867  0.88459  0.96234  Biso   1.000  O
  O149     1.0000 0.72678  0.71930  0.99731  Biso   1.000  O
  O150     1.0000 0.66090  0.67970  0.94760  Biso   1.000  O
  P26      1.0000 0.43003  0.09110  0.29971  Biso   1.000  P
  O151     1.0000 0.31257  0.30103  0.27686  Biso   1.000  O
  O152     1.0000 0.12317  0.22913  0.25378  Biso   1.000  O
  O153     1.0000 0.53302  0.07683  0.29155  Biso   1.000  O
  O154     1.0000 0.46534  0.21792  0.29567  Biso   1.000  O
  O155     1.0000 0.39345  0.05263  0.33064  Biso   1.000  O
  O156     1.0000 0.32757  0.01303  0.28093  Biso   1.000  O
  P27      1.0000 0.09669  0.42444  0.63304  Biso   1.000  P
  O157     1.0000 0.97923  0.63437  0.61020  Biso   1.000  O
  O158     1.0000 0.78983  0.56247  0.58712  Biso   1.000  O
  O159     1.0000 0.19968  0.41017  0.62489  Biso   1.000  O
  O160     1.0000 0.13200  0.55126  0.62901  Biso   1.000  O
  O161     1.0000 0.06011  0.38597  0.66398  Biso   1.000  O
  O162     1.0000 0.99423  0.34637  0.61427  Biso   1.000  O
  P28      1.0000 0.00559  0.24223  0.53363  Biso   1.000  P
  Mg10     1.0000 0.76709  0.00557  0.53348  Biso   1.000  Mg
  O163     1.0000 0.67820  0.03230  0.55647  Biso   1.000  O
  O164     1.0000 0.56070  0.10420  0.57955  Biso   1.000  O
  O165     1.0000 0.12285  0.25650  0.54178  Biso   1.000  O
  O166     1.0000 0.91408  0.11541  0.53766  Biso   1.000  O
  O167     1.0000 0.00748  0.28070  0.50269  Biso   1.000  O
  O168     1.0000 0.98120  0.32030  0.55240  Biso   1.000  O
  Al19     1.0000 0.23848  0.23291  0.53348  Biso   1.000  Al
  P29      1.0000 0.67226  0.57556  0.86696  Biso   1.000  P
  Mg11     1.0000 0.43376  0.33890  0.86681  Biso   1.000  Mg
  O169     1.0000 0.34487  0.36563  0.88980  Biso   1.000  O
  O170     1.0000 0.22737  0.43753  0.91288  Biso   1.000  O
  O171     1.0000 0.78952  0.58983  0.87511  Biso   1.000  O
  O172     1.0000 0.58075  0.44874  0.87099  Biso   1.000  O
  O173     1.0000 0.67415  0.61403  0.83602  Biso   1.000  O
  O174     1.0000 0.64787  0.65363  0.88573  Biso   1.000  O
  Al20     1.0000 0.90515  0.56624  0.86681  Biso   1.000  Al
  P30      1.0000 0.33892  0.90890  0.20029  Biso   1.000  P
  Mg12     1.0000 0.10042  0.67224  0.20014  Biso   1.000  Mg
  O175     1.0000 0.01153  0.69897  0.22314  Biso   1.000  O
  O176     1.0000 0.89403  0.77087  0.24622  Biso   1.000  O
  O177     1.0000 0.45618  0.92317  0.20845  Biso   1.000  O
  O178     1.0000 0.24741  0.78208  0.20433  Biso   1.000  O
  O179     1.0000 0.34081  0.94737  0.16936  Biso   1.000  O
  O180     1.0000 0.31453  0.98697  0.21907  Biso   1.000  O
  Al21     1.0000 0.57181  0.89958  0.20014  Biso   1.000  Al
  P31      1.0000 0.23664  0.99441  0.53363  Biso   1.000  P
  O181     1.0000 0.35410  0.32180  0.55647  Biso   1.000  O
  O182     1.0000 0.54350  0.43930  0.57955  Biso   1.000  O
  O183     1.0000 0.13365  0.87715  0.54178  Biso   1.000  O
  O184     1.0000 0.20133  0.08592  0.53766  Biso   1.000  O
  O185     1.0000 0.27322  0.99252  0.50269  Biso   1.000  O
  O186     1.0000 0.33910  0.01880  0.55240  Biso   1.000  O
  Al22     1.0000 0.99443  0.76152  0.53348  Biso   1.000  Al
  P32      1.0000 0.90331  0.32774  0.86696  Biso   1.000  P
  O187     1.0000 0.02077  0.65513  0.88980  Biso   1.000  O
  O188     1.0000 0.21017  0.77263  0.91288  Biso   1.000  O
  O189     1.0000 0.80032  0.21048  0.87511  Biso   1.000  O
  O190     1.0000 0.86800  0.41925  0.87099  Biso   1.000  O
  O191     1.0000 0.93989  0.32585  0.83602  Biso   1.000  O
  O192     1.0000 0.00577  0.35213  0.88573  Biso   1.000  O
  Al23     1.0000 0.66110  0.09485  0.86681  Biso   1.000  Al
  P33      1.0000 0.56997  0.66108  0.20029  Biso   1.000  P
  O193     1.0000 0.68743  0.98847  0.22314  Biso   1.000  O
  O194     1.0000 0.87683  0.10597  0.24622  Biso   1.000  O
  O195     1.0000 0.46698  0.54382  0.20845  Biso   1.000  O
  O196     1.0000 0.53466  0.75259  0.20433  Biso   1.000  O
  O197     1.0000 0.60655  0.65919  0.16936  Biso   1.000  O
  O198     1.0000 0.67243  0.68547  0.21907  Biso   1.000  O
  Al24     1.0000 0.32776  0.42819  0.20014  Biso   1.000  Al
  P34      1.0000 0.75777  0.76336  0.53363  Biso   1.000  P
  O199     1.0000 0.96770  0.64590  0.55647  Biso   1.000  O
  O200     1.0000 0.89580  0.45650  0.57955  Biso   1.000  O
  O201     1.0000 0.74350  0.86635  0.54178  Biso   1.000  O
  O202     1.0000 0.88459  0.79867  0.53766  Biso   1.000  O
  O203     1.0000 0.71930  0.72678  0.50269  Biso   1.000  O
  O204     1.0000 0.67970  0.66090  0.55240  Biso   1.000  O
  P35      1.0000 0.42444  0.09669  0.86696  Biso   1.000  P
  O205     1.0000 0.63437  0.97923  0.88980  Biso   1.000  O
  O206     1.0000 0.56247  0.78983  0.91288  Biso   1.000  O
  O207     1.0000 0.41017  0.19968  0.87511  Biso   1.000  O
  O208     1.0000 0.55126  0.13200  0.87099  Biso   1.000  O
  O209     1.0000 0.38597  0.06011  0.83602  Biso   1.000  O
  O210     1.0000 0.34637  0.99423  0.88573  Biso   1.000  O
  P36      1.0000 0.09110  0.43003  0.20029  Biso   1.000  P
  O211     1.0000 0.30103  0.31257  0.22314  Biso   1.000  O
  O212     1.0000 0.22913  0.12317  0.24622  Biso   1.000  O
  O213     1.0000 0.07683  0.53302  0.20845  Biso   1.000  O
  O214     1.0000 0.21792  0.46534  0.20433  Biso   1.000  O
  O215     1.0000 0.05263  0.39345  0.16936  Biso   1.000  O
  O216     1.0000 0.01303  0.32757  0.21907  Biso   1.000  O
  P37      1.0000 0.90811  0.33333  0.08333  Biso   1.000  P
  P38      1.0000 0.66667  0.57477  0.08333  Biso   1.000  P
  P39      1.0000 0.33333  0.90811  0.41667  Biso   1.000  P
  P40      1.0000 0.42523  0.09189  0.08333  Biso   1.000  P
  P41      1.0000 0.75856  0.75856  0.75000  Biso   1.000  P
  P42      1.0000 0.00000  0.24144  0.75000  Biso   1.000  P
  P43      1.0000 0.57477  0.66667  0.41667  Biso   1.000  P
  P44      1.0000 0.24144  0.00000  0.75000  Biso   1.000  P
  P45      1.0000 0.09189  0.42523  0.41667  Biso   1.000  P
  P46      1.0000 0.09189  0.66667  0.91667  Biso   1.000  P
  P47      1.0000 0.75856  0.00000  0.25000  Biso   1.000  P
  P48      1.0000 0.42523  0.33333  0.58333  Biso   1.000  P
  P49      1.0000 0.33333  0.42523  0.91667  Biso   1.000  P
  P50      1.0000 0.00000  0.75856  0.25000  Biso   1.000  P
  P51      1.0000 0.57477  0.90811  0.91667  Biso   1.000  P
  P52      1.0000 0.24144  0.24144  0.25000  Biso   1.000  P
  P53      1.0000 0.66667  0.09189  0.58333  Biso   1.000  P
  P54      1.0000 0.90811  0.57477  0.58333  Biso   1.000  P
  Mg13     1.0000 0.66667  0.08946  0.08333  Biso   1.000  Mg
  Mg14     1.0000 0.91054  0.57720  0.08333  Biso   1.000  Mg
  Mg15     1.0000 0.42280  0.33333  0.08333  Biso   1.000  Mg
  Mg16     1.0000 0.08946  0.66667  0.41667  Biso   1.000  Mg
  Mg17     1.0000 0.75613  0.00000  0.75000  Biso   1.000  Mg
  Mg18     1.0000 0.57720  0.91054  0.41667  Biso   1.000  Mg
  Mg19     1.0000 0.24387  0.24387  0.75000  Biso   1.000  Mg
  Mg20     1.0000 0.33333  0.42280  0.41667  Biso   1.000  Mg
  Mg21     1.0000 0.00000  0.75613  0.75000  Biso   1.000  Mg
  Mg22     1.0000 0.33333  0.91054  0.91667  Biso   1.000  Mg
  Mg23     1.0000 0.00000  0.24387  0.25000  Biso   1.000  Mg
  Mg24     1.0000 0.08946  0.42280  0.91667  Biso   1.000  Mg
  Mg25     1.0000 0.75613  0.75613  0.25000  Biso   1.000  Mg
  Mg26     1.0000 0.57720  0.66667  0.91667  Biso   1.000  Mg
  Mg27     1.0000 0.24387  0.00000  0.25000  Biso   1.000  Mg
  Mg28     1.0000 0.91054  0.33333  0.58333  Biso   1.000  Mg
  Mg29     1.0000 0.42280  0.08946  0.58333  Biso   1.000  Mg
  Mg30     1.0000 0.66667  0.57720  0.58333  Biso   1.000  Mg
