data_image0
_cell_length_a       13.2577
_cell_length_b       13.2577
_cell_length_c       45.677
_cell_angle_alpha    90
_cell_angle_beta     90
_cell_angle_gamma    120

_symmetry_space_group_name_H-M    "P 1"
_symmetry_int_tables_number       1

loop_
  _symmetry_equiv_pos_as_xyz
  'x, y, z'

loop_
  _atom_site_label
  _atom_site_occupancy
  _atom_site_fract_x
  _atom_site_fract_y
  _atom_site_fract_z
  _atom_site_thermal_displace_type
  _atom_site_B_iso_or_equiv
  _atom_site_type_symbol
  P1       1.0000 0.75902  0.99424  0.03434  Biso   1.000  P
  O1       1.0000 0.74290  0.87704  0.04315  Biso   1.000  O
  O2       1.0000 0.88510  0.08490  0.03913  Biso   1.000  O
  O3       1.0000 0.72320  0.99267  0.00280  Biso   1.000  O
  O4       1.0000 0.68020  0.02110  0.05254  Biso   1.000  O
  Mg1      1.0000 0.76861  0.76299  0.03413  Biso   1.000  Mg
  O5       1.0000 0.67890  0.64320  0.05628  Biso   1.000  O
  O6       1.0000 0.78808  0.22822  0.08758  Biso   1.000  O
  Al1      1.0000 0.99438  0.23139  0.03413  Biso   1.000  Al
  P2       1.0000 0.42569  0.32757  0.36767  Biso   1.000  P
  O7       1.0000 0.40957  0.21037  0.37648  Biso   1.000  O
  O8       1.0000 0.55177  0.41823  0.37246  Biso   1.000  O
  O9       1.0000 0.38987  0.32600  0.33613  Biso   1.000  O
  O10      1.0000 0.34687  0.35443  0.38587  Biso   1.000  O
  Mg2      1.0000 0.43528  0.09632  0.36746  Biso   1.000  Mg
  O11      1.0000 0.34557  0.97653  0.38961  Biso   1.000  O
  O12      1.0000 0.45475  0.56155  0.42091  Biso   1.000  O
  Al2      1.0000 0.66105  0.56472  0.36746  Biso   1.000  Al
  P3       1.0000 0.09235  0.66091  0.70100  Biso   1.000  P
  O13      1.0000 0.07623  0.54371  0.70982  Biso   1.000  O
  O14      1.0000 0.21843  0.75157  0.70580  Biso   1.000  O
  O15      1.0000 0.05653  0.65934  0.66947  Biso   1.000  O
  O16      1.0000 0.01353  0.68777  0.71921  Biso   1.000  O
  Mg3      1.0000 0.10194  0.42966  0.70079  Biso   1.000  Mg
  O17      1.0000 0.01223  0.30987  0.72295  Biso   1.000  O
  O18      1.0000 0.12141  0.89489  0.75425  Biso   1.000  O
  Al3      1.0000 0.32771  0.89806  0.70079  Biso   1.000  Al
  P4       1.0000 0.00576  0.76478  0.03434  Biso   1.000  P
  O19      1.0000 0.12296  0.86586  0.04315  Biso   1.000  O
  O20      1.0000 0.91510  0.80020  0.03913  Biso   1.000  O
  O21      1.0000 0.00733  0.73053  0.00280  Biso   1.000  O
  O22      1.0000 0.97890  0.65910  0.05254  Biso   1.000  O
  Mg4      1.0000 0.23701  0.00562  0.03413  Biso   1.000  Mg
  O23      1.0000 0.35680  0.03570  0.05628  Biso   1.000  O
  O24      1.0000 0.77178  0.55986  0.08758  Biso   1.000  O
  P5       1.0000 0.67243  0.09811  0.36767  Biso   1.000  P
  O25      1.0000 0.78963  0.19919  0.37648  Biso   1.000  O
  O26      1.0000 0.58177  0.13353  0.37246  Biso   1.000  O
  O27      1.0000 0.67400  0.06386  0.33613  Biso   1.000  O
  O28      1.0000 0.64557  0.99243  0.38587  Biso   1.000  O
  Mg5      1.0000 0.90368  0.33895  0.36746  Biso   1.000  Mg
  O29      1.0000 0.02347  0.36903  0.38961  Biso   1.000  O
  O30      1.0000 0.43845  0.89319  0.42091  Biso   1.000  O
  P6       1.0000 0.33909  0.43145  0.70100  Biso   1.000  P
  O31      1.0000 0.45629  0.53253  0.70982  Biso   1.000  O
  O32      1.0000 0.24843  0.46687  0.70580  Biso   1.000  O
  O33      1.0000 0.34066  0.39720  0.66947  Biso   1.000  O
  O34      1.0000 0.31223  0.32577  0.71921  Biso   1.000  O
  Mg6      1.0000 0.57034  0.67229  0.70079  Biso   1.000  Mg
  O35      1.0000 0.69013  0.70237  0.72295  Biso   1.000  O
  O36      1.0000 0.10511  0.22653  0.75425  Biso   1.000  O
  P7       1.0000 0.23522  0.24098  0.03434  Biso   1.000  P
  O37      1.0000 0.13414  0.25710  0.04315  Biso   1.000  O
  O38      1.0000 0.19980  0.11490  0.03913  Biso   1.000  O
  O39      1.0000 0.26947  0.27680  0.00280  Biso   1.000  O
  O40      1.0000 0.34090  0.31980  0.05254  Biso   1.000  O
  O41      1.0000 0.96430  0.32110  0.05628  Biso   1.000  O
  O42      1.0000 0.44014  0.21192  0.08758  Biso   1.000  O
  P8       1.0000 0.90189  0.57431  0.36767  Biso   1.000  P
  O43      1.0000 0.80081  0.59043  0.37648  Biso   1.000  O
  O44      1.0000 0.86647  0.44823  0.37246  Biso   1.000  O
  O45      1.0000 0.93614  0.61013  0.33613  Biso   1.000  O
  O46      1.0000 0.00757  0.65313  0.38587  Biso   1.000  O
  O47      1.0000 0.63097  0.65443  0.38961  Biso   1.000  O
  O48      1.0000 0.10681  0.54525  0.42091  Biso   1.000  O
  P9       1.0000 0.56855  0.90765  0.70100  Biso   1.000  P
  O49      1.0000 0.46747  0.92377  0.70982  Biso   1.000  O
  O50      1.0000 0.53313  0.78157  0.70580  Biso   1.000  O
  O51      1.0000 0.60280  0.94347  0.66947  Biso   1.000  O
  O52      1.0000 0.67423  0.98647  0.71921  Biso   1.000  O
  O53      1.0000 0.29763  0.98777  0.72295  Biso   1.000  O
  O54      1.0000 0.77347  0.87859  0.75425  Biso   1.000  O
  P10      1.0000 0.99424  0.75902  0.46566  Biso   1.000  P
  O55      1.0000 0.87704  0.74290  0.45685  Biso   1.000  O
  O56      1.0000 0.08490  0.88510  0.46087  Biso   1.000  O
  O57      1.0000 0.99267  0.72320  0.49720  Biso   1.000  O
  O58      1.0000 0.02110  0.68020  0.44746  Biso   1.000  O
  Mg7      1.0000 0.76299  0.76861  0.46587  Biso   1.000  Mg
  O59      1.0000 0.64320  0.67890  0.44372  Biso   1.000  O
  O60      1.0000 0.22822  0.78808  0.41242  Biso   1.000  O
  Al4      1.0000 0.23139  0.99438  0.46587  Biso   1.000  Al
  P11      1.0000 0.66091  0.09235  0.79900  Biso   1.000  P
  O61      1.0000 0.54371  0.07623  0.79018  Biso   1.000  O
  O62      1.0000 0.75157  0.21843  0.79420  Biso   1.000  O
  O63      1.0000 0.65934  0.05653  0.83053  Biso   1.000  O
  O64      1.0000 0.68777  0.01353  0.78079  Biso   1.000  O
  Mg8      1.0000 0.42966  0.10194  0.79921  Biso   1.000  Mg
  O65      1.0000 0.30987  0.01223  0.77705  Biso   1.000  O
  O66      1.0000 0.89489  0.12141  0.74575  Biso   1.000  O
  Al5      1.0000 0.89806  0.32771  0.79921  Biso   1.000  Al
  P12      1.0000 0.32757  0.42569  0.13233  Biso   1.000  P
  O67      1.0000 0.21037  0.40957  0.12352  Biso   1.000  O
  O68      1.0000 0.41823  0.55177  0.12754  Biso   1.000  O
  O69      1.0000 0.32600  0.38987  0.16387  Biso   1.000  O
  O70      1.0000 0.35443  0.34687  0.11413  Biso   1.000  O
  Mg9      1.0000 0.09632  0.43528  0.13254  Biso   1.000  Mg
  O71      1.0000 0.97653  0.34557  0.11039  Biso   1.000  O
  O72      1.0000 0.56155  0.45475  0.07909  Biso   1.000  O
  Al6      1.0000 0.56472  0.66105  0.13254  Biso   1.000  Al
  P13      1.0000 0.76478  0.00576  0.46566  Biso   1.000  P
  O73      1.0000 0.86586  0.12296  0.45685  Biso   1.000  O
  O74      1.0000 0.80020  0.91510  0.46087  Biso   1.000  O
  O75      1.0000 0.73053  0.00733  0.49720  Biso   1.000  O
  O76      1.0000 0.65910  0.97890  0.44746  Biso   1.000  O
  Mg10     1.0000 0.00562  0.23701  0.46587  Biso   1.000  Mg
  O77      1.0000 0.03570  0.35680  0.44372  Biso   1.000  O
  O78      1.0000 0.55986  0.77178  0.41242  Biso   1.000  O
  P14      1.0000 0.43145  0.33909  0.79900  Biso   1.000  P
  O79      1.0000 0.53253  0.45629  0.79018  Biso   1.000  O
  O80      1.0000 0.46687  0.24843  0.79420  Biso   1.000  O
  O81      1.0000 0.39720  0.34066  0.83053  Biso   1.000  O
  O82      1.0000 0.32577  0.31223  0.78079  Biso   1.000  O
  Mg11     1.0000 0.67229  0.57034  0.79921  Biso   1.000  Mg
  O83      1.0000 0.70237  0.69013  0.77705  Biso   1.000  O
  O84      1.0000 0.22653  0.10511  0.74575  Biso   1.000  O
  P15      1.0000 0.09811  0.67243  0.13233  Biso   1.000  P
  O85      1.0000 0.19919  0.78963  0.12352  Biso   1.000  O
  O86      1.0000 0.13353  0.58177  0.12754  Biso   1.000  O
  O87      1.0000 0.06386  0.67400  0.16387  Biso   1.000  O
  O88      1.0000 0.99243  0.64557  0.11413  Biso   1.000  O
  Mg12     1.0000 0.33895  0.90368  0.13254  Biso   1.000  Mg
  O89      1.0000 0.36903  0.02347  0.11039  Biso   1.000  O
  O90      1.0000 0.89319  0.43845  0.07909  Biso   1.000  O
  P16      1.0000 0.24098  0.23522  0.46566  Biso   1.000  P
  O91      1.0000 0.25710  0.13414  0.45685  Biso   1.000  O
  O92      1.0000 0.11490  0.19980  0.46087  Biso   1.000  O
  O93      1.0000 0.27680  0.26947  0.49720  Biso   1.000  O
  O94      1.0000 0.31980  0.34090  0.44746  Biso   1.000  O
  O95      1.0000 0.32110  0.96430  0.44372  Biso   1.000  O
  O96      1.0000 0.21192  0.44014  0.41242  Biso   1.000  O
  P17      1.0000 0.90765  0.56855  0.79900  Biso   1.000  P
  O97      1.0000 0.92377  0.46747  0.79018  Biso   1.000  O
  O98      1.0000 0.78157  0.53313  0.79420  Biso   1.000  O
  O99      1.0000 0.94347  0.60280  0.83053  Biso   1.000  O
  O100     1.0000 0.98647  0.67423  0.78079  Biso   1.000  O
  O101     1.0000 0.98777  0.29763  0.77705  Biso   1.000  O
  O102     1.0000 0.87859  0.77347  0.74575  Biso   1.000  O
  P18      1.0000 0.57431  0.90189  0.13233  Biso   1.000  P
  O103     1.0000 0.59043  0.80081  0.12352  Biso   1.000  O
  O104     1.0000 0.44823  0.86647  0.12754  Biso   1.000  O
  O105     1.0000 0.61013  0.93614  0.16387  Biso   1.000  O
  O106     1.0000 0.65313  0.00757  0.11413  Biso   1.000  O
  O107     1.0000 0.65443  0.63097  0.11039  Biso   1.000  O
  O108     1.0000 0.54525  0.10681  0.07909  Biso   1.000  O
  P19      1.0000 0.24098  0.00576  0.96566  Biso   1.000  P
  O109     1.0000 0.25710  0.12296  0.95685  Biso   1.000  O
  O110     1.0000 0.11490  0.91510  0.96087  Biso   1.000  O
  O111     1.0000 0.27680  0.00733  0.99720  Biso   1.000  O
  O112     1.0000 0.31980  0.97890  0.94746  Biso   1.000  O
  Mg13     1.0000 0.23139  0.23701  0.96587  Biso   1.000  Mg
  O113     1.0000 0.32110  0.35680  0.94372  Biso   1.000  O
  O114     1.0000 0.21192  0.77178  0.91242  Biso   1.000  O
  Al7      1.0000 0.00562  0.76861  0.96587  Biso   1.000  Al
  P20      1.0000 0.90765  0.33909  0.29900  Biso   1.000  P
  O115     1.0000 0.92377  0.45629  0.29018  Biso   1.000  O
  O116     1.0000 0.78157  0.24843  0.29420  Biso   1.000  O
  O117     1.0000 0.94347  0.34066  0.33053  Biso   1.000  O
  O118     1.0000 0.98647  0.31223  0.28079  Biso   1.000  O
  Mg14     1.0000 0.89806  0.57034  0.29921  Biso   1.000  Mg
  O119     1.0000 0.98777  0.69013  0.27705  Biso   1.000  O
  O120     1.0000 0.87859  0.10511  0.24575  Biso   1.000  O
  Al8      1.0000 0.67229  0.10194  0.29921  Biso   1.000  Al
  P21      1.0000 0.57431  0.67243  0.63233  Biso   1.000  P
  O121     1.0000 0.59043  0.78963  0.62352  Biso   1.000  O
  O122     1.0000 0.44823  0.58177  0.62754  Biso   1.000  O
  O123     1.0000 0.61013  0.67400  0.66387  Biso   1.000  O
  O124     1.0000 0.65313  0.64557  0.61413  Biso   1.000  O
  Mg15     1.0000 0.56472  0.90368  0.63254  Biso   1.000  Mg
  O125     1.0000 0.65443  0.02347  0.61039  Biso   1.000  O
  O126     1.0000 0.54525  0.43845  0.57909  Biso   1.000  O
  Al9      1.0000 0.33895  0.43528  0.63254  Biso   1.000  Al
  P22      1.0000 0.99424  0.23522  0.96566  Biso   1.000  P
  O127     1.0000 0.87704  0.13414  0.95685  Biso   1.000  O
  O128     1.0000 0.08490  0.19980  0.96087  Biso   1.000  O
  O129     1.0000 0.99267  0.26947  0.99720  Biso   1.000  O
  O130     1.0000 0.02110  0.34090  0.94746  Biso   1.000  O
  Mg16     1.0000 0.76299  0.99438  0.96587  Biso   1.000  Mg
  O131     1.0000 0.64320  0.96430  0.94372  Biso   1.000  O
  O132     1.0000 0.22822  0.44014  0.91242  Biso   1.000  O
  P23      1.0000 0.66091  0.56855  0.29900  Biso   1.000  P
  O133     1.0000 0.54371  0.46747  0.29018  Biso   1.000  O
  O134     1.0000 0.75157  0.53313  0.29420  Biso   1.000  O
  O135     1.0000 0.65934  0.60280  0.33053  Biso   1.000  O
  O136     1.0000 0.68777  0.67423  0.28079  Biso   1.000  O
  Mg17     1.0000 0.42966  0.32771  0.29921  Biso   1.000  Mg
  O137     1.0000 0.30987  0.29763  0.27705  Biso   1.000  O
  O138     1.0000 0.89489  0.77347  0.24575  Biso   1.000  O
  P24      1.0000 0.32757  0.90189  0.63233  Biso   1.000  P
  O139     1.0000 0.21037  0.80081  0.62352  Biso   1.000  O
  O140     1.0000 0.41823  0.86647  0.62754  Biso   1.000  O
  O141     1.0000 0.32600  0.93614  0.66387  Biso   1.000  O
  O142     1.0000 0.35443  0.00757  0.61413  Biso   1.000  O
  Mg18     1.0000 0.09632  0.66105  0.63254  Biso   1.000  Mg
  O143     1.0000 0.97653  0.63097  0.61039  Biso   1.000  O
  O144     1.0000 0.56155  0.10681  0.57909  Biso   1.000  O
  P25      1.0000 0.76478  0.75902  0.96566  Biso   1.000  P
  O145     1.0000 0.86586  0.74290  0.95685  Biso   1.000  O
  O146     1.0000 0.80020  0.88510  0.96087  Biso   1.000  O
  O147     1.0000 0.73053  0.72320  0.99720  Biso   1.000  O
  O148     1.0000 0.65910  0.68020  0.94746  Biso   1.000  O
  O149     1.0000 0.03570  0.67890  0.94372  Biso   1.000  O
  O150     1.0000 0.55986  0.78808  0.91242  Biso   1.000  O
  P26      1.0000 0.43145  0.09235  0.29900  Biso   1.000  P
  O151     1.0000 0.53253  0.07623  0.29018  Biso   1.000  O
  O152     1.0000 0.46687  0.21843  0.29420  Biso   1.000  O
  O153     1.0000 0.39720  0.05653  0.33053  Biso   1.000  O
  O154     1.0000 0.32577  0.01353  0.28079  Biso   1.000  O
  O155     1.0000 0.70237  0.01223  0.27705  Biso   1.000  O
  O156     1.0000 0.22653  0.12141  0.24575  Biso   1.000  O
  P27      1.0000 0.09811  0.42569  0.63233  Biso   1.000  P
  O157     1.0000 0.19919  0.40957  0.62352  Biso   1.000  O
  O158     1.0000 0.13353  0.55177  0.62754  Biso   1.000  O
  O159     1.0000 0.06386  0.38987  0.66387  Biso   1.000  O
  O160     1.0000 0.99243  0.34687  0.61413  Biso   1.000  O
  O161     1.0000 0.36903  0.34557  0.61039  Biso   1.000  O
  O162     1.0000 0.89319  0.45475  0.57909  Biso   1.000  O
  P28      1.0000 0.00576  0.24098  0.53434  Biso   1.000  P
  O163     1.0000 0.12296  0.25710  0.54315  Biso   1.000  O
  O164     1.0000 0.91510  0.11490  0.53913  Biso   1.000  O
  O165     1.0000 0.00733  0.27680  0.50280  Biso   1.000  O
  O166     1.0000 0.97890  0.31980  0.55254  Biso   1.000  O
  Mg19     1.0000 0.23701  0.23139  0.53413  Biso   1.000  Mg
  O167     1.0000 0.35680  0.32110  0.55628  Biso   1.000  O
  O168     1.0000 0.77178  0.21192  0.58758  Biso   1.000  O
  Al10     1.0000 0.76861  0.00562  0.53413  Biso   1.000  Al
  P29      1.0000 0.67243  0.57431  0.86767  Biso   1.000  P
  O169     1.0000 0.78963  0.59043  0.87648  Biso   1.000  O
  O170     1.0000 0.58177  0.44823  0.87246  Biso   1.000  O
  O171     1.0000 0.67400  0.61013  0.83613  Biso   1.000  O
  O172     1.0000 0.64557  0.65313  0.88587  Biso   1.000  O
  Mg20     1.0000 0.90368  0.56472  0.86746  Biso   1.000  Mg
  O173     1.0000 0.02347  0.65443  0.88961  Biso   1.000  O
  O174     1.0000 0.43845  0.54525  0.92091  Biso   1.000  O
  Al11     1.0000 0.43528  0.33895  0.86746  Biso   1.000  Al
  P30      1.0000 0.33909  0.90765  0.20100  Biso   1.000  P
  O175     1.0000 0.45629  0.92377  0.20982  Biso   1.000  O
  O176     1.0000 0.24843  0.78157  0.20580  Biso   1.000  O
  O177     1.0000 0.34066  0.94347  0.16947  Biso   1.000  O
  O178     1.0000 0.31223  0.98647  0.21921  Biso   1.000  O
  Mg21     1.0000 0.57034  0.89806  0.20079  Biso   1.000  Mg
  O179     1.0000 0.69013  0.98777  0.22295  Biso   1.000  O
  O180     1.0000 0.10511  0.87859  0.25425  Biso   1.000  O
  Al12     1.0000 0.10194  0.67229  0.20079  Biso   1.000  Al
  P31      1.0000 0.23522  0.99424  0.53434  Biso   1.000  P
  O181     1.0000 0.13414  0.87704  0.54315  Biso   1.000  O
  O182     1.0000 0.19980  0.08490  0.53913  Biso   1.000  O
  O183     1.0000 0.26947  0.99267  0.50280  Biso   1.000  O
  O184     1.0000 0.34090  0.02110  0.55254  Biso   1.000  O
  Mg22     1.0000 0.99438  0.76299  0.53413  Biso   1.000  Mg
  O185     1.0000 0.96430  0.64320  0.55628  Biso   1.000  O
  O186     1.0000 0.44014  0.22822  0.58758  Biso   1.000  O
  P32      1.0000 0.90189  0.32757  0.86767  Biso   1.000  P
  O187     1.0000 0.80081  0.21037  0.87648  Biso   1.000  O
  O188     1.0000 0.86647  0.41823  0.87246  Biso   1.000  O
  O189     1.0000 0.93614  0.32600  0.83613  Biso   1.000  O
  O190     1.0000 0.00757  0.35443  0.88587  Biso   1.000  O
  Mg23     1.0000 0.66105  0.09632  0.86746  Biso   1.000  Mg
  O191     1.0000 0.63097  0.97653  0.88961  Biso   1.000  O
  O192     1.0000 0.10681  0.56155  0.92091  Biso   1.000  O
  P33      1.0000 0.56855  0.66091  0.20100  Biso   1.000  P
  O193     1.0000 0.46747  0.54371  0.20982  Biso   1.000  O
  O194     1.0000 0.53313  0.75157  0.20580  Biso   1.000  O
  O195     1.0000 0.60280  0.65934  0.16947  Biso   1.000  O
  O196     1.0000 0.67423  0.68777  0.21921  Biso   1.000  O
  Mg24     1.0000 0.32771  0.42966  0.20079  Biso   1.000  Mg
  O197     1.0000 0.29763  0.30987  0.22295  Biso   1.000  O
  O198     1.0000 0.77347  0.89489  0.25425  Biso   1.000  O
  P34      1.0000 0.75902  0.76478  0.53434  Biso   1.000  P
  O199     1.0000 0.74290  0.86586  0.54315  Biso   1.000  O
  O200     1.0000 0.88510  0.80020  0.53913  Biso   1.000  O
  O201     1.0000 0.72320  0.73053  0.50280  Biso   1.000  O
  O202     1.0000 0.68020  0.65910  0.55254  Biso   1.000  O
  O203     1.0000 0.67890  0.03570  0.55628  Biso   1.000  O
  O204     1.0000 0.78808  0.55986  0.58758  Biso   1.000  O
  P35      1.0000 0.42569  0.09811  0.86767  Biso   1.000  P
  O205     1.0000 0.40957  0.19919  0.87648  Biso   1.000  O
  O206     1.0000 0.55177  0.13353  0.87246  Biso   1.000  O
  O207     1.0000 0.38987  0.06386  0.83613  Biso   1.000  O
  O208     1.0000 0.34687  0.99243  0.88587  Biso   1.000  O
  O209     1.0000 0.34557  0.36903  0.88961  Biso   1.000  O
  O210     1.0000 0.45475  0.89319  0.92091  Biso   1.000  O
  P36      1.0000 0.09235  0.43145  0.20100  Biso   1.000  P
  O211     1.0000 0.07623  0.53253  0.20982  Biso   1.000  O
  O212     1.0000 0.21843  0.46687  0.20580  Biso   1.000  O
  O213     1.0000 0.05653  0.39720  0.16947  Biso   1.000  O
  O214     1.0000 0.01353  0.32577  0.21921  Biso   1.000  O
  O215     1.0000 0.01223  0.70237  0.22295  Biso   1.000  O
  O216     1.0000 0.12141  0.22653  0.25425  Biso   1.000  O
  Mg25     1.0000 0.66667  0.09144  0.08333  Biso   1.000  Mg
  Mg26     1.0000 0.90856  0.57522  0.08333  Biso   1.000  Mg
  Mg27     1.0000 0.42478  0.33333  0.08333  Biso   1.000  Mg
  Mg28     1.0000 0.09144  0.66667  0.41667  Biso   1.000  Mg
  Mg29     1.0000 0.75811  0.00000  0.75000  Biso   1.000  Mg
  Mg30     1.0000 0.57522  0.90856  0.41667  Biso   1.000  Mg
  Mg31     1.0000 0.24189  0.24189  0.75000  Biso   1.000  Mg
  Mg32     1.0000 0.33333  0.42478  0.41667  Biso   1.000  Mg
  Mg33     1.0000 0.00000  0.75811  0.75000  Biso   1.000  Mg
  Mg34     1.0000 0.33333  0.90856  0.91667  Biso   1.000  Mg
  Mg35     1.0000 0.00000  0.24189  0.25000  Biso   1.000  Mg
  Mg36     1.0000 0.09144  0.42478  0.91667  Biso   1.000  Mg
  Mg37     1.0000 0.75811  0.75811  0.25000  Biso   1.000  Mg
  Mg38     1.0000 0.57522  0.66667  0.91667  Biso   1.000  Mg
  Mg39     1.0000 0.24189  0.00000  0.25000  Biso   1.000  Mg
  Mg40     1.0000 0.90856  0.33333  0.58333  Biso   1.000  Mg
  Mg41     1.0000 0.42478  0.09144  0.58333  Biso   1.000  Mg
  Mg42     1.0000 0.66667  0.57522  0.58333  Biso   1.000  Mg
  P37      1.0000 0.90601  0.33333  0.08333  Biso   1.000  P
  P38      1.0000 0.66667  0.57267  0.08333  Biso   1.000  P
  P39      1.0000 0.33333  0.90601  0.41667  Biso   1.000  P
  P40      1.0000 0.42733  0.09399  0.08333  Biso   1.000  P
  P41      1.0000 0.76066  0.76066  0.75000  Biso   1.000  P
  P42      1.0000 0.00000  0.23934  0.75000  Biso   1.000  P
  P43      1.0000 0.57267  0.66667  0.41667  Biso   1.000  P
  P44      1.0000 0.23934  0.00000  0.75000  Biso   1.000  P
  P45      1.0000 0.09399  0.42733  0.41667  Biso   1.000  P
  P46      1.0000 0.09399  0.66667  0.91667  Biso   1.000  P
  P47      1.0000 0.76066  0.00000  0.25000  Biso   1.000  P
  P48      1.0000 0.42733  0.33333  0.58333  Biso   1.000  P
  P49      1.0000 0.33333  0.42733  0.91667  Biso   1.000  P
  P50      1.0000 1.00000  0.76066  0.25000  Biso   1.000  P
  P51      1.0000 0.57267  0.90601  0.91667  Biso   1.000  P
  P52      1.0000 0.23934  0.23934  0.25000  Biso   1.000  P
  P53      1.0000 0.66667  0.09399  0.58333  Biso   1.000  P
  P54      1.0000 0.90601  0.57267  0.58333  Biso   1.000  P
