data_image0
_cell_length_a       9.646
_cell_length_b       9.41
_cell_length_c       30.929
_cell_angle_alpha    90
_cell_angle_beta     93.338
_cell_angle_gamma    90

_symmetry_space_group_name_H-M    "P 1"
_symmetry_int_tables_number       1

loop_
  _symmetry_equiv_pos_as_xyz
  'x, y, z'

loop_
  _atom_site_label
  _atom_site_occupancy
  _atom_site_fract_x
  _atom_site_fract_y
  _atom_site_fract_z
  _atom_site_thermal_displace_type
  _atom_site_B_iso_or_equiv
  _atom_site_type_symbol
  Zn1      1.0000 0.03557  0.27106  0.14027  Biso   1.000  Zn
  Zn2      1.0000 0.21463  0.55604  0.03969  Biso   1.000  Zn
  Zn3      1.0000 0.06167  0.80211  0.19345  Biso   1.000  Zn
  P1       1.0000 0.96249  0.11013  0.22080  Biso   1.000  P
  P2       1.0000 0.24892  0.06078  0.18270  Biso   1.000  P
  P3       1.0000 0.92741  0.37431  0.05042  Biso   1.000  P
  P4       1.0000 0.02478  0.59927  0.11450  Biso   1.000  P
  O1       1.0000 0.91100  0.19840  0.18205  Biso   1.000  O
  O2       1.0000 0.93420  0.95110  0.21381  Biso   1.000  O
  O3       1.0000 0.90020  0.16200  0.26185  Biso   1.000  O
  O4       1.0000 0.18060  0.13010  0.14180  Biso   1.000  O
  O5       1.0000 0.39830  0.10360  0.19050  Biso   1.000  O
  O6       1.0000 0.23040  0.89940  0.18157  Biso   1.000  O
  O7       1.0000 0.19140  0.27570  0.22864  Biso   1.000  O
  H1       1.0000 0.14850  0.31820  0.24680  Biso   1.000  H
  O8       1.0000 0.93160  0.25430  0.08325  Biso   1.000  O
  O9       1.0000 0.06960  0.39960  0.03312  Biso   1.000  O
  O10      1.0000 0.81740  0.34330  0.01447  Biso   1.000  O
  O11      1.0000 0.96960  0.71590  0.14241  Biso   1.000  O
  O12      1.0000 0.13390  0.65910  0.08580  Biso   1.000  O
  O13      1.0000 0.07790  0.47240  0.14067  Biso   1.000  O
  O14      1.0000 0.83450  0.64530  0.04797  Biso   1.000  O
  H2       1.0000 0.86540  0.62720  0.02450  Biso   1.000  H
  N1       1.0000 0.53300  0.87840  0.29910  Biso   1.000  N
  H3       1.0000 0.56540  0.79330  0.30000  Biso   1.000  H
  N2       1.0000 0.39180  0.45210  0.05730  Biso   1.000  N
  C1       1.0000 0.15330  0.12840  0.22850  Biso   1.000  C
  C2       1.0000 0.19350  0.05440  0.27230  Biso   1.000  C
  H4       1.0000 0.15440  0.10980  0.29510  Biso   1.000  H
  H5       1.0000 0.14850  0.96220  0.27200  Biso   1.000  H
  C3       1.0000 0.34430  0.03220  0.28450  Biso   1.000  C
  C4       1.0000 0.43270  0.14370  0.29680  Biso   1.000  C
  H6       1.0000 0.39850  0.23620  0.29610  Biso   1.000  H
  C5       1.0000 0.57060  0.12020  0.31000  Biso   1.000  C
  H7       1.0000 0.62910  0.19540  0.31800  Biso   1.000  H
  C6       1.0000 0.61790  0.98440  0.31080  Biso   1.000  C
  H8       1.0000 0.70990  0.96550  0.31960  Biso   1.000  H
  C7       1.0000 0.39970  0.89710  0.28610  Biso   1.000  C
  H9       1.0000 0.34460  0.81930  0.27820  Biso   1.000  H
  C8       1.0000 0.87690  0.53590  0.07880  Biso   1.000  C
  C9       1.0000 0.75390  0.51330  0.10800  Biso   1.000  C
  H10      1.0000 0.78890  0.46070  0.13330  Biso   1.000  H
  H11      1.0000 0.72600  0.60610  0.11800  Biso   1.000  H
  C10      1.0000 0.62350  0.43780  0.09000  Biso   1.000  C
  C11      1.0000 0.60470  0.29740  0.09790  Biso   1.000  C
  H12      1.0000 0.67610  0.24340  0.11110  Biso   1.000  H
  C12      1.0000 0.48020  0.23700  0.08650  Biso   1.000  C
  H13      1.0000 0.46540  0.14170  0.09260  Biso   1.000  H
  C13      1.0000 0.37540  0.31570  0.06580  Biso   1.000  C
  H14      1.0000 0.29150  0.27190  0.05770  Biso   1.000  H
  C14      1.0000 0.51250  0.51220  0.07030  Biso   1.000  C
  H15      1.0000 0.52300  0.60920  0.06590  Biso   1.000  H
  Zn4      1.0000 0.96443  0.77106  0.35973  Biso   1.000  Zn
  Zn5      1.0000 0.78537  0.05604  0.46031  Biso   1.000  Zn
  Zn6      1.0000 0.93833  0.30211  0.30655  Biso   1.000  Zn
  P5       1.0000 0.03751  0.61013  0.27920  Biso   1.000  P
  P6       1.0000 0.75108  0.56078  0.31730  Biso   1.000  P
  P7       1.0000 0.07259  0.87431  0.44958  Biso   1.000  P
  P8       1.0000 0.97522  0.09927  0.38550  Biso   1.000  P
  O15      1.0000 0.08900  0.69840  0.31795  Biso   1.000  O
  O16      1.0000 0.06580  0.45110  0.28619  Biso   1.000  O
  O17      1.0000 0.09980  0.66200  0.23815  Biso   1.000  O
  O18      1.0000 0.81940  0.63010  0.35820  Biso   1.000  O
  O19      1.0000 0.60170  0.60360  0.30950  Biso   1.000  O
  O20      1.0000 0.76960  0.39940  0.31843  Biso   1.000  O
  O21      1.0000 0.80860  0.77570  0.27136  Biso   1.000  O
  H16      1.0000 0.85150  0.81820  0.25320  Biso   1.000  H
  O22      1.0000 0.06840  0.75430  0.41675  Biso   1.000  O
  O23      1.0000 0.93040  0.89960  0.46688  Biso   1.000  O
  O24      1.0000 0.18260  0.84330  0.48553  Biso   1.000  O
  O25      1.0000 0.03040  0.21590  0.35759  Biso   1.000  O
  O26      1.0000 0.86610  0.15910  0.41420  Biso   1.000  O
  O27      1.0000 0.92210  0.97240  0.35933  Biso   1.000  O
  O28      1.0000 0.16550  0.14530  0.45203  Biso   1.000  O
  H17      1.0000 0.13460  0.12720  0.47550  Biso   1.000  H
  N3       1.0000 0.46700  0.37840  0.20090  Biso   1.000  N
  H18      1.0000 0.43460  0.29330  0.20000  Biso   1.000  H
  N4       1.0000 0.60820  0.95210  0.44270  Biso   1.000  N
  C15      1.0000 0.84670  0.62840  0.27150  Biso   1.000  C
  C16      1.0000 0.80650  0.55440  0.22770  Biso   1.000  C
  H19      1.0000 0.84560  0.60980  0.20490  Biso   1.000  H
  H20      1.0000 0.85150  0.46220  0.22800  Biso   1.000  H
  C17      1.0000 0.65570  0.53220  0.21550  Biso   1.000  C
  C18      1.0000 0.56730  0.64370  0.20320  Biso   1.000  C
  H21      1.0000 0.60150  0.73620  0.20390  Biso   1.000  H
  C19      1.0000 0.42940  0.62020  0.19000  Biso   1.000  C
  H22      1.0000 0.37090  0.69540  0.18200  Biso   1.000  H
  C20      1.0000 0.38210  0.48440  0.18920  Biso   1.000  C
  H23      1.0000 0.29010  0.46550  0.18040  Biso   1.000  H
  C21      1.0000 0.60030  0.39710  0.21390  Biso   1.000  C
  H24      1.0000 0.65540  0.31930  0.22180  Biso   1.000  H
  C22      1.0000 0.12310  0.03590  0.42120  Biso   1.000  C
  C23      1.0000 0.24610  0.01330  0.39200  Biso   1.000  C
  H25      1.0000 0.21110  0.96070  0.36670  Biso   1.000  H
  H26      1.0000 0.27400  0.10610  0.38200  Biso   1.000  H
  C24      1.0000 0.37650  0.93780  0.41000  Biso   1.000  C
  C25      1.0000 0.39530  0.79740  0.40210  Biso   1.000  C
  H27      1.0000 0.32390  0.74340  0.38890  Biso   1.000  H
  C26      1.0000 0.51980  0.73700  0.41350  Biso   1.000  C
  H28      1.0000 0.53460  0.64170  0.40740  Biso   1.000  H
  C27      1.0000 0.62460  0.81570  0.43420  Biso   1.000  C
  H29      1.0000 0.70850  0.77190  0.44230  Biso   1.000  H
  C28      1.0000 0.48750  0.01220  0.42970  Biso   1.000  C
  H30      1.0000 0.47700  0.10920  0.43410  Biso   1.000  H
  Zn7      1.0000 0.96443  0.72894  0.85973  Biso   1.000  Zn
  Zn8      1.0000 0.78537  0.44396  0.96031  Biso   1.000  Zn
  Zn9      1.0000 0.93833  0.19789  0.80655  Biso   1.000  Zn
  P9       1.0000 0.03751  0.88987  0.77920  Biso   1.000  P
  P10      1.0000 0.75108  0.93922  0.81730  Biso   1.000  P
  P11      1.0000 0.07259  0.62569  0.94958  Biso   1.000  P
  P12      1.0000 0.97522  0.40073  0.88550  Biso   1.000  P
  O29      1.0000 0.08900  0.80160  0.81795  Biso   1.000  O
  O30      1.0000 0.06580  0.04890  0.78619  Biso   1.000  O
  O31      1.0000 0.09980  0.83800  0.73815  Biso   1.000  O
  O32      1.0000 0.81940  0.86990  0.85820  Biso   1.000  O
  O33      1.0000 0.60170  0.89640  0.80950  Biso   1.000  O
  O34      1.0000 0.76960  0.10060  0.81843  Biso   1.000  O
  O35      1.0000 0.80860  0.72430  0.77136  Biso   1.000  O
  H31      1.0000 0.85150  0.68180  0.75320  Biso   1.000  H
  O36      1.0000 0.06840  0.74570  0.91675  Biso   1.000  O
  O37      1.0000 0.93040  0.60040  0.96688  Biso   1.000  O
  O38      1.0000 0.18260  0.65670  0.98553  Biso   1.000  O
  O39      1.0000 0.03040  0.28410  0.85759  Biso   1.000  O
  O40      1.0000 0.86610  0.34090  0.91420  Biso   1.000  O
  O41      1.0000 0.92210  0.52760  0.85933  Biso   1.000  O
  O42      1.0000 0.16550  0.35470  0.95203  Biso   1.000  O
  H32      1.0000 0.13460  0.37280  0.97550  Biso   1.000  H
  N5       1.0000 0.46700  0.12160  0.70090  Biso   1.000  N
  H33      1.0000 0.43460  0.20670  0.70000  Biso   1.000  H
  N6       1.0000 0.60820  0.54790  0.94270  Biso   1.000  N
  C29      1.0000 0.84670  0.87160  0.77150  Biso   1.000  C
  C30      1.0000 0.80650  0.94560  0.72770  Biso   1.000  C
  H34      1.0000 0.84560  0.89020  0.70490  Biso   1.000  H
  H35      1.0000 0.85150  0.03780  0.72800  Biso   1.000  H
  C31      1.0000 0.65570  0.96780  0.71550  Biso   1.000  C
  C32      1.0000 0.56730  0.85630  0.70320  Biso   1.000  C
  H36      1.0000 0.60150  0.76380  0.70390  Biso   1.000  H
  C33      1.0000 0.42940  0.87980  0.69000  Biso   1.000  C
  H37      1.0000 0.37090  0.80460  0.68200  Biso   1.000  H
  C34      1.0000 0.38210  0.01560  0.68920  Biso   1.000  C
  H38      1.0000 0.29010  0.03450  0.68040  Biso   1.000  H
  C35      1.0000 0.60030  0.10290  0.71390  Biso   1.000  C
  H39      1.0000 0.65540  0.18070  0.72180  Biso   1.000  H
  C36      1.0000 0.12310  0.46410  0.92120  Biso   1.000  C
  C37      1.0000 0.24610  0.48670  0.89200  Biso   1.000  C
  H40      1.0000 0.21110  0.53930  0.86670  Biso   1.000  H
  H41      1.0000 0.27400  0.39390  0.88200  Biso   1.000  H
  C38      1.0000 0.37650  0.56220  0.91000  Biso   1.000  C
  C39      1.0000 0.39530  0.70260  0.90210  Biso   1.000  C
  H42      1.0000 0.32390  0.75660  0.88890  Biso   1.000  H
  C40      1.0000 0.51980  0.76300  0.91350  Biso   1.000  C
  H43      1.0000 0.53460  0.85830  0.90740  Biso   1.000  H
  C41      1.0000 0.62460  0.68430  0.93420  Biso   1.000  C
  H44      1.0000 0.70850  0.72810  0.94230  Biso   1.000  H
  C42      1.0000 0.48750  0.48780  0.92970  Biso   1.000  C
  H45      1.0000 0.47700  0.39080  0.93410  Biso   1.000  H
  Zn10     1.0000 0.03557  0.22894  0.64027  Biso   1.000  Zn
  Zn11     1.0000 0.21463  0.94396  0.53969  Biso   1.000  Zn
  Zn12     1.0000 0.06167  0.69789  0.69345  Biso   1.000  Zn
  P13      1.0000 0.96249  0.38987  0.72080  Biso   1.000  P
  P14      1.0000 0.24892  0.43922  0.68270  Biso   1.000  P
  P15      1.0000 0.92741  0.12569  0.55042  Biso   1.000  P
  P16      1.0000 0.02478  0.90073  0.61450  Biso   1.000  P
  O43      1.0000 0.91100  0.30160  0.68205  Biso   1.000  O
  O44      1.0000 0.93420  0.54890  0.71381  Biso   1.000  O
  O45      1.0000 0.90020  0.33800  0.76185  Biso   1.000  O
  O46      1.0000 0.18060  0.36990  0.64180  Biso   1.000  O
  O47      1.0000 0.39830  0.39640  0.69050  Biso   1.000  O
  O48      1.0000 0.23040  0.60060  0.68157  Biso   1.000  O
  O49      1.0000 0.19140  0.22430  0.72864  Biso   1.000  O
  H46      1.0000 0.14850  0.18180  0.74680  Biso   1.000  H
  O50      1.0000 0.93160  0.24570  0.58325  Biso   1.000  O
  O51      1.0000 0.06960  0.10040  0.53312  Biso   1.000  O
  O52      1.0000 0.81740  0.15670  0.51447  Biso   1.000  O
  O53      1.0000 0.96960  0.78410  0.64241  Biso   1.000  O
  O54      1.0000 0.13390  0.84090  0.58580  Biso   1.000  O
  O55      1.0000 0.07790  0.02760  0.64067  Biso   1.000  O
  O56      1.0000 0.83450  0.85470  0.54797  Biso   1.000  O
  H47      1.0000 0.86540  0.87280  0.52450  Biso   1.000  H
  N7       1.0000 0.53300  0.62160  0.79910  Biso   1.000  N
  H48      1.0000 0.56540  0.70670  0.80000  Biso   1.000  H
  N8       1.0000 0.39180  0.04790  0.55730  Biso   1.000  N
  C43      1.0000 0.15330  0.37160  0.72850  Biso   1.000  C
  C44      1.0000 0.19350  0.44560  0.77230  Biso   1.000  C
  H49      1.0000 0.15440  0.39020  0.79510  Biso   1.000  H
  H50      1.0000 0.14850  0.53780  0.77200  Biso   1.000  H
  C45      1.0000 0.34430  0.46780  0.78450  Biso   1.000  C
  C46      1.0000 0.43270  0.35630  0.79680  Biso   1.000  C
  H51      1.0000 0.39850  0.26380  0.79610  Biso   1.000  H
  C47      1.0000 0.57060  0.37980  0.81000  Biso   1.000  C
  H52      1.0000 0.62910  0.30460  0.81800  Biso   1.000  H
  C48      1.0000 0.61790  0.51560  0.81080  Biso   1.000  C
  H53      1.0000 0.70990  0.53450  0.81960  Biso   1.000  H
  C49      1.0000 0.39970  0.60290  0.78610  Biso   1.000  C
  H54      1.0000 0.34460  0.68070  0.77820  Biso   1.000  H
  C50      1.0000 0.87690  0.96410  0.57880  Biso   1.000  C
  C51      1.0000 0.75390  0.98670  0.60800  Biso   1.000  C
  H55      1.0000 0.78890  0.03930  0.63330  Biso   1.000  H
  H56      1.0000 0.72600  0.89390  0.61800  Biso   1.000  H
  C52      1.0000 0.62350  0.06220  0.59000  Biso   1.000  C
  C53      1.0000 0.60470  0.20260  0.59790  Biso   1.000  C
  H57      1.0000 0.67610  0.25660  0.61110  Biso   1.000  H
  C54      1.0000 0.48020  0.26300  0.58650  Biso   1.000  C
  H58      1.0000 0.46540  0.35830  0.59260  Biso   1.000  H
  C55      1.0000 0.37540  0.18430  0.56580  Biso   1.000  C
  H59      1.0000 0.29150  0.22810  0.55770  Biso   1.000  H
  C56      1.0000 0.51250  0.98780  0.57030  Biso   1.000  C
  H60      1.0000 0.52300  0.89080  0.56590  Biso   1.000  H
