data_image0
_cell_length_a       22.2913
_cell_length_b       16.1324
_cell_length_c       17.39
_cell_angle_alpha    90
_cell_angle_beta     90
_cell_angle_gamma    90

_symmetry_space_group_name_H-M    "P 1"
_symmetry_int_tables_number       1

loop_
  _symmetry_equiv_pos_as_xyz
  'x, y, z'

loop_
  _atom_site_label
  _atom_site_occupancy
  _atom_site_fract_x
  _atom_site_fract_y
  _atom_site_fract_z
  _atom_site_thermal_displace_type
  _atom_site_B_iso_or_equiv
  _atom_site_type_symbol
  Zn1      1.0000 0.04337  0.03394  0.44149  Biso   1.000  Zn
  Zn2      1.0000 0.19649  0.53647  0.49191  Biso   1.000  Zn
  O1       1.0000 0.08724  0.12779  0.48121  Biso   1.000  O
  O2       1.0000 0.00861  0.20079  0.44220  Biso   1.000  O
  O3       1.0000 0.08136  0.48796  0.44650  Biso   1.000  O
  O4       1.0000 0.15592  0.43233  0.51119  Biso   1.000  O
  O5       1.0000 0.06496  0.22580  0.64435  Biso   1.000  O
  O6       1.0000 0.15736  0.18650  0.67212  Biso   1.000  O
  O7       1.0000 0.08242  0.92740  0.45724  Biso   1.000  O
  O8       1.0000 0.16470  0.96330  0.39500  Biso   1.000  O
  O9       1.0000 0.12689  0.66183  0.57595  Biso   1.000  O
  O10      1.0000 0.17626  0.64925  0.46528  Biso   1.000  O
  O11      1.0000 0.19500  0.78180  0.30117  Biso   1.000  O
  O12      1.0000 0.29153  0.80450  0.32364  Biso   1.000  O
  N1       1.0000 0.25734  0.53910  0.58070  Biso   1.000  N
  N2       1.0000 0.44904  0.56040  0.73620  Biso   1.000  N
  H1       1.0000 0.44420  0.60550  0.71000  Biso   1.000  H
  N3       1.0000 0.57545  0.52150  0.72710  Biso   1.000  N
  N4       1.0000 0.75572  0.49050  0.89470  Biso   1.000  N
  N5       1.0000 0.97684  0.01080  0.52080  Biso   1.000  N
  N6       1.0000 0.78950  0.99610  0.67730  Biso   1.000  N
  N7       1.0000 0.66183  0.98200  0.65770  Biso   1.000  N
  H2       1.0000 0.66110  0.92780  0.66300  Biso   1.000  H
  N8       1.0000 0.48876  0.03090  0.83340  Biso   1.000  N
  C1       1.0000 0.27567  0.60980  0.61310  Biso   1.000  C
  H3       1.0000 0.25970  0.66080  0.59490  Biso   1.000  H
  C2       1.0000 0.31708  0.61150  0.67230  Biso   1.000  C
  H4       1.0000 0.32840  0.66280  0.69470  Biso   1.000  H
  C3       1.0000 0.34182  0.53870  0.69860  Biso   1.000  C
  C4       1.0000 0.32280  0.46460  0.66510  Biso   1.000  C
  H5       1.0000 0.33870  0.41290  0.68160  Biso   1.000  H
  C5       1.0000 0.28055  0.46830  0.60790  Biso   1.000  C
  H6       1.0000 0.26690  0.41760  0.58630  Biso   1.000  H
  C6       1.0000 0.38622  0.53910  0.76380  Biso   1.000  C
  H7       1.0000 0.38670  0.48380  0.78850  Biso   1.000  H
  H8       1.0000 0.37350  0.58010  0.80280  Biso   1.000  H
  C7       1.0000 0.49011  0.56540  0.80470  Biso   1.000  C
  H9       1.0000 0.48960  0.51190  0.83260  Biso   1.000  H
  H10      1.0000 0.47570  0.60900  0.84030  Biso   1.000  H
  C8       1.0000 0.55356  0.58500  0.77940  Biso   1.000  C
  H11      1.0000 0.55430  0.63960  0.75340  Biso   1.000  H
  H12      1.0000 0.58010  0.58800  0.82500  Biso   1.000  H
  C9       1.0000 0.53705  0.51960  0.65820  Biso   1.000  C
  H13      1.0000 0.55250  0.47770  0.62170  Biso   1.000  H
  H14      1.0000 0.53830  0.57430  0.63250  Biso   1.000  H
  C10      1.0000 0.47278  0.49890  0.67960  Biso   1.000  C
  H15      1.0000 0.44750  0.49930  0.63270  Biso   1.000  H
  H16      1.0000 0.47110  0.44260  0.70210  Biso   1.000  H
  C11      1.0000 0.63827  0.53750  0.70370  Biso   1.000  C
  H17      1.0000 0.64220  0.59550  0.68590  Biso   1.000  H
  H18      1.0000 0.64910  0.50050  0.66040  Biso   1.000  H
  C12      1.0000 0.73426  0.42910  0.85030  Biso   1.000  C
  H19      1.0000 0.74520  0.37370  0.86240  Biso   1.000  H
  C13      1.0000 0.69718  0.44270  0.78820  Biso   1.000  C
  H20      1.0000 0.68330  0.39730  0.75840  Biso   1.000  H
  C14      1.0000 0.68024  0.52270  0.76950  Biso   1.000  C
  C15      1.0000 0.70380  0.58660  0.81400  Biso   1.000  C
  H21      1.0000 0.69440  0.64260  0.80230  Biso   1.000  H
  C16      1.0000 0.74084  0.56820  0.87530  Biso   1.000  C
  H22      1.0000 0.75650  0.61260  0.90510  Biso   1.000  H
  C17      1.0000 0.95630  0.93360  0.53260  Biso   1.000  C
  H23      1.0000 0.97030  0.89010  0.50050  Biso   1.000  H
  C18      1.0000 0.91573  0.91540  0.58950  Biso   1.000  C
  H24      1.0000 0.90250  0.85990  0.59630  Biso   1.000  H
  C19      1.0000 0.89407  0.97690  0.63700  Biso   1.000  C
  C20      1.0000 0.91518  0.05680  0.62460  Biso   1.000  C
  H25      1.0000 0.90150  0.10130  0.65580  Biso   1.000  H
  C21      1.0000 0.95579  0.07090  0.56700  Biso   1.000  C
  H26      1.0000 0.96980  0.12590  0.55940  Biso   1.000  H
  C22      1.0000 0.84797  0.96080  0.69860  Biso   1.000  C
  H27      1.0000 0.84380  0.90040  0.70650  Biso   1.000  H
  H28      1.0000 0.86160  0.98580  0.74760  Biso   1.000  H
  C23      1.0000 0.74858  0.98860  0.74320  Biso   1.000  C
  H29      1.0000 0.76620  0.01680  0.78840  Biso   1.000  H
  H30      1.0000 0.74310  0.92940  0.75620  Biso   1.000  H
  C24      1.0000 0.68833  0.02700  0.72460  Biso   1.000  C
  H31      1.0000 0.66130  0.02260  0.76960  Biso   1.000  H
  H32      1.0000 0.69340  0.08640  0.71190  Biso   1.000  H
  C25      1.0000 0.70373  0.98680  0.58990  Biso   1.000  C
  H33      1.0000 0.70840  0.04530  0.57390  Biso   1.000  H
  H34      1.0000 0.68660  0.95540  0.54620  Biso   1.000  H
  C26      1.0000 0.76407  0.95140  0.61080  Biso   1.000  C
  H35      1.0000 0.75980  0.89190  0.62360  Biso   1.000  H
  H36      1.0000 0.79160  0.95620  0.56630  Biso   1.000  H
  C27      1.0000 0.60079  0.01210  0.63390  Biso   1.000  C
  H37      1.0000 0.58400  0.97380  0.59490  Biso   1.000  H
  H38      1.0000 0.60450  0.06750  0.60990  Biso   1.000  H
  C28      1.0000 0.50251  0.09830  0.79160  Biso   1.000  C
  H39      1.0000 0.48780  0.15070  0.80780  Biso   1.000  H
  C29      1.0000 0.53721  0.09400  0.72610  Biso   1.000  C
  H40      1.0000 0.54660  0.14280  0.69800  Biso   1.000  H
  C30      1.0000 0.55825  0.01720  0.70190  Biso   1.000  C
  C31      1.0000 0.54072  0.94720  0.74180  Biso   1.000  C
  H41      1.0000 0.55200  0.89360  0.72440  Biso   1.000  H
  C32      1.0000 0.50689  0.95650  0.80670  Biso   1.000  C
  H42      1.0000 0.49560  0.90820  0.83450  Biso   1.000  H
  C33      1.0000 0.05851  0.19650  0.47090  Biso   1.000  C
  C34      1.0000 0.09293  0.27360  0.49650  Biso   1.000  C
  C35      1.0000 0.07698  0.34470  0.46680  Biso   1.000  C
  H43      1.0000 0.04240  0.34350  0.43490  Biso   1.000  H
  C36      1.0000 0.10610  0.42810  0.47620  Biso   1.000  C
  C37      1.0000 0.14222  0.25730  0.55430  Biso   1.000  C
  H44      1.0000 0.17170  0.21850  0.53160  Biso   1.000  H
  H45      1.0000 0.16330  0.31000  0.56550  Biso   1.000  H
  C38      1.0000 0.11880  0.22150  0.62810  Biso   1.000  C
  C39      1.0000 0.13475  0.91280  0.43280  Biso   1.000  C
  C40      1.0000 0.16134  0.82910  0.45220  Biso   1.000  C
  C41      1.0000 0.12702  0.77540  0.48880  Biso   1.000  C
  H46      1.0000 0.08750  0.79280  0.50120  Biso   1.000  H
  C42      1.0000 0.14437  0.68980  0.51260  Biso   1.000  C
  C43      1.0000 0.22588  0.81590  0.43050  Biso   1.000  C
  H47      1.0000 0.24160  0.76850  0.46050  Biso   1.000  H
  H48      1.0000 0.24900  0.86560  0.44580  Biso   1.000  H
  C44      1.0000 0.23738  0.79930  0.34510  Biso   1.000  C
  Zn3      1.0000 0.95663  0.96606  0.94149  Biso   1.000  Zn
  Zn4      1.0000 0.80351  0.46353  0.99191  Biso   1.000  Zn
  O13      1.0000 0.91276  0.87221  0.98121  Biso   1.000  O
  O14      1.0000 0.99139  0.79921  0.94220  Biso   1.000  O
  O15      1.0000 0.91864  0.51204  0.94650  Biso   1.000  O
  O16      1.0000 0.84408  0.56767  0.01119  Biso   1.000  O
  O17      1.0000 0.93504  0.77420  0.14435  Biso   1.000  O
  O18      1.0000 0.84264  0.81350  0.17212  Biso   1.000  O
  O19      1.0000 0.91758  0.07260  0.95724  Biso   1.000  O
  O20      1.0000 0.83530  0.03670  0.89500  Biso   1.000  O
  O21      1.0000 0.87311  0.33817  0.07595  Biso   1.000  O
  O22      1.0000 0.82374  0.35075  0.96528  Biso   1.000  O
  O23      1.0000 0.80500  0.21820  0.80117  Biso   1.000  O
  O24      1.0000 0.70847  0.19550  0.82364  Biso   1.000  O
  N9       1.0000 0.74266  0.46090  0.08070  Biso   1.000  N
  N10      1.0000 0.55096  0.43960  0.23620  Biso   1.000  N
  H49      1.0000 0.55580  0.39450  0.21000  Biso   1.000  H
  N11      1.0000 0.42455  0.47850  0.22710  Biso   1.000  N
  N12      1.0000 0.24428  0.50950  0.39470  Biso   1.000  N
  N13      1.0000 0.02316  0.98920  0.02080  Biso   1.000  N
  N14      1.0000 0.21050  0.00390  0.17730  Biso   1.000  N
  N15      1.0000 0.33817  0.01800  0.15770  Biso   1.000  N
  H50      1.0000 0.33890  0.07220  0.16300  Biso   1.000  H
  N16      1.0000 0.51124  0.96910  0.33340  Biso   1.000  N
  C45      1.0000 0.72433  0.39020  0.11310  Biso   1.000  C
  H51      1.0000 0.74030  0.33920  0.09490  Biso   1.000  H
  C46      1.0000 0.68292  0.38850  0.17230  Biso   1.000  C
  H52      1.0000 0.67160  0.33720  0.19470  Biso   1.000  H
  C47      1.0000 0.65818  0.46130  0.19860  Biso   1.000  C
  C48      1.0000 0.67720  0.53540  0.16510  Biso   1.000  C
  H53      1.0000 0.66130  0.58710  0.18160  Biso   1.000  H
  C49      1.0000 0.71945  0.53170  0.10790  Biso   1.000  C
  H54      1.0000 0.73310  0.58240  0.08630  Biso   1.000  H
  C50      1.0000 0.61378  0.46090  0.26380  Biso   1.000  C
  H55      1.0000 0.61330  0.51620  0.28850  Biso   1.000  H
  H56      1.0000 0.62650  0.41990  0.30280  Biso   1.000  H
  C51      1.0000 0.50989  0.43460  0.30470  Biso   1.000  C
  H57      1.0000 0.51040  0.48810  0.33260  Biso   1.000  H
  H58      1.0000 0.52430  0.39100  0.34030  Biso   1.000  H
  C52      1.0000 0.44644  0.41500  0.27940  Biso   1.000  C
  H59      1.0000 0.44570  0.36040  0.25340  Biso   1.000  H
  H60      1.0000 0.41990  0.41200  0.32500  Biso   1.000  H
  C53      1.0000 0.46295  0.48040  0.15820  Biso   1.000  C
  H61      1.0000 0.44750  0.52230  0.12170  Biso   1.000  H
  H62      1.0000 0.46170  0.42570  0.13250  Biso   1.000  H
  C54      1.0000 0.52722  0.50110  0.17960  Biso   1.000  C
  H63      1.0000 0.55250  0.50070  0.13270  Biso   1.000  H
  H64      1.0000 0.52890  0.55740  0.20210  Biso   1.000  H
  C55      1.0000 0.36173  0.46250  0.20370  Biso   1.000  C
  H65      1.0000 0.35780  0.40450  0.18590  Biso   1.000  H
  H66      1.0000 0.35090  0.49950  0.16040  Biso   1.000  H
  C56      1.0000 0.26574  0.57090  0.35030  Biso   1.000  C
  H67      1.0000 0.25480  0.62630  0.36240  Biso   1.000  H
  C57      1.0000 0.30282  0.55730  0.28820  Biso   1.000  C
  H68      1.0000 0.31670  0.60270  0.25840  Biso   1.000  H
  C58      1.0000 0.31976  0.47730  0.26950  Biso   1.000  C
  C59      1.0000 0.29620  0.41340  0.31400  Biso   1.000  C
  H69      1.0000 0.30560  0.35740  0.30230  Biso   1.000  H
  C60      1.0000 0.25916  0.43180  0.37530  Biso   1.000  C
  H70      1.0000 0.24350  0.38740  0.40510  Biso   1.000  H
  C61      1.0000 0.04370  0.06640  0.03260  Biso   1.000  C
  H71      1.0000 0.02970  0.10990  0.00050  Biso   1.000  H
  C62      1.0000 0.08427  0.08460  0.08950  Biso   1.000  C
  H72      1.0000 0.09750  0.14010  0.09630  Biso   1.000  H
  C63      1.0000 0.10593  0.02310  0.13700  Biso   1.000  C
  C64      1.0000 0.08482  0.94320  0.12460  Biso   1.000  C
  H73      1.0000 0.09850  0.89870  0.15580  Biso   1.000  H
  C65      1.0000 0.04421  0.92910  0.06700  Biso   1.000  C
  H74      1.0000 0.03020  0.87410  0.05940  Biso   1.000  H
  C66      1.0000 0.15203  0.03920  0.19860  Biso   1.000  C
  H75      1.0000 0.15620  0.09960  0.20650  Biso   1.000  H
  H76      1.0000 0.13840  0.01420  0.24760  Biso   1.000  H
  C67      1.0000 0.25142  0.01140  0.24320  Biso   1.000  C
  H77      1.0000 0.23380  0.98320  0.28840  Biso   1.000  H
  H78      1.0000 0.25690  0.07060  0.25620  Biso   1.000  H
  C68      1.0000 0.31167  0.97300  0.22460  Biso   1.000  C
  H79      1.0000 0.33870  0.97740  0.26960  Biso   1.000  H
  H80      1.0000 0.30660  0.91360  0.21190  Biso   1.000  H
  C69      1.0000 0.29627  0.01320  0.08990  Biso   1.000  C
  H81      1.0000 0.29160  0.95470  0.07390  Biso   1.000  H
  H82      1.0000 0.31340  0.04460  0.04620  Biso   1.000  H
  C70      1.0000 0.23593  0.04860  0.11080  Biso   1.000  C
  H83      1.0000 0.24020  0.10810  0.12360  Biso   1.000  H
  H84      1.0000 0.20840  0.04380  0.06630  Biso   1.000  H
  C71      1.0000 0.39921  0.98790  0.13390  Biso   1.000  C
  H85      1.0000 0.41600  0.02620  0.09490  Biso   1.000  H
  H86      1.0000 0.39550  0.93250  0.10990  Biso   1.000  H
  C72      1.0000 0.49749  0.90170  0.29160  Biso   1.000  C
  H87      1.0000 0.51220  0.84930  0.30780  Biso   1.000  H
  C73      1.0000 0.46279  0.90600  0.22610  Biso   1.000  C
  H88      1.0000 0.45340  0.85720  0.19800  Biso   1.000  H
  C74      1.0000 0.44175  0.98280  0.20190  Biso   1.000  C
  C75      1.0000 0.45928  0.05280  0.24180  Biso   1.000  C
  H89      1.0000 0.44800  0.10640  0.22440  Biso   1.000  H
  C76      1.0000 0.49311  0.04350  0.30670  Biso   1.000  C
  H90      1.0000 0.50440  0.09180  0.33450  Biso   1.000  H
  C77      1.0000 0.94149  0.80350  0.97090  Biso   1.000  C
  C78      1.0000 0.90707  0.72640  0.99650  Biso   1.000  C
  C79      1.0000 0.92302  0.65530  0.96680  Biso   1.000  C
  H91      1.0000 0.95760  0.65650  0.93490  Biso   1.000  H
  C80      1.0000 0.89390  0.57190  0.97620  Biso   1.000  C
  C81      1.0000 0.85778  0.74270  0.05430  Biso   1.000  C
  H92      1.0000 0.82830  0.78150  0.03160  Biso   1.000  H
  H93      1.0000 0.83670  0.69000  0.06550  Biso   1.000  H
  C82      1.0000 0.88120  0.77850  0.12810  Biso   1.000  C
  C83      1.0000 0.86525  0.08720  0.93280  Biso   1.000  C
  C84      1.0000 0.83866  0.17090  0.95220  Biso   1.000  C
  C85      1.0000 0.87298  0.22460  0.98880  Biso   1.000  C
  H94      1.0000 0.91250  0.20720  0.00120  Biso   1.000  H
  C86      1.0000 0.85563  0.31020  0.01260  Biso   1.000  C
  C87      1.0000 0.77412  0.18410  0.93050  Biso   1.000  C
  H95      1.0000 0.75840  0.23150  0.96050  Biso   1.000  H
  H96      1.0000 0.75100  0.13440  0.94580  Biso   1.000  H
  C88      1.0000 0.76262  0.20070  0.84510  Biso   1.000  C
  Zn5      1.0000 0.54337  0.96606  0.44149  Biso   1.000  Zn
  Zn6      1.0000 0.69649  0.46353  0.49191  Biso   1.000  Zn
  O25      1.0000 0.58724  0.87221  0.48121  Biso   1.000  O
  O26      1.0000 0.50861  0.79921  0.44220  Biso   1.000  O
  O27      1.0000 0.58136  0.51204  0.44650  Biso   1.000  O
  O28      1.0000 0.65592  0.56767  0.51119  Biso   1.000  O
  O29      1.0000 0.56496  0.77420  0.64435  Biso   1.000  O
  O30      1.0000 0.65736  0.81350  0.67212  Biso   1.000  O
  O31      1.0000 0.58242  0.07260  0.45724  Biso   1.000  O
  O32      1.0000 0.66470  0.03670  0.39500  Biso   1.000  O
  O33      1.0000 0.62689  0.33817  0.57595  Biso   1.000  O
  O34      1.0000 0.67626  0.35075  0.46528  Biso   1.000  O
  O35      1.0000 0.69500  0.21820  0.30117  Biso   1.000  O
  O36      1.0000 0.79153  0.19550  0.32364  Biso   1.000  O
  N17      1.0000 0.75734  0.46090  0.58070  Biso   1.000  N
  N18      1.0000 0.94904  0.43960  0.73620  Biso   1.000  N
  H97      1.0000 0.94420  0.39450  0.71000  Biso   1.000  H
  N19      1.0000 0.07545  0.47850  0.72710  Biso   1.000  N
  N20      1.0000 0.25572  0.50950  0.89470  Biso   1.000  N
  N21      1.0000 0.47684  0.98920  0.52080  Biso   1.000  N
  N22      1.0000 0.28950  0.00390  0.67730  Biso   1.000  N
  N23      1.0000 0.16183  0.01800  0.65770  Biso   1.000  N
  H98      1.0000 0.16110  0.07220  0.66300  Biso   1.000  H
  N24      1.0000 0.98876  0.96910  0.83340  Biso   1.000  N
  C89      1.0000 0.77567  0.39020  0.61310  Biso   1.000  C
  H99      1.0000 0.75970  0.33920  0.59490  Biso   1.000  H
  C90      1.0000 0.81708  0.38850  0.67230  Biso   1.000  C
  H100     1.0000 0.82840  0.33720  0.69470  Biso   1.000  H
  C91      1.0000 0.84182  0.46130  0.69860  Biso   1.000  C
  C92      1.0000 0.82280  0.53540  0.66510  Biso   1.000  C
  H101     1.0000 0.83870  0.58710  0.68160  Biso   1.000  H
  C93      1.0000 0.78055  0.53170  0.60790  Biso   1.000  C
  H102     1.0000 0.76690  0.58240  0.58630  Biso   1.000  H
  C94      1.0000 0.88622  0.46090  0.76380  Biso   1.000  C
  H103     1.0000 0.88670  0.51620  0.78850  Biso   1.000  H
  H104     1.0000 0.87350  0.41990  0.80280  Biso   1.000  H
  C95      1.0000 0.99011  0.43460  0.80470  Biso   1.000  C
  H105     1.0000 0.98960  0.48810  0.83260  Biso   1.000  H
  H106     1.0000 0.97570  0.39100  0.84030  Biso   1.000  H
  C96      1.0000 0.05356  0.41500  0.77940  Biso   1.000  C
  H107     1.0000 0.05430  0.36040  0.75340  Biso   1.000  H
  H108     1.0000 0.08010  0.41200  0.82500  Biso   1.000  H
  C97      1.0000 0.03705  0.48040  0.65820  Biso   1.000  C
  H109     1.0000 0.05250  0.52230  0.62170  Biso   1.000  H
  H110     1.0000 0.03830  0.42570  0.63250  Biso   1.000  H
  C98      1.0000 0.97278  0.50110  0.67960  Biso   1.000  C
  H111     1.0000 0.94750  0.50070  0.63270  Biso   1.000  H
  H112     1.0000 0.97110  0.55740  0.70210  Biso   1.000  H
  C99      1.0000 0.13827  0.46250  0.70370  Biso   1.000  C
  H113     1.0000 0.14220  0.40450  0.68590  Biso   1.000  H
  H114     1.0000 0.14910  0.49950  0.66040  Biso   1.000  H
  C100     1.0000 0.23426  0.57090  0.85030  Biso   1.000  C
  H115     1.0000 0.24520  0.62630  0.86240  Biso   1.000  H
  C101     1.0000 0.19718  0.55730  0.78820  Biso   1.000  C
  H116     1.0000 0.18330  0.60270  0.75840  Biso   1.000  H
  C102     1.0000 0.18024  0.47730  0.76950  Biso   1.000  C
  C103     1.0000 0.20380  0.41340  0.81400  Biso   1.000  C
  H117     1.0000 0.19440  0.35740  0.80230  Biso   1.000  H
  C104     1.0000 0.24084  0.43180  0.87530  Biso   1.000  C
  H118     1.0000 0.25650  0.38740  0.90510  Biso   1.000  H
  C105     1.0000 0.45630  0.06640  0.53260  Biso   1.000  C
  H119     1.0000 0.47030  0.10990  0.50050  Biso   1.000  H
  C106     1.0000 0.41573  0.08460  0.58950  Biso   1.000  C
  H120     1.0000 0.40250  0.14010  0.59630  Biso   1.000  H
  C107     1.0000 0.39407  0.02310  0.63700  Biso   1.000  C
  C108     1.0000 0.41518  0.94320  0.62460  Biso   1.000  C
  H121     1.0000 0.40150  0.89870  0.65580  Biso   1.000  H
  C109     1.0000 0.45579  0.92910  0.56700  Biso   1.000  C
  H122     1.0000 0.46980  0.87410  0.55940  Biso   1.000  H
  C110     1.0000 0.34797  0.03920  0.69860  Biso   1.000  C
  H123     1.0000 0.34380  0.09960  0.70650  Biso   1.000  H
  H124     1.0000 0.36160  0.01420  0.74760  Biso   1.000  H
  C111     1.0000 0.24858  0.01140  0.74320  Biso   1.000  C
  H125     1.0000 0.26620  0.98320  0.78840  Biso   1.000  H
  H126     1.0000 0.24310  0.07060  0.75620  Biso   1.000  H
  C112     1.0000 0.18833  0.97300  0.72460  Biso   1.000  C
  H127     1.0000 0.16130  0.97740  0.76960  Biso   1.000  H
  H128     1.0000 0.19340  0.91360  0.71190  Biso   1.000  H
  C113     1.0000 0.20373  0.01320  0.58990  Biso   1.000  C
  H129     1.0000 0.20840  0.95470  0.57390  Biso   1.000  H
  H130     1.0000 0.18660  0.04460  0.54620  Biso   1.000  H
  C114     1.0000 0.26407  0.04860  0.61080  Biso   1.000  C
  H131     1.0000 0.25980  0.10810  0.62360  Biso   1.000  H
  H132     1.0000 0.29160  0.04380  0.56630  Biso   1.000  H
  C115     1.0000 0.10079  0.98790  0.63390  Biso   1.000  C
  H133     1.0000 0.08400  0.02620  0.59490  Biso   1.000  H
  H134     1.0000 0.10450  0.93250  0.60990  Biso   1.000  H
  C116     1.0000 0.00251  0.90170  0.79160  Biso   1.000  C
  H135     1.0000 0.98780  0.84930  0.80780  Biso   1.000  H
  C117     1.0000 0.03721  0.90600  0.72610  Biso   1.000  C
  H136     1.0000 0.04660  0.85720  0.69800  Biso   1.000  H
  C118     1.0000 0.05825  0.98280  0.70190  Biso   1.000  C
  C119     1.0000 0.04072  0.05280  0.74180  Biso   1.000  C
  H137     1.0000 0.05200  0.10640  0.72440  Biso   1.000  H
  C120     1.0000 0.00689  0.04350  0.80670  Biso   1.000  C
  H138     1.0000 0.99560  0.09180  0.83450  Biso   1.000  H
  C121     1.0000 0.55851  0.80350  0.47090  Biso   1.000  C
  C122     1.0000 0.59293  0.72640  0.49650  Biso   1.000  C
  C123     1.0000 0.57698  0.65530  0.46680  Biso   1.000  C
  H139     1.0000 0.54240  0.65650  0.43490  Biso   1.000  H
  C124     1.0000 0.60610  0.57190  0.47620  Biso   1.000  C
  C125     1.0000 0.64222  0.74270  0.55430  Biso   1.000  C
  H140     1.0000 0.67170  0.78150  0.53160  Biso   1.000  H
  H141     1.0000 0.66330  0.69000  0.56550  Biso   1.000  H
  C126     1.0000 0.61880  0.77850  0.62810  Biso   1.000  C
  C127     1.0000 0.63475  0.08720  0.43280  Biso   1.000  C
  C128     1.0000 0.66134  0.17090  0.45220  Biso   1.000  C
  C129     1.0000 0.62702  0.22460  0.48880  Biso   1.000  C
  H142     1.0000 0.58750  0.20720  0.50120  Biso   1.000  H
  C130     1.0000 0.64437  0.31020  0.51260  Biso   1.000  C
  C131     1.0000 0.72588  0.18410  0.43050  Biso   1.000  C
  H143     1.0000 0.74160  0.23150  0.46050  Biso   1.000  H
  H144     1.0000 0.74900  0.13440  0.44580  Biso   1.000  H
  C132     1.0000 0.73738  0.20070  0.34510  Biso   1.000  C
  Zn7      1.0000 0.45663  0.03394  0.94149  Biso   1.000  Zn
  Zn8      1.0000 0.30351  0.53647  0.99191  Biso   1.000  Zn
  O37      1.0000 0.41276  0.12779  0.98121  Biso   1.000  O
  O38      1.0000 0.49139  0.20079  0.94220  Biso   1.000  O
  O39      1.0000 0.41864  0.48796  0.94650  Biso   1.000  O
  O40      1.0000 0.34408  0.43233  0.01119  Biso   1.000  O
  O41      1.0000 0.43504  0.22580  0.14435  Biso   1.000  O
  O42      1.0000 0.34264  0.18650  0.17212  Biso   1.000  O
  O43      1.0000 0.41758  0.92740  0.95724  Biso   1.000  O
  O44      1.0000 0.33530  0.96330  0.89500  Biso   1.000  O
  O45      1.0000 0.37311  0.66183  0.07595  Biso   1.000  O
  O46      1.0000 0.32374  0.64925  0.96528  Biso   1.000  O
  O47      1.0000 0.30500  0.78180  0.80117  Biso   1.000  O
  O48      1.0000 0.20847  0.80450  0.82364  Biso   1.000  O
  N25      1.0000 0.24266  0.53910  0.08070  Biso   1.000  N
  N26      1.0000 0.05096  0.56040  0.23620  Biso   1.000  N
  H145     1.0000 0.05580  0.60550  0.21000  Biso   1.000  H
  N27      1.0000 0.92455  0.52150  0.22710  Biso   1.000  N
  N28      1.0000 0.74428  0.49050  0.39470  Biso   1.000  N
  N29      1.0000 0.52316  0.01080  0.02080  Biso   1.000  N
  N30      1.0000 0.71050  0.99610  0.17730  Biso   1.000  N
  N31      1.0000 0.83817  0.98200  0.15770  Biso   1.000  N
  H146     1.0000 0.83890  0.92780  0.16300  Biso   1.000  H
  N32      1.0000 0.01124  0.03090  0.33340  Biso   1.000  N
  C133     1.0000 0.22433  0.60980  0.11310  Biso   1.000  C
  H147     1.0000 0.24030  0.66080  0.09490  Biso   1.000  H
  C134     1.0000 0.18292  0.61150  0.17230  Biso   1.000  C
  H148     1.0000 0.17160  0.66280  0.19470  Biso   1.000  H
  C135     1.0000 0.15818  0.53870  0.19860  Biso   1.000  C
  C136     1.0000 0.17720  0.46460  0.16510  Biso   1.000  C
  H149     1.0000 0.16130  0.41290  0.18160  Biso   1.000  H
  C137     1.0000 0.21945  0.46830  0.10790  Biso   1.000  C
  H150     1.0000 0.23310  0.41760  0.08630  Biso   1.000  H
  C138     1.0000 0.11378  0.53910  0.26380  Biso   1.000  C
  H151     1.0000 0.11330  0.48380  0.28850  Biso   1.000  H
  H152     1.0000 0.12650  0.58010  0.30280  Biso   1.000  H
  C139     1.0000 0.00989  0.56540  0.30470  Biso   1.000  C
  H153     1.0000 0.01040  0.51190  0.33260  Biso   1.000  H
  H154     1.0000 0.02430  0.60900  0.34030  Biso   1.000  H
  C140     1.0000 0.94644  0.58500  0.27940  Biso   1.000  C
  H155     1.0000 0.94570  0.63960  0.25340  Biso   1.000  H
  H156     1.0000 0.91990  0.58800  0.32500  Biso   1.000  H
  C141     1.0000 0.96295  0.51960  0.15820  Biso   1.000  C
  H157     1.0000 0.94750  0.47770  0.12170  Biso   1.000  H
  H158     1.0000 0.96170  0.57430  0.13250  Biso   1.000  H
  C142     1.0000 0.02722  0.49890  0.17960  Biso   1.000  C
  H159     1.0000 0.05250  0.49930  0.13270  Biso   1.000  H
  H160     1.0000 0.02890  0.44260  0.20210  Biso   1.000  H
  C143     1.0000 0.86173  0.53750  0.20370  Biso   1.000  C
  H161     1.0000 0.85780  0.59550  0.18590  Biso   1.000  H
  H162     1.0000 0.85090  0.50050  0.16040  Biso   1.000  H
  C144     1.0000 0.76574  0.42910  0.35030  Biso   1.000  C
  H163     1.0000 0.75480  0.37370  0.36240  Biso   1.000  H
  C145     1.0000 0.80282  0.44270  0.28820  Biso   1.000  C
  H164     1.0000 0.81670  0.39730  0.25840  Biso   1.000  H
  C146     1.0000 0.81976  0.52270  0.26950  Biso   1.000  C
  C147     1.0000 0.79620  0.58660  0.31400  Biso   1.000  C
  H165     1.0000 0.80560  0.64260  0.30230  Biso   1.000  H
  C148     1.0000 0.75916  0.56820  0.37530  Biso   1.000  C
  H166     1.0000 0.74350  0.61260  0.40510  Biso   1.000  H
  C149     1.0000 0.54370  0.93360  0.03260  Biso   1.000  C
  H167     1.0000 0.52970  0.89010  0.00050  Biso   1.000  H
  C150     1.0000 0.58427  0.91540  0.08950  Biso   1.000  C
  H168     1.0000 0.59750  0.85990  0.09630  Biso   1.000  H
  C151     1.0000 0.60593  0.97690  0.13700  Biso   1.000  C
  C152     1.0000 0.58482  0.05680  0.12460  Biso   1.000  C
  H169     1.0000 0.59850  0.10130  0.15580  Biso   1.000  H
  C153     1.0000 0.54421  0.07090  0.06700  Biso   1.000  C
  H170     1.0000 0.53020  0.12590  0.05940  Biso   1.000  H
  C154     1.0000 0.65203  0.96080  0.19860  Biso   1.000  C
  H171     1.0000 0.65620  0.90040  0.20650  Biso   1.000  H
  H172     1.0000 0.63840  0.98580  0.24760  Biso   1.000  H
  C155     1.0000 0.75142  0.98860  0.24320  Biso   1.000  C
  H173     1.0000 0.73380  0.01680  0.28840  Biso   1.000  H
  H174     1.0000 0.75690  0.92940  0.25620  Biso   1.000  H
  C156     1.0000 0.81167  0.02700  0.22460  Biso   1.000  C
  H175     1.0000 0.83870  0.02260  0.26960  Biso   1.000  H
  H176     1.0000 0.80660  0.08640  0.21190  Biso   1.000  H
  C157     1.0000 0.79627  0.98680  0.08990  Biso   1.000  C
  H177     1.0000 0.79160  0.04530  0.07390  Biso   1.000  H
  H178     1.0000 0.81340  0.95540  0.04620  Biso   1.000  H
  C158     1.0000 0.73593  0.95140  0.11080  Biso   1.000  C
  H179     1.0000 0.74020  0.89190  0.12360  Biso   1.000  H
  H180     1.0000 0.70840  0.95620  0.06630  Biso   1.000  H
  C159     1.0000 0.89921  0.01210  0.13390  Biso   1.000  C
  H181     1.0000 0.91600  0.97380  0.09490  Biso   1.000  H
  H182     1.0000 0.89550  0.06750  0.10990  Biso   1.000  H
  C160     1.0000 0.99749  0.09830  0.29160  Biso   1.000  C
  H183     1.0000 0.01220  0.15070  0.30780  Biso   1.000  H
  C161     1.0000 0.96279  0.09400  0.22610  Biso   1.000  C
  H184     1.0000 0.95340  0.14280  0.19800  Biso   1.000  H
  C162     1.0000 0.94175  0.01720  0.20190  Biso   1.000  C
  C163     1.0000 0.95928  0.94720  0.24180  Biso   1.000  C
  H185     1.0000 0.94800  0.89360  0.22440  Biso   1.000  H
  C164     1.0000 0.99311  0.95650  0.30670  Biso   1.000  C
  H186     1.0000 0.00440  0.90820  0.33450  Biso   1.000  H
  C165     1.0000 0.44149  0.19650  0.97090  Biso   1.000  C
  C166     1.0000 0.40707  0.27360  0.99650  Biso   1.000  C
  C167     1.0000 0.42302  0.34470  0.96680  Biso   1.000  C
  H187     1.0000 0.45760  0.34350  0.93490  Biso   1.000  H
  C168     1.0000 0.39390  0.42810  0.97620  Biso   1.000  C
  C169     1.0000 0.35778  0.25730  0.05430  Biso   1.000  C
  H188     1.0000 0.32830  0.21850  0.03160  Biso   1.000  H
  H189     1.0000 0.33670  0.31000  0.06550  Biso   1.000  H
  C170     1.0000 0.38120  0.22150  0.12810  Biso   1.000  C
  C171     1.0000 0.36525  0.91280  0.93280  Biso   1.000  C
  C172     1.0000 0.33866  0.82910  0.95220  Biso   1.000  C
  C173     1.0000 0.37298  0.77540  0.98880  Biso   1.000  C
  H190     1.0000 0.41250  0.79280  0.00120  Biso   1.000  H
  C174     1.0000 0.35563  0.68980  0.01260  Biso   1.000  C
  C175     1.0000 0.27412  0.81590  0.93050  Biso   1.000  C
  H191     1.0000 0.25840  0.76850  0.96050  Biso   1.000  H
  H192     1.0000 0.25100  0.86560  0.94580  Biso   1.000  H
  C176     1.0000 0.26262  0.79930  0.84510  Biso   1.000  C
