data_image0
_cell_length_a       12.4176
_cell_length_b       22.5346
_cell_length_c       10.1644
_cell_angle_alpha    90
_cell_angle_beta     107.054
_cell_angle_gamma    90

_symmetry_space_group_name_H-M    "P 1"
_symmetry_int_tables_number       1

loop_
  _symmetry_equiv_pos_as_xyz
  'x, y, z'

loop_
  _atom_site_label
  _atom_site_occupancy
  _atom_site_fract_x
  _atom_site_fract_y
  _atom_site_fract_z
  _atom_site_thermal_displace_type
  _atom_site_B_iso_or_equiv
  _atom_site_type_symbol
  C1       1.0000 0.15780  0.64303  0.88400  Biso   1.000  C
  C2       1.0000 0.11610  0.70667  0.85900  Biso   1.000  C
  H1       1.0000 0.16100  0.72760  0.80730  Biso   1.000  H
  H2       1.0000 0.03680  0.70620  0.80050  Biso   1.000  H
  C3       1.0000 0.03990  0.74712  0.04150  Biso   1.000  C
  H3       1.0000 0.96630  0.73090  0.00800  Biso   1.000  H
  C4       1.0000 0.21690  0.77000  0.06380  Biso   1.000  C
  H4       1.0000 0.28840  0.77210  0.04760  Biso   1.000  H
  C5       1.0000 0.18770  0.79530  0.16830  Biso   1.000  C
  H5       1.0000 0.23480  0.81910  0.23940  Biso   1.000  H
  C6       1.0000 0.01120  0.79910  0.24410  Biso   1.000  C
  H6       1.0000 0.06010  0.79740  0.34050  Biso   1.000  H
  H7       1.0000 0.94920  0.77040  0.23510  Biso   1.000  H
  C7       1.0000 0.96130  0.86091  0.21610  Biso   1.000  C
  C8       1.0000 0.54980  0.48951  0.88410  Biso   1.000  C
  C9       1.0000 0.65920  0.49700  0.84590  Biso   1.000  C
  H8       1.0000 0.65470  0.47300  0.76270  Biso   1.000  H
  H9       1.0000 0.66730  0.53910  0.82280  Biso   1.000  H
  C10      1.0000 0.80900  0.42393  0.97460  Biso   1.000  C
  H10      1.0000 0.78670  0.39040  0.91630  Biso   1.000  H
  C11      1.0000 0.89570  0.42639  0.09160  Biso   1.000  C
  H11      1.0000 0.94690  0.39530  0.13020  Biso   1.000  H
  C12      1.0000 0.81200  0.51405  0.06030  Biso   1.000  C
  H12      1.0000 0.79350  0.55420  0.07260  Biso   1.000  H
  C13      1.0000 0.98300  0.50770  0.26030  Biso   1.000  C
  H13      1.0000 0.99540  0.48130  0.34110  Biso   1.000  H
  H14      1.0000 0.95900  0.54700  0.28500  Biso   1.000  H
  C14      1.0000 0.09210  0.51418  0.22180  Biso   1.000  C
  N1       1.0000 0.12270  0.74027  0.98450  Biso   1.000  N
  N2       1.0000 0.07730  0.78048  0.15320  Biso   1.000  N
  N3       1.0000 0.75900  0.47900  0.95580  Biso   1.000  N
  N4       1.0000 0.89530  0.48298  0.14430  Biso   1.000  N
  O1       1.0000 0.91210  0.87796  0.30160  Biso   1.000  O
  O2       1.0000 0.35590  0.54702  0.99350  Biso   1.000  O
  H15      1.0000 0.38400  0.57950  0.02800  Biso   1.000  H
  O3       1.0000 0.27580  0.54084  0.60110  Biso   1.000  O
  H16      1.0000 0.22500  0.56540  0.56400  Biso   1.000  H
  O4       1.0000 0.17280  0.62125  0.00250  Biso   1.000  O
  O5       1.0000 0.16820  0.61713  0.78040  Biso   1.000  O
  O6       1.0000 0.97230  0.88844  0.11350  Biso   1.000  O
  O7       1.0000 0.55780  0.48169  0.00960  Biso   1.000  O
  O8       1.0000 0.46120  0.49278  0.78690  Biso   1.000  O
  O9       1.0000 0.08120  0.52689  0.09790  Biso   1.000  O
  O10      1.0000 0.18350  0.50755  0.31380  Biso   1.000  O
  Cu1      1.0000 0.42268  0.46962  0.06485  Biso   1.000  Cu
  Cu2      1.0000 0.31085  0.55299  0.79600  Biso   1.000  Cu
  Cu3      1.0000 0.21609  0.53871  0.04069  Biso   1.000  Cu
  C15      1.0000 0.65780  0.14303  0.88400  Biso   1.000  C
  C16      1.0000 0.61610  0.20667  0.85900  Biso   1.000  C
  H17      1.0000 0.66100  0.22760  0.80730  Biso   1.000  H
  H18      1.0000 0.53680  0.20620  0.80050  Biso   1.000  H
  C17      1.0000 0.53990  0.24712  0.04150  Biso   1.000  C
  H19      1.0000 0.46630  0.23090  0.00800  Biso   1.000  H
  C18      1.0000 0.71690  0.27000  0.06380  Biso   1.000  C
  H20      1.0000 0.78840  0.27210  0.04760  Biso   1.000  H
  C19      1.0000 0.68770  0.29530  0.16830  Biso   1.000  C
  H21      1.0000 0.73480  0.31910  0.23940  Biso   1.000  H
  C20      1.0000 0.51120  0.29910  0.24410  Biso   1.000  C
  H22      1.0000 0.56010  0.29740  0.34050  Biso   1.000  H
  H23      1.0000 0.44920  0.27040  0.23510  Biso   1.000  H
  C21      1.0000 0.46130  0.36091  0.21610  Biso   1.000  C
  C22      1.0000 0.04980  0.98951  0.88410  Biso   1.000  C
  C23      1.0000 0.15920  0.99700  0.84590  Biso   1.000  C
  H24      1.0000 0.15470  0.97300  0.76270  Biso   1.000  H
  H25      1.0000 0.16730  0.03910  0.82280  Biso   1.000  H
  C24      1.0000 0.30900  0.92393  0.97460  Biso   1.000  C
  H26      1.0000 0.28670  0.89040  0.91630  Biso   1.000  H
  C25      1.0000 0.39570  0.92639  0.09160  Biso   1.000  C
  H27      1.0000 0.44690  0.89530  0.13020  Biso   1.000  H
  C26      1.0000 0.31200  0.01405  0.06030  Biso   1.000  C
  H28      1.0000 0.29350  0.05420  0.07260  Biso   1.000  H
  C27      1.0000 0.48300  0.00770  0.26030  Biso   1.000  C
  H29      1.0000 0.49540  0.98130  0.34110  Biso   1.000  H
  H30      1.0000 0.45900  0.04700  0.28500  Biso   1.000  H
  C28      1.0000 0.59210  0.01418  0.22180  Biso   1.000  C
  N5       1.0000 0.62270  0.24027  0.98450  Biso   1.000  N
  N6       1.0000 0.57730  0.28048  0.15320  Biso   1.000  N
  N7       1.0000 0.25900  0.97900  0.95580  Biso   1.000  N
  N8       1.0000 0.39530  0.98298  0.14430  Biso   1.000  N
  O11      1.0000 0.41210  0.37796  0.30160  Biso   1.000  O
  O12      1.0000 0.85590  0.04702  0.99350  Biso   1.000  O
  H31      1.0000 0.88400  0.07950  0.02800  Biso   1.000  H
  O13      1.0000 0.77580  0.04084  0.60110  Biso   1.000  O
  H32      1.0000 0.72500  0.06540  0.56400  Biso   1.000  H
  O14      1.0000 0.67280  0.12125  0.00250  Biso   1.000  O
  O15      1.0000 0.66820  0.11713  0.78040  Biso   1.000  O
  O16      1.0000 0.47230  0.38844  0.11350  Biso   1.000  O
  O17      1.0000 0.05780  0.98169  0.00960  Biso   1.000  O
  O18      1.0000 0.96120  0.99278  0.78690  Biso   1.000  O
  O19      1.0000 0.58120  0.02689  0.09790  Biso   1.000  O
  O20      1.0000 0.68350  0.00755  0.31380  Biso   1.000  O
  Cu4      1.0000 0.92268  0.96962  0.06485  Biso   1.000  Cu
  Cu5      1.0000 0.81085  0.05299  0.79600  Biso   1.000  Cu
  Cu6      1.0000 0.71609  0.03871  0.04069  Biso   1.000  Cu
  C29      1.0000 0.15780  0.35697  0.38400  Biso   1.000  C
  C30      1.0000 0.11610  0.29333  0.35900  Biso   1.000  C
  H33      1.0000 0.16100  0.27240  0.30730  Biso   1.000  H
  H34      1.0000 0.03680  0.29380  0.30050  Biso   1.000  H
  C31      1.0000 0.03990  0.25288  0.54150  Biso   1.000  C
  H35      1.0000 0.96630  0.26910  0.50800  Biso   1.000  H
  C32      1.0000 0.21690  0.23000  0.56380  Biso   1.000  C
  H36      1.0000 0.28840  0.22790  0.54760  Biso   1.000  H
  C33      1.0000 0.18770  0.20470  0.66830  Biso   1.000  C
  H37      1.0000 0.23480  0.18090  0.73940  Biso   1.000  H
  C34      1.0000 0.01120  0.20090  0.74410  Biso   1.000  C
  H38      1.0000 0.06010  0.20260  0.84050  Biso   1.000  H
  H39      1.0000 0.94920  0.22960  0.73510  Biso   1.000  H
  C35      1.0000 0.96130  0.13909  0.71610  Biso   1.000  C
  C36      1.0000 0.54980  0.51049  0.38410  Biso   1.000  C
  C37      1.0000 0.65920  0.50300  0.34590  Biso   1.000  C
  H40      1.0000 0.65470  0.52700  0.26270  Biso   1.000  H
  H41      1.0000 0.66730  0.46090  0.32280  Biso   1.000  H
  C38      1.0000 0.80900  0.57607  0.47460  Biso   1.000  C
  H42      1.0000 0.78670  0.60960  0.41630  Biso   1.000  H
  C39      1.0000 0.89570  0.57361  0.59160  Biso   1.000  C
  H43      1.0000 0.94690  0.60470  0.63020  Biso   1.000  H
  C40      1.0000 0.81200  0.48595  0.56030  Biso   1.000  C
  H44      1.0000 0.79350  0.44580  0.57260  Biso   1.000  H
  C41      1.0000 0.98300  0.49230  0.76030  Biso   1.000  C
  H45      1.0000 0.99540  0.51870  0.84110  Biso   1.000  H
  H46      1.0000 0.95900  0.45300  0.78500  Biso   1.000  H
  C42      1.0000 0.09210  0.48582  0.72180  Biso   1.000  C
  N9       1.0000 0.12270  0.25973  0.48450  Biso   1.000  N
  N10      1.0000 0.07730  0.21952  0.65320  Biso   1.000  N
  N11      1.0000 0.75900  0.52100  0.45580  Biso   1.000  N
  N12      1.0000 0.89530  0.51702  0.64430  Biso   1.000  N
  O21      1.0000 0.91210  0.12204  0.80160  Biso   1.000  O
  O22      1.0000 0.35590  0.45298  0.49350  Biso   1.000  O
  H47      1.0000 0.38400  0.42050  0.52800  Biso   1.000  H
  O23      1.0000 0.27580  0.45916  0.10110  Biso   1.000  O
  H48      1.0000 0.22500  0.43460  0.06400  Biso   1.000  H
  O24      1.0000 0.17280  0.37875  0.50250  Biso   1.000  O
  O25      1.0000 0.16820  0.38287  0.28040  Biso   1.000  O
  O26      1.0000 0.97230  0.11156  0.61350  Biso   1.000  O
  O27      1.0000 0.55780  0.51831  0.50960  Biso   1.000  O
  O28      1.0000 0.46120  0.50722  0.28690  Biso   1.000  O
  O29      1.0000 0.08120  0.47311  0.59790  Biso   1.000  O
  O30      1.0000 0.18350  0.49245  0.81380  Biso   1.000  O
  Cu7      1.0000 0.42268  0.53038  0.56485  Biso   1.000  Cu
  Cu8      1.0000 0.31085  0.44701  0.29600  Biso   1.000  Cu
  Cu9      1.0000 0.21609  0.46129  0.54069  Biso   1.000  Cu
  C43      1.0000 0.65780  0.85697  0.38400  Biso   1.000  C
  C44      1.0000 0.61610  0.79333  0.35900  Biso   1.000  C
  H49      1.0000 0.66100  0.77240  0.30730  Biso   1.000  H
  H50      1.0000 0.53680  0.79380  0.30050  Biso   1.000  H
  C45      1.0000 0.53990  0.75288  0.54150  Biso   1.000  C
  H51      1.0000 0.46630  0.76910  0.50800  Biso   1.000  H
  C46      1.0000 0.71690  0.73000  0.56380  Biso   1.000  C
  H52      1.0000 0.78840  0.72790  0.54760  Biso   1.000  H
  C47      1.0000 0.68770  0.70470  0.66830  Biso   1.000  C
  H53      1.0000 0.73480  0.68090  0.73940  Biso   1.000  H
  C48      1.0000 0.51120  0.70090  0.74410  Biso   1.000  C
  H54      1.0000 0.56010  0.70260  0.84050  Biso   1.000  H
  H55      1.0000 0.44920  0.72960  0.73510  Biso   1.000  H
  C49      1.0000 0.46130  0.63909  0.71610  Biso   1.000  C
  C50      1.0000 0.04980  0.01049  0.38410  Biso   1.000  C
  C51      1.0000 0.15920  0.00300  0.34590  Biso   1.000  C
  H56      1.0000 0.15470  0.02700  0.26270  Biso   1.000  H
  H57      1.0000 0.16730  0.96090  0.32280  Biso   1.000  H
  C52      1.0000 0.30900  0.07607  0.47460  Biso   1.000  C
  H58      1.0000 0.28670  0.10960  0.41630  Biso   1.000  H
  C53      1.0000 0.39570  0.07361  0.59160  Biso   1.000  C
  H59      1.0000 0.44690  0.10470  0.63020  Biso   1.000  H
  C54      1.0000 0.31200  0.98595  0.56030  Biso   1.000  C
  H60      1.0000 0.29350  0.94580  0.57260  Biso   1.000  H
  C55      1.0000 0.48300  0.99230  0.76030  Biso   1.000  C
  H61      1.0000 0.49540  0.01870  0.84110  Biso   1.000  H
  H62      1.0000 0.45900  0.95300  0.78500  Biso   1.000  H
  C56      1.0000 0.59210  0.98582  0.72180  Biso   1.000  C
  N13      1.0000 0.62270  0.75973  0.48450  Biso   1.000  N
  N14      1.0000 0.57730  0.71952  0.65320  Biso   1.000  N
  N15      1.0000 0.25900  0.02100  0.45580  Biso   1.000  N
  N16      1.0000 0.39530  0.01702  0.64430  Biso   1.000  N
  O31      1.0000 0.41210  0.62204  0.80160  Biso   1.000  O
  O32      1.0000 0.85590  0.95298  0.49350  Biso   1.000  O
  H63      1.0000 0.88400  0.92050  0.52800  Biso   1.000  H
  O33      1.0000 0.77580  0.95916  0.10110  Biso   1.000  O
  H64      1.0000 0.72500  0.93460  0.06400  Biso   1.000  H
  O34      1.0000 0.67280  0.87875  0.50250  Biso   1.000  O
  O35      1.0000 0.66820  0.88287  0.28040  Biso   1.000  O
  O36      1.0000 0.47230  0.61156  0.61350  Biso   1.000  O
  O37      1.0000 0.05780  0.01831  0.50960  Biso   1.000  O
  O38      1.0000 0.96120  0.00722  0.28690  Biso   1.000  O
  O39      1.0000 0.58120  0.97311  0.59790  Biso   1.000  O
  O40      1.0000 0.68350  0.99245  0.81380  Biso   1.000  O
  Cu10     1.0000 0.92268  0.03038  0.56485  Biso   1.000  Cu
  Cu11     1.0000 0.81085  0.94701  0.29600  Biso   1.000  Cu
  Cu12     1.0000 0.71609  0.96129  0.54069  Biso   1.000  Cu
