data_TIKXER_clean
_audit_creation_date              2014-07-02
_audit_creation_method            'Materials Studio'
_symmetry_space_group_name_H-M    'P1'
_symmetry_Int_Tables_number       1
_symmetry_cell_setting            triclinic
loop_
_symmetry_equiv_pos_as_xyz
  x,y,z
_cell_length_a                    9.2030
_cell_length_b                    11.5997
_cell_length_c                    17.0630
_cell_angle_alpha                 104.6010
_cell_angle_beta                  90.0000
_cell_angle_gamma                 113.3710
loop_
_atom_site_label
_atom_site_type_symbol
_atom_site_fract_x
_atom_site_fract_y
_atom_site_fract_z
_atom_site_U_iso_or_equiv
_atom_site_adp_type
_atom_site_occupancy
Eu1    Eu    0.82791   0.02615   0.57317   0.01267  Uiso   1.00
Eu2    Eu    0.80176   0.97385   0.92683   0.01267  Uiso   1.00
Eu3    Eu    0.17209   0.97385   0.42683   0.01267  Uiso   1.00
Eu4    Eu    0.19824   0.02615   0.07317   0.01267  Uiso   1.00
Cu1    Cu    0.59057   0.32504   0.63067   0.01267  Uiso   1.00
Cu2    Cu    0.26553   0.67496   0.86933   0.01267  Uiso   1.00
Cu3    Cu    0.40943   0.67496   0.36933   0.01267  Uiso   1.00
Cu4    Cu    0.73447   0.32504   0.13067   0.01267  Uiso   1.00
H1     H     0.00700   0.30040   0.19320   0.01267  Uiso   1.00
H2     H     0.58650   0.22460   0.26400   0.01267  Uiso   1.00
H3     H     0.63700   0.12860   0.35670   0.01267  Uiso   1.00
H4     H     0.06540   0.19760   0.27990   0.01267  Uiso   1.00
H5     H     0.41760   0.43940   0.37600   0.01267  Uiso   1.00
H6     H     0.22060   0.64660   0.50950   0.01267  Uiso   1.00
H7     H     0.31340   0.27920   0.44080   0.01267  Uiso   1.00
H8     H     0.10910   0.49040   0.57790   0.01267  Uiso   1.00
H9     H     0.70660   0.69960   0.30680   0.01267  Uiso   1.00
H10    H     0.36190   0.77540   0.23600   0.01267  Uiso   1.00
H11    H     0.50840   0.87140   0.14330   0.01267  Uiso   1.00
H12    H     0.86780   0.80240   0.22010   0.01267  Uiso   1.00
H13    H     0.97820   0.56060   0.12400   0.01267  Uiso   1.00
H14    H     0.57400   0.35340   0.99050   0.01267  Uiso   1.00
H15    H     0.03420   0.72080   0.05920   0.01267  Uiso   1.00
H16    H     0.61870   0.50960   0.92210   0.01267  Uiso   1.00
H17    H     0.99300   0.69960   0.80680   0.01267  Uiso   1.00
H18    H     0.41350   0.77540   0.73600   0.01267  Uiso   1.00
H19    H     0.36300   0.87140   0.64330   0.01267  Uiso   1.00
H20    H     0.93460   0.80240   0.72010   0.01267  Uiso   1.00
H21    H     0.58240   0.56060   0.62400   0.01267  Uiso   1.00
H22    H     0.77940   0.35340   0.49050   0.01267  Uiso   1.00
H23    H     0.68660   0.72080   0.55920   0.01267  Uiso   1.00
H24    H     0.89090   0.50960   0.42210   0.01267  Uiso   1.00
H25    H     0.29340   0.30040   0.69320   0.01267  Uiso   1.00
H26    H     0.63810   0.22460   0.76400   0.01267  Uiso   1.00
H27    H     0.49160   0.12860   0.85670   0.01267  Uiso   1.00
H28    H     0.13220   0.19760   0.77990   0.01267  Uiso   1.00
H29    H     0.02180   0.43940   0.87600   0.01267  Uiso   1.00
H30    H     0.42600   0.64660   0.00950   0.01267  Uiso   1.00
H31    H     0.96580   0.27920   0.94080   0.01267  Uiso   1.00
H32    H     0.38130   0.49040   0.07790   0.01267  Uiso   1.00
C1     C     0.85519   0.14758   0.32614   0.01267  Uiso   1.00
C2     C     0.71893   0.92566   0.73196   0.01267  Uiso   1.00
C3     C     0.10512   0.25004   0.54920   0.01267  Uiso   1.00
C4     C     0.92970   0.26200   0.22490   0.01267  Uiso   1.00
C5     C     0.68400   0.21860   0.26710   0.01267  Uiso   1.00
C6     C     0.19333   0.36406   0.51450   0.01267  Uiso   1.00
C7     C     0.71260   0.15960   0.32240   0.01267  Uiso   1.00
C8     C     0.51965   0.07170   0.52318   0.01267  Uiso   1.00
C9     C     0.88844   0.07708   0.38226   0.01267  Uiso   1.00
C10    C     0.96658   0.20156   0.27750   0.01267  Uiso   1.00
C11    C     0.35230   0.44920   0.41640   0.01267  Uiso   1.00
C12    C     0.23710   0.57020   0.49430   0.01267  Uiso   1.00
C13    C     0.28992   0.35224   0.45500   0.01267  Uiso   1.00
C14    C     0.16980   0.47680   0.53590   0.01267  Uiso   1.00
C15    C     0.70761   0.85242   0.17386   0.01267  Uiso   1.00
C16    C     0.79327   0.07434   0.76804   0.01267  Uiso   1.00
C17    C     0.85508   0.74996   0.95080   0.01267  Uiso   1.00
C18    C     0.66770   0.73800   0.27510   0.01267  Uiso   1.00
C19    C     0.46540   0.78140   0.23290   0.01267  Uiso   1.00
C20    C     0.82927   0.63594   0.98550   0.01267  Uiso   1.00
C21    C     0.55300   0.84040   0.17760   0.01267  Uiso   1.00
C22    C     0.44795   0.92830   0.97682   0.01267  Uiso   1.00
C23    C     0.81136   0.92292   0.11774   0.01267  Uiso   1.00
C24    C     0.76502   0.79844   0.22250   0.01267  Uiso   1.00
C25    C     0.90310   0.55080   0.08360   0.01267  Uiso   1.00
C26    C     0.66690   0.42980   0.00570   0.01267  Uiso   1.00
C27    C     0.93768   0.64776   0.04500   0.01267  Uiso   1.00
C28    C     0.69300   0.52320   0.96410   0.01267  Uiso   1.00
C29    C     0.14481   0.85242   0.67386   0.01267  Uiso   1.00
C30    C     0.28107   0.07434   0.26804   0.01267  Uiso   1.00
C31    C     0.89488   0.74996   0.45080   0.01267  Uiso   1.00
C32    C     0.07030   0.73800   0.77510   0.01267  Uiso   1.00
C33    C     0.31600   0.78140   0.73290   0.01267  Uiso   1.00
C34    C     0.80667   0.63594   0.48550   0.01267  Uiso   1.00
C35    C     0.28740   0.84040   0.67760   0.01267  Uiso   1.00
C36    C     0.48035   0.92830   0.47682   0.01267  Uiso   1.00
C37    C     0.11156   0.92292   0.61774   0.01267  Uiso   1.00
C38    C     0.03342   0.79844   0.72250   0.01267  Uiso   1.00
C39    C     0.64770   0.55080   0.58360   0.01267  Uiso   1.00
C40    C     0.76290   0.42980   0.50570   0.01267  Uiso   1.00
C41    C     0.71008   0.64776   0.54500   0.01267  Uiso   1.00
C42    C     0.83020   0.52320   0.46410   0.01267  Uiso   1.00
C43    C     0.29239   0.14758   0.82614   0.01267  Uiso   1.00
C44    C     0.20673   0.92566   0.23196   0.01267  Uiso   1.00
C45    C     0.14492   0.25004   0.04920   0.01267  Uiso   1.00
C46    C     0.33230   0.26200   0.72490   0.01267  Uiso   1.00
C47    C     0.53460   0.21860   0.76710   0.01267  Uiso   1.00
C48    C     0.17073   0.36406   0.01450   0.01267  Uiso   1.00
C49    C     0.44700   0.15960   0.82240   0.01267  Uiso   1.00
C50    C     0.55205   0.07170   0.02318   0.01267  Uiso   1.00
C51    C     0.18864   0.07708   0.88226   0.01267  Uiso   1.00
C52    C     0.23498   0.20156   0.77750   0.01267  Uiso   1.00
C53    C     0.09690   0.44920   0.91640   0.01267  Uiso   1.00
C54    C     0.33310   0.57020   0.99430   0.01267  Uiso   1.00
C55    C     0.06232   0.35224   0.95500   0.01267  Uiso   1.00
C56    C     0.30700   0.47680   0.03590   0.01267  Uiso   1.00
N1     N     0.78966   0.26772   0.21760   0.01267  Uiso   1.00
N2     N     0.32400   0.55560   0.43380   0.01267  Uiso   1.00
N3     N     0.52194   0.73228   0.28240   0.01267  Uiso   1.00
N4     N     0.76840   0.44440   0.06620   0.01267  Uiso   1.00
N5     N     0.21034   0.73228   0.78240   0.01267  Uiso   1.00
N6     N     0.67600   0.44440   0.56620   0.01267  Uiso   1.00
N7     N     0.47806   0.26772   0.71760   0.01267  Uiso   1.00
N8     N     0.23160   0.55560   0.93380   0.01267  Uiso   1.00
O1     O     0.63733   0.12706   0.57714   0.01267  Uiso   1.00
O2     O     0.67769   0.88438   0.65675   0.01267  Uiso   1.00
O3     O     0.81468   0.07336   0.44378   0.01267  Uiso   1.00
O4     O     0.12593   0.14646   0.52466   0.01267  Uiso   1.00
O5     O     0.43287   0.12194   0.50409   0.01267  Uiso   1.00
O6     O     0.99001   0.03062   0.36318   0.01267  Uiso   1.00
O7     O     0.70236   0.85872   0.78148   0.01267  Uiso   1.00
O8     O     0.00673   0.26066   0.59778   0.01267  Uiso   1.00
O9     O     0.51027   0.87294   0.92286   0.01267  Uiso   1.00
O10    O     0.79331   0.11562   0.84325   0.01267  Uiso   1.00
O11    O     0.74132   0.92664   0.05622   0.01267  Uiso   1.00
O12    O     0.97947   0.85354   0.97534   0.01267  Uiso   1.00
O13    O     0.31093   0.87806   0.99591   0.01267  Uiso   1.00
O14    O     0.95939   0.96938   0.13682   0.01267  Uiso   1.00
O15    O     0.84364   0.14128   0.71852   0.01267  Uiso   1.00
O16    O     0.74607   0.73934   0.90222   0.01267  Uiso   1.00
O17    O     0.36267   0.87294   0.42286   0.01267  Uiso   1.00
O18    O     0.32231   0.11562   0.34325   0.01267  Uiso   1.00
O19    O     0.18532   0.92664   0.55622   0.01267  Uiso   1.00
O20    O     0.87407   0.85354   0.47534   0.01267  Uiso   1.00
O21    O     0.56713   0.87806   0.49591   0.01267  Uiso   1.00
O22    O     0.00999   0.96938   0.63682   0.01267  Uiso   1.00
O23    O     0.29764   0.14128   0.21852   0.01267  Uiso   1.00
O24    O     0.99327   0.73934   0.40222   0.01267  Uiso   1.00
O25    O     0.48973   0.12706   0.07714   0.01267  Uiso   1.00
O26    O     0.20669   0.88438   0.15675   0.01267  Uiso   1.00
O27    O     0.25868   0.07336   0.94378   0.01267  Uiso   1.00
O28    O     0.02053   0.14646   0.02466   0.01267  Uiso   1.00
O29    O     0.68907   0.12194   0.00409   0.01267  Uiso   1.00
O30    O     0.04061   0.03062   0.86318   0.01267  Uiso   1.00
O31    O     0.15636   0.85872   0.28148   0.01267  Uiso   1.00
O32    O     0.25393   0.26066   0.09778   0.01267  Uiso   1.00
