data_image0
_cell_length_a       28.365
_cell_length_b       28.365
_cell_length_c       13.361
_cell_angle_alpha    90
_cell_angle_beta     90
_cell_angle_gamma    90

_symmetry_space_group_name_H-M    "P 1"
_symmetry_int_tables_number       1

loop_
  _symmetry_equiv_pos_as_xyz
  'x, y, z'

loop_
  _atom_site_label
  _atom_site_occupancy
  _atom_site_fract_x
  _atom_site_fract_y
  _atom_site_fract_z
  _atom_site_thermal_displace_type
  _atom_site_B_iso_or_equiv
  _atom_site_type_symbol
  Co1      1.0000 0.85817  0.99361  0.59478  Biso   1.000  Co
  Co2      1.0000 0.81324  0.09566  0.61692  Biso   1.000  Co
  O1       1.0000 0.82215  0.04168  0.50680  Biso   1.000  O
  O2       1.0000 0.83615  0.00791  0.35950  Biso   1.000  O
  O3       1.0000 0.69729  0.05263  0.11030  Biso   1.000  O
  O4       1.0000 0.71495  0.07556  0.95540  Biso   1.000  O
  C1       1.0000 0.81859  0.04029  0.41160  Biso   1.000  C
  C2       1.0000 0.79200  0.07924  0.36070  Biso   1.000  C
  H1       1.0000 0.80890  0.10930  0.37240  Biso   1.000  H
  H2       1.0000 0.76050  0.08200  0.39220  Biso   1.000  H
  C3       1.0000 0.78557  0.07268  0.24900  Biso   1.000  C
  H3       1.0000 0.76700  0.04370  0.23660  Biso   1.000  H
  H4       1.0000 0.81680  0.06870  0.21710  Biso   1.000  H
  C4       1.0000 0.76056  0.11452  0.20260  Biso   1.000  C
  H5       1.0000 0.77780  0.14370  0.22050  Biso   1.000  H
  H6       1.0000 0.72850  0.11690  0.23130  Biso   1.000  H
  C5       1.0000 0.75675  0.11130  0.08920  Biso   1.000  C
  H7       1.0000 0.74900  0.14300  0.06280  Biso   1.000  H
  H8       1.0000 0.78800  0.10240  0.06210  Biso   1.000  H
  C6       1.0000 0.72064  0.07670  0.05000  Biso   1.000  C
  O5       1.0000 0.88382  0.10592  0.61200  Biso   1.000  O
  O6       1.0000 0.91749  0.03442  0.60320  Biso   1.000  O
  O7       1.0000 0.11024  0.05550  0.50700  Biso   1.000  O
  O8       1.0000 0.10010  0.06533  0.34550  Biso   1.000  O
  C7       1.0000 0.91855  0.07870  0.61310  Biso   1.000  C
  C8       1.0000 0.96599  0.10169  0.62600  Biso   1.000  C
  H9       1.0000 0.98280  0.08620  0.68200  Biso   1.000  H
  H10      1.0000 0.96130  0.13520  0.64420  Biso   1.000  H
  C9       1.0000 0.99671  0.09902  0.53200  Biso   1.000  C
  H11      1.0000 0.00620  0.06590  0.52020  Biso   1.000  H
  H12      1.0000 0.97830  0.10970  0.47340  Biso   1.000  H
  C10      1.0000 0.04047  0.12957  0.54300  Biso   1.000  C
  H13      1.0000 0.05850  0.11890  0.60230  Biso   1.000  H
  H14      1.0000 0.03070  0.16260  0.55480  Biso   1.000  H
  C11      1.0000 0.07251  0.12788  0.45130  Biso   1.000  C
  H15      1.0000 0.05390  0.13690  0.39170  Biso   1.000  H
  H16      1.0000 0.09780  0.15160  0.45970  Biso   1.000  H
  C12      1.0000 0.09489  0.08044  0.43220  Biso   1.000  C
  Co3      1.0000 0.35817  0.49361  0.09478  Biso   1.000  Co
  Co4      1.0000 0.31324  0.59566  0.11692  Biso   1.000  Co
  O9       1.0000 0.32215  0.54168  0.00680  Biso   1.000  O
  O10      1.0000 0.33615  0.50791  0.85950  Biso   1.000  O
  O11      1.0000 0.19729  0.55263  0.61030  Biso   1.000  O
  O12      1.0000 0.21495  0.57556  0.45540  Biso   1.000  O
  C13      1.0000 0.31859  0.54029  0.91160  Biso   1.000  C
  C14      1.0000 0.29200  0.57924  0.86070  Biso   1.000  C
  H17      1.0000 0.30890  0.60930  0.87240  Biso   1.000  H
  H18      1.0000 0.26050  0.58200  0.89220  Biso   1.000  H
  C15      1.0000 0.28557  0.57268  0.74900  Biso   1.000  C
  H19      1.0000 0.26700  0.54370  0.73660  Biso   1.000  H
  H20      1.0000 0.31680  0.56870  0.71710  Biso   1.000  H
  C16      1.0000 0.26056  0.61452  0.70260  Biso   1.000  C
  H21      1.0000 0.27780  0.64370  0.72050  Biso   1.000  H
  H22      1.0000 0.22850  0.61690  0.73130  Biso   1.000  H
  C17      1.0000 0.25675  0.61130  0.58920  Biso   1.000  C
  H23      1.0000 0.24900  0.64300  0.56280  Biso   1.000  H
  H24      1.0000 0.28800  0.60240  0.56210  Biso   1.000  H
  C18      1.0000 0.22064  0.57670  0.55000  Biso   1.000  C
  O13      1.0000 0.38382  0.60592  0.11200  Biso   1.000  O
  O14      1.0000 0.41749  0.53442  0.10320  Biso   1.000  O
  O15      1.0000 0.61024  0.55550  0.00700  Biso   1.000  O
  O16      1.0000 0.60010  0.56533  0.84550  Biso   1.000  O
  C19      1.0000 0.41855  0.57870  0.11310  Biso   1.000  C
  C20      1.0000 0.46599  0.60169  0.12600  Biso   1.000  C
  H25      1.0000 0.48280  0.58620  0.18200  Biso   1.000  H
  H26      1.0000 0.46130  0.63520  0.14420  Biso   1.000  H
  C21      1.0000 0.49671  0.59902  0.03200  Biso   1.000  C
  H27      1.0000 0.50620  0.56590  0.02020  Biso   1.000  H
  H28      1.0000 0.47830  0.60970  0.97340  Biso   1.000  H
  C22      1.0000 0.54047  0.62957  0.04300  Biso   1.000  C
  H29      1.0000 0.55850  0.61890  0.10230  Biso   1.000  H
  H30      1.0000 0.53070  0.66260  0.05480  Biso   1.000  H
  C23      1.0000 0.57251  0.62788  0.95130  Biso   1.000  C
  H31      1.0000 0.55390  0.63690  0.89170  Biso   1.000  H
  H32      1.0000 0.59780  0.65160  0.95970  Biso   1.000  H
  C24      1.0000 0.59489  0.58044  0.93220  Biso   1.000  C
  Co5      1.0000 0.64183  0.00639  0.09478  Biso   1.000  Co
  Co6      1.0000 0.68676  0.90434  0.11692  Biso   1.000  Co
  O17      1.0000 0.67785  0.95832  0.00680  Biso   1.000  O
  O18      1.0000 0.66385  0.99209  0.85950  Biso   1.000  O
  O19      1.0000 0.80271  0.94737  0.61030  Biso   1.000  O
  O20      1.0000 0.78505  0.92444  0.45540  Biso   1.000  O
  C25      1.0000 0.68141  0.95971  0.91160  Biso   1.000  C
  C26      1.0000 0.70800  0.92076  0.86070  Biso   1.000  C
  H33      1.0000 0.69110  0.89070  0.87240  Biso   1.000  H
  H34      1.0000 0.73950  0.91800  0.89220  Biso   1.000  H
  C27      1.0000 0.71443  0.92732  0.74900  Biso   1.000  C
  H35      1.0000 0.73300  0.95630  0.73660  Biso   1.000  H
  H36      1.0000 0.68320  0.93130  0.71710  Biso   1.000  H
  C28      1.0000 0.73944  0.88548  0.70260  Biso   1.000  C
  H37      1.0000 0.72220  0.85630  0.72050  Biso   1.000  H
  H38      1.0000 0.77150  0.88310  0.73130  Biso   1.000  H
  C29      1.0000 0.74325  0.88870  0.58920  Biso   1.000  C
  H39      1.0000 0.75100  0.85700  0.56280  Biso   1.000  H
  H40      1.0000 0.71200  0.89760  0.56210  Biso   1.000  H
  C30      1.0000 0.77936  0.92330  0.55000  Biso   1.000  C
  O21      1.0000 0.61618  0.89408  0.11200  Biso   1.000  O
  O22      1.0000 0.58251  0.96558  0.10320  Biso   1.000  O
  O23      1.0000 0.38976  0.94450  0.00700  Biso   1.000  O
  O24      1.0000 0.39990  0.93467  0.84550  Biso   1.000  O
  C31      1.0000 0.58145  0.92130  0.11310  Biso   1.000  C
  C32      1.0000 0.53401  0.89831  0.12600  Biso   1.000  C
  H41      1.0000 0.51720  0.91380  0.18200  Biso   1.000  H
  H42      1.0000 0.53870  0.86480  0.14420  Biso   1.000  H
  C33      1.0000 0.50329  0.90098  0.03200  Biso   1.000  C
  H43      1.0000 0.49380  0.93410  0.02020  Biso   1.000  H
  H44      1.0000 0.52170  0.89030  0.97340  Biso   1.000  H
  C34      1.0000 0.45953  0.87043  0.04300  Biso   1.000  C
  H45      1.0000 0.44150  0.88110  0.10230  Biso   1.000  H
  H46      1.0000 0.46930  0.83740  0.05480  Biso   1.000  H
  C35      1.0000 0.42749  0.87212  0.95130  Biso   1.000  C
  H47      1.0000 0.44610  0.86310  0.89170  Biso   1.000  H
  H48      1.0000 0.40220  0.84840  0.95970  Biso   1.000  H
  C36      1.0000 0.40511  0.91956  0.93220  Biso   1.000  C
  Co7      1.0000 0.14183  0.50639  0.59478  Biso   1.000  Co
  Co8      1.0000 0.18676  0.40434  0.61692  Biso   1.000  Co
  O25      1.0000 0.17785  0.45832  0.50680  Biso   1.000  O
  O26      1.0000 0.16385  0.49209  0.35950  Biso   1.000  O
  O27      1.0000 0.30271  0.44737  0.11030  Biso   1.000  O
  O28      1.0000 0.28505  0.42444  0.95540  Biso   1.000  O
  C37      1.0000 0.18141  0.45971  0.41160  Biso   1.000  C
  C38      1.0000 0.20800  0.42076  0.36070  Biso   1.000  C
  H49      1.0000 0.19110  0.39070  0.37240  Biso   1.000  H
  H50      1.0000 0.23950  0.41800  0.39220  Biso   1.000  H
  C39      1.0000 0.21443  0.42732  0.24900  Biso   1.000  C
  H51      1.0000 0.23300  0.45630  0.23660  Biso   1.000  H
  H52      1.0000 0.18320  0.43130  0.21710  Biso   1.000  H
  C40      1.0000 0.23944  0.38548  0.20260  Biso   1.000  C
  H53      1.0000 0.22220  0.35630  0.22050  Biso   1.000  H
  H54      1.0000 0.27150  0.38310  0.23130  Biso   1.000  H
  C41      1.0000 0.24325  0.38870  0.08920  Biso   1.000  C
  H55      1.0000 0.25100  0.35700  0.06280  Biso   1.000  H
  H56      1.0000 0.21200  0.39760  0.06210  Biso   1.000  H
  C42      1.0000 0.27936  0.42330  0.05000  Biso   1.000  C
  O29      1.0000 0.11618  0.39408  0.61200  Biso   1.000  O
  O30      1.0000 0.08251  0.46558  0.60320  Biso   1.000  O
  O31      1.0000 0.88976  0.44450  0.50700  Biso   1.000  O
  O32      1.0000 0.89990  0.43467  0.34550  Biso   1.000  O
  C43      1.0000 0.08145  0.42130  0.61310  Biso   1.000  C
  C44      1.0000 0.03401  0.39831  0.62600  Biso   1.000  C
  H57      1.0000 0.01720  0.41380  0.68200  Biso   1.000  H
  H58      1.0000 0.03870  0.36480  0.64420  Biso   1.000  H
  C45      1.0000 0.00329  0.40098  0.53200  Biso   1.000  C
  H59      1.0000 0.99380  0.43410  0.52020  Biso   1.000  H
  H60      1.0000 0.02170  0.39030  0.47340  Biso   1.000  H
  C46      1.0000 0.95953  0.37043  0.54300  Biso   1.000  C
  H61      1.0000 0.94150  0.38110  0.60230  Biso   1.000  H
  H62      1.0000 0.96930  0.33740  0.55480  Biso   1.000  H
  C47      1.0000 0.92749  0.37212  0.45130  Biso   1.000  C
  H63      1.0000 0.94610  0.36310  0.39170  Biso   1.000  H
  H64      1.0000 0.90220  0.34840  0.45970  Biso   1.000  H
  C48      1.0000 0.90511  0.41956  0.43220  Biso   1.000  C
  Co9      1.0000 0.75639  0.10817  0.84478  Biso   1.000  Co
  Co10     1.0000 0.65434  0.06324  0.86692  Biso   1.000  Co
  O33      1.0000 0.70832  0.07215  0.75680  Biso   1.000  O
  O34      1.0000 0.74209  0.08615  0.60950  Biso   1.000  O
  O35      1.0000 0.69737  0.94729  0.36030  Biso   1.000  O
  O36      1.0000 0.67444  0.96495  0.20540  Biso   1.000  O
  C49      1.0000 0.70971  0.06859  0.66160  Biso   1.000  C
  C50      1.0000 0.67076  0.04200  0.61070  Biso   1.000  C
  H65      1.0000 0.64070  0.05890  0.62240  Biso   1.000  H
  H66      1.0000 0.66800  0.01050  0.64220  Biso   1.000  H
  C51      1.0000 0.67732  0.03557  0.49900  Biso   1.000  C
  H67      1.0000 0.70630  0.01700  0.48660  Biso   1.000  H
  H68      1.0000 0.68130  0.06680  0.46710  Biso   1.000  H
  C52      1.0000 0.63548  0.01056  0.45260  Biso   1.000  C
  H69      1.0000 0.60630  0.02780  0.47050  Biso   1.000  H
  H70      1.0000 0.63310  0.97850  0.48130  Biso   1.000  H
  C53      1.0000 0.63870  0.00675  0.33920  Biso   1.000  C
  H71      1.0000 0.60700  0.99900  0.31280  Biso   1.000  H
  H72      1.0000 0.64760  0.03800  0.31210  Biso   1.000  H
  C54      1.0000 0.67330  0.97064  0.30000  Biso   1.000  C
  O37      1.0000 0.64408  0.13382  0.86200  Biso   1.000  O
  O38      1.0000 0.71558  0.16749  0.85320  Biso   1.000  O
  O39      1.0000 0.69450  0.36024  0.75700  Biso   1.000  O
  O40      1.0000 0.68467  0.35010  0.59550  Biso   1.000  O
  C55      1.0000 0.67130  0.16855  0.86310  Biso   1.000  C
  C56      1.0000 0.64831  0.21599  0.87600  Biso   1.000  C
  H73      1.0000 0.66380  0.23280  0.93200  Biso   1.000  H
  H74      1.0000 0.61480  0.21130  0.89420  Biso   1.000  H
  C57      1.0000 0.65098  0.24671  0.78200  Biso   1.000  C
  H75      1.0000 0.68410  0.25620  0.77020  Biso   1.000  H
  H76      1.0000 0.64030  0.22830  0.72340  Biso   1.000  H
  C58      1.0000 0.62043  0.29047  0.79300  Biso   1.000  C
  H77      1.0000 0.63110  0.30850  0.85230  Biso   1.000  H
  H78      1.0000 0.58740  0.28070  0.80480  Biso   1.000  H
  C59      1.0000 0.62212  0.32251  0.70130  Biso   1.000  C
  H79      1.0000 0.61310  0.30390  0.64170  Biso   1.000  H
  H80      1.0000 0.59840  0.34780  0.70970  Biso   1.000  H
  C60      1.0000 0.66956  0.34489  0.68220  Biso   1.000  C
  Co11     1.0000 0.25639  0.60817  0.34478  Biso   1.000  Co
  Co12     1.0000 0.15434  0.56324  0.36692  Biso   1.000  Co
  O41      1.0000 0.20832  0.57215  0.25680  Biso   1.000  O
  O42      1.0000 0.24209  0.58615  0.10950  Biso   1.000  O
  O43      1.0000 0.19737  0.44729  0.86030  Biso   1.000  O
  O44      1.0000 0.17444  0.46495  0.70540  Biso   1.000  O
  C61      1.0000 0.20971  0.56859  0.16160  Biso   1.000  C
  C62      1.0000 0.17076  0.54200  0.11070  Biso   1.000  C
  H81      1.0000 0.14070  0.55890  0.12240  Biso   1.000  H
  H82      1.0000 0.16800  0.51050  0.14220  Biso   1.000  H
  C63      1.0000 0.17732  0.53557  0.99900  Biso   1.000  C
  H83      1.0000 0.20630  0.51700  0.98660  Biso   1.000  H
  H84      1.0000 0.18130  0.56680  0.96710  Biso   1.000  H
  C64      1.0000 0.13548  0.51056  0.95260  Biso   1.000  C
  H85      1.0000 0.10630  0.52780  0.97050  Biso   1.000  H
  H86      1.0000 0.13310  0.47850  0.98130  Biso   1.000  H
  C65      1.0000 0.13870  0.50675  0.83920  Biso   1.000  C
  H87      1.0000 0.10700  0.49900  0.81280  Biso   1.000  H
  H88      1.0000 0.14760  0.53800  0.81210  Biso   1.000  H
  C66      1.0000 0.17330  0.47064  0.80000  Biso   1.000  C
  O45      1.0000 0.14408  0.63382  0.36200  Biso   1.000  O
  O46      1.0000 0.21558  0.66749  0.35320  Biso   1.000  O
  O47      1.0000 0.19450  0.86024  0.25700  Biso   1.000  O
  O48      1.0000 0.18467  0.85010  0.09550  Biso   1.000  O
  C67      1.0000 0.17130  0.66855  0.36310  Biso   1.000  C
  C68      1.0000 0.14831  0.71599  0.37600  Biso   1.000  C
  H89      1.0000 0.16380  0.73280  0.43200  Biso   1.000  H
  H90      1.0000 0.11480  0.71130  0.39420  Biso   1.000  H
  C69      1.0000 0.15098  0.74671  0.28200  Biso   1.000  C
  H91      1.0000 0.18410  0.75620  0.27020  Biso   1.000  H
  H92      1.0000 0.14030  0.72830  0.22340  Biso   1.000  H
  C70      1.0000 0.12043  0.79047  0.29300  Biso   1.000  C
  H93      1.0000 0.13110  0.80850  0.35230  Biso   1.000  H
  H94      1.0000 0.08740  0.78070  0.30480  Biso   1.000  H
  C71      1.0000 0.12212  0.82251  0.20130  Biso   1.000  C
  H95      1.0000 0.11310  0.80390  0.14170  Biso   1.000  H
  H96      1.0000 0.09840  0.84780  0.20970  Biso   1.000  H
  C72      1.0000 0.16956  0.84489  0.18220  Biso   1.000  C
  Co13     1.0000 0.74361  0.89183  0.34478  Biso   1.000  Co
  Co14     1.0000 0.84566  0.93676  0.36692  Biso   1.000  Co
  O49      1.0000 0.79168  0.92785  0.25680  Biso   1.000  O
  O50      1.0000 0.75791  0.91385  0.10950  Biso   1.000  O
  O51      1.0000 0.80263  0.05271  0.86030  Biso   1.000  O
  O52      1.0000 0.82556  0.03505  0.70540  Biso   1.000  O
  C73      1.0000 0.79029  0.93141  0.16160  Biso   1.000  C
  C74      1.0000 0.82924  0.95800  0.11070  Biso   1.000  C
  H97      1.0000 0.85930  0.94110  0.12240  Biso   1.000  H
  H98      1.0000 0.83200  0.98950  0.14220  Biso   1.000  H
  C75      1.0000 0.82268  0.96443  0.99900  Biso   1.000  C
  H99      1.0000 0.79370  0.98300  0.98660  Biso   1.000  H
  H100     1.0000 0.81870  0.93320  0.96710  Biso   1.000  H
  C76      1.0000 0.86452  0.98944  0.95260  Biso   1.000  C
  H101     1.0000 0.89370  0.97220  0.97050  Biso   1.000  H
  H102     1.0000 0.86690  0.02150  0.98130  Biso   1.000  H
  C77      1.0000 0.86130  0.99325  0.83920  Biso   1.000  C
  H103     1.0000 0.89300  0.00100  0.81280  Biso   1.000  H
  H104     1.0000 0.85240  0.96200  0.81210  Biso   1.000  H
  C78      1.0000 0.82670  0.02936  0.80000  Biso   1.000  C
  O53      1.0000 0.85592  0.86618  0.36200  Biso   1.000  O
  O54      1.0000 0.78442  0.83251  0.35320  Biso   1.000  O
  O55      1.0000 0.80550  0.63976  0.25700  Biso   1.000  O
  O56      1.0000 0.81533  0.64990  0.09550  Biso   1.000  O
  C79      1.0000 0.82870  0.83145  0.36310  Biso   1.000  C
  C80      1.0000 0.85169  0.78401  0.37600  Biso   1.000  C
  H105     1.0000 0.83620  0.76720  0.43200  Biso   1.000  H
  H106     1.0000 0.88520  0.78870  0.39420  Biso   1.000  H
  C81      1.0000 0.84902  0.75329  0.28200  Biso   1.000  C
  H107     1.0000 0.81590  0.74380  0.27020  Biso   1.000  H
  H108     1.0000 0.85970  0.77170  0.22340  Biso   1.000  H
  C82      1.0000 0.87957  0.70953  0.29300  Biso   1.000  C
  H109     1.0000 0.86890  0.69150  0.35230  Biso   1.000  H
  H110     1.0000 0.91260  0.71930  0.30480  Biso   1.000  H
  C83      1.0000 0.87788  0.67749  0.20130  Biso   1.000  C
  H111     1.0000 0.88690  0.69610  0.14170  Biso   1.000  H
  H112     1.0000 0.90160  0.65220  0.20970  Biso   1.000  H
  C84      1.0000 0.83044  0.65511  0.18220  Biso   1.000  C
  Co15     1.0000 0.24361  0.39183  0.84478  Biso   1.000  Co
  Co16     1.0000 0.34566  0.43676  0.86692  Biso   1.000  Co
  O57      1.0000 0.29168  0.42785  0.75680  Biso   1.000  O
  O58      1.0000 0.25791  0.41385  0.60950  Biso   1.000  O
  O59      1.0000 0.30263  0.55271  0.36030  Biso   1.000  O
  O60      1.0000 0.32556  0.53505  0.20540  Biso   1.000  O
  C85      1.0000 0.29029  0.43141  0.66160  Biso   1.000  C
  C86      1.0000 0.32924  0.45800  0.61070  Biso   1.000  C
  H113     1.0000 0.35930  0.44110  0.62240  Biso   1.000  H
  H114     1.0000 0.33200  0.48950  0.64220  Biso   1.000  H
  C87      1.0000 0.32268  0.46443  0.49900  Biso   1.000  C
  H115     1.0000 0.29370  0.48300  0.48660  Biso   1.000  H
  H116     1.0000 0.31870  0.43320  0.46710  Biso   1.000  H
  C88      1.0000 0.36452  0.48944  0.45260  Biso   1.000  C
  H117     1.0000 0.39370  0.47220  0.47050  Biso   1.000  H
  H118     1.0000 0.36690  0.52150  0.48130  Biso   1.000  H
  C89      1.0000 0.36130  0.49325  0.33920  Biso   1.000  C
  H119     1.0000 0.39300  0.50100  0.31280  Biso   1.000  H
  H120     1.0000 0.35240  0.46200  0.31210  Biso   1.000  H
  C90      1.0000 0.32670  0.52936  0.30000  Biso   1.000  C
  O61      1.0000 0.35592  0.36618  0.86200  Biso   1.000  O
  O62      1.0000 0.28442  0.33251  0.85320  Biso   1.000  O
  O63      1.0000 0.30550  0.13976  0.75700  Biso   1.000  O
  O64      1.0000 0.31533  0.14990  0.59550  Biso   1.000  O
  C91      1.0000 0.32870  0.33145  0.86310  Biso   1.000  C
  C92      1.0000 0.35169  0.28401  0.87600  Biso   1.000  C
  H121     1.0000 0.33620  0.26720  0.93200  Biso   1.000  H
  H122     1.0000 0.38520  0.28870  0.89420  Biso   1.000  H
  C93      1.0000 0.34902  0.25329  0.78200  Biso   1.000  C
  H123     1.0000 0.31590  0.24380  0.77020  Biso   1.000  H
  H124     1.0000 0.35970  0.27170  0.72340  Biso   1.000  H
  C94      1.0000 0.37957  0.20953  0.79300  Biso   1.000  C
  H125     1.0000 0.36890  0.19150  0.85230  Biso   1.000  H
  H126     1.0000 0.41260  0.21930  0.80480  Biso   1.000  H
  C95      1.0000 0.37788  0.17749  0.70130  Biso   1.000  C
  H127     1.0000 0.38690  0.19610  0.64170  Biso   1.000  H
  H128     1.0000 0.40160  0.15220  0.70970  Biso   1.000  H
  C96      1.0000 0.33044  0.15511  0.68220  Biso   1.000  C
  Co17     1.0000 0.14183  0.00639  0.40522  Biso   1.000  Co
  Co18     1.0000 0.18676  0.90434  0.38308  Biso   1.000  Co
  O65      1.0000 0.17785  0.95832  0.49320  Biso   1.000  O
  O66      1.0000 0.16385  0.99209  0.64050  Biso   1.000  O
  O67      1.0000 0.30271  0.94737  0.88970  Biso   1.000  O
  O68      1.0000 0.28505  0.92444  0.04460  Biso   1.000  O
  C97      1.0000 0.18141  0.95971  0.58840  Biso   1.000  C
  C98      1.0000 0.20800  0.92076  0.63930  Biso   1.000  C
  H129     1.0000 0.19110  0.89070  0.62760  Biso   1.000  H
  H130     1.0000 0.23950  0.91800  0.60780  Biso   1.000  H
  C99      1.0000 0.21443  0.92732  0.75100  Biso   1.000  C
  H131     1.0000 0.23300  0.95630  0.76340  Biso   1.000  H
  H132     1.0000 0.18320  0.93130  0.78290  Biso   1.000  H
  C100     1.0000 0.23944  0.88548  0.79740  Biso   1.000  C
  H133     1.0000 0.22220  0.85630  0.77950  Biso   1.000  H
  H134     1.0000 0.27150  0.88310  0.76870  Biso   1.000  H
  C101     1.0000 0.24325  0.88870  0.91080  Biso   1.000  C
  H135     1.0000 0.25100  0.85700  0.93720  Biso   1.000  H
  H136     1.0000 0.21200  0.89760  0.93790  Biso   1.000  H
  C102     1.0000 0.27936  0.92330  0.95000  Biso   1.000  C
  O69      1.0000 0.11618  0.89408  0.38800  Biso   1.000  O
  O70      1.0000 0.08251  0.96558  0.39680  Biso   1.000  O
  O71      1.0000 0.88976  0.94450  0.49300  Biso   1.000  O
  O72      1.0000 0.89990  0.93467  0.65450  Biso   1.000  O
  C103     1.0000 0.08145  0.92130  0.38690  Biso   1.000  C
  C104     1.0000 0.03401  0.89831  0.37400  Biso   1.000  C
  H137     1.0000 0.01720  0.91380  0.31800  Biso   1.000  H
  H138     1.0000 0.03870  0.86480  0.35580  Biso   1.000  H
  C105     1.0000 0.00329  0.90098  0.46800  Biso   1.000  C
  H139     1.0000 0.99380  0.93410  0.47980  Biso   1.000  H
  H140     1.0000 0.02170  0.89030  0.52660  Biso   1.000  H
  C106     1.0000 0.95953  0.87043  0.45700  Biso   1.000  C
  H141     1.0000 0.94150  0.88110  0.39770  Biso   1.000  H
  H142     1.0000 0.96930  0.83740  0.44520  Biso   1.000  H
  C107     1.0000 0.92749  0.87212  0.54870  Biso   1.000  C
  H143     1.0000 0.94610  0.86310  0.60830  Biso   1.000  H
  H144     1.0000 0.90220  0.84840  0.54030  Biso   1.000  H
  C108     1.0000 0.90511  0.91956  0.56780  Biso   1.000  C
  Co19     1.0000 0.64183  0.50639  0.90522  Biso   1.000  Co
  Co20     1.0000 0.68676  0.40434  0.88308  Biso   1.000  Co
  O73      1.0000 0.67785  0.45832  0.99320  Biso   1.000  O
  O74      1.0000 0.66385  0.49209  0.14050  Biso   1.000  O
  O75      1.0000 0.80271  0.44737  0.38970  Biso   1.000  O
  O76      1.0000 0.78505  0.42444  0.54460  Biso   1.000  O
  C109     1.0000 0.68141  0.45971  0.08840  Biso   1.000  C
  C110     1.0000 0.70800  0.42076  0.13930  Biso   1.000  C
  H145     1.0000 0.69110  0.39070  0.12760  Biso   1.000  H
  H146     1.0000 0.73950  0.41800  0.10780  Biso   1.000  H
  C111     1.0000 0.71443  0.42732  0.25100  Biso   1.000  C
  H147     1.0000 0.73300  0.45630  0.26340  Biso   1.000  H
  H148     1.0000 0.68320  0.43130  0.28290  Biso   1.000  H
  C112     1.0000 0.73944  0.38548  0.29740  Biso   1.000  C
  H149     1.0000 0.72220  0.35630  0.27950  Biso   1.000  H
  H150     1.0000 0.77150  0.38310  0.26870  Biso   1.000  H
  C113     1.0000 0.74325  0.38870  0.41080  Biso   1.000  C
  H151     1.0000 0.75100  0.35700  0.43720  Biso   1.000  H
  H152     1.0000 0.71200  0.39760  0.43790  Biso   1.000  H
  C114     1.0000 0.77936  0.42330  0.45000  Biso   1.000  C
  O77      1.0000 0.61618  0.39408  0.88800  Biso   1.000  O
  O78      1.0000 0.58251  0.46558  0.89680  Biso   1.000  O
  O79      1.0000 0.38976  0.44450  0.99300  Biso   1.000  O
  O80      1.0000 0.39990  0.43467  0.15450  Biso   1.000  O
  C115     1.0000 0.58145  0.42130  0.88690  Biso   1.000  C
  C116     1.0000 0.53401  0.39831  0.87400  Biso   1.000  C
  H153     1.0000 0.51720  0.41380  0.81800  Biso   1.000  H
  H154     1.0000 0.53870  0.36480  0.85580  Biso   1.000  H
  C117     1.0000 0.50329  0.40098  0.96800  Biso   1.000  C
  H155     1.0000 0.49380  0.43410  0.97980  Biso   1.000  H
  H156     1.0000 0.52170  0.39030  0.02660  Biso   1.000  H
  C118     1.0000 0.45953  0.37043  0.95700  Biso   1.000  C
  H157     1.0000 0.44150  0.38110  0.89770  Biso   1.000  H
  H158     1.0000 0.46930  0.33740  0.94520  Biso   1.000  H
  C119     1.0000 0.42749  0.37212  0.04870  Biso   1.000  C
  H159     1.0000 0.44610  0.36310  0.10830  Biso   1.000  H
  H160     1.0000 0.40220  0.34840  0.04030  Biso   1.000  H
  C120     1.0000 0.40511  0.41956  0.06780  Biso   1.000  C
  Co21     1.0000 0.35817  0.99361  0.90522  Biso   1.000  Co
  Co22     1.0000 0.31324  0.09566  0.88308  Biso   1.000  Co
  O81      1.0000 0.32215  0.04168  0.99320  Biso   1.000  O
  O82      1.0000 0.33615  0.00791  0.14050  Biso   1.000  O
  O83      1.0000 0.19729  0.05263  0.38970  Biso   1.000  O
  O84      1.0000 0.21495  0.07556  0.54460  Biso   1.000  O
  C121     1.0000 0.31859  0.04029  0.08840  Biso   1.000  C
  C122     1.0000 0.29200  0.07924  0.13930  Biso   1.000  C
  H161     1.0000 0.30890  0.10930  0.12760  Biso   1.000  H
  H162     1.0000 0.26050  0.08200  0.10780  Biso   1.000  H
  C123     1.0000 0.28557  0.07268  0.25100  Biso   1.000  C
  H163     1.0000 0.26700  0.04370  0.26340  Biso   1.000  H
  H164     1.0000 0.31680  0.06870  0.28290  Biso   1.000  H
  C124     1.0000 0.26056  0.11452  0.29740  Biso   1.000  C
  H165     1.0000 0.27780  0.14370  0.27950  Biso   1.000  H
  H166     1.0000 0.22850  0.11690  0.26870  Biso   1.000  H
  C125     1.0000 0.25675  0.11130  0.41080  Biso   1.000  C
  H167     1.0000 0.24900  0.14300  0.43720  Biso   1.000  H
  H168     1.0000 0.28800  0.10240  0.43790  Biso   1.000  H
  C126     1.0000 0.22064  0.07670  0.45000  Biso   1.000  C
  O85      1.0000 0.38382  0.10592  0.88800  Biso   1.000  O
  O86      1.0000 0.41749  0.03442  0.89680  Biso   1.000  O
  O87      1.0000 0.61024  0.05550  0.99300  Biso   1.000  O
  O88      1.0000 0.60010  0.06533  0.15450  Biso   1.000  O
  C127     1.0000 0.41855  0.07870  0.88690  Biso   1.000  C
  C128     1.0000 0.46599  0.10169  0.87400  Biso   1.000  C
  H169     1.0000 0.48280  0.08620  0.81800  Biso   1.000  H
  H170     1.0000 0.46130  0.13520  0.85580  Biso   1.000  H
  C129     1.0000 0.49671  0.09902  0.96800  Biso   1.000  C
  H171     1.0000 0.50620  0.06590  0.97980  Biso   1.000  H
  H172     1.0000 0.47830  0.10970  0.02660  Biso   1.000  H
  C130     1.0000 0.54047  0.12957  0.95700  Biso   1.000  C
  H173     1.0000 0.55850  0.11890  0.89770  Biso   1.000  H
  H174     1.0000 0.53070  0.16260  0.94520  Biso   1.000  H
  C131     1.0000 0.57251  0.12788  0.04870  Biso   1.000  C
  H175     1.0000 0.55390  0.13690  0.10830  Biso   1.000  H
  H176     1.0000 0.59780  0.15160  0.04030  Biso   1.000  H
  C132     1.0000 0.59489  0.08044  0.06780  Biso   1.000  C
  Co23     1.0000 0.85817  0.49361  0.40522  Biso   1.000  Co
  Co24     1.0000 0.81324  0.59566  0.38308  Biso   1.000  Co
  O89      1.0000 0.82215  0.54168  0.49320  Biso   1.000  O
  O90      1.0000 0.83615  0.50791  0.64050  Biso   1.000  O
  O91      1.0000 0.69729  0.55263  0.88970  Biso   1.000  O
  O92      1.0000 0.71495  0.57556  0.04460  Biso   1.000  O
  C133     1.0000 0.81859  0.54029  0.58840  Biso   1.000  C
  C134     1.0000 0.79200  0.57924  0.63930  Biso   1.000  C
  H177     1.0000 0.80890  0.60930  0.62760  Biso   1.000  H
  H178     1.0000 0.76050  0.58200  0.60780  Biso   1.000  H
  C135     1.0000 0.78557  0.57268  0.75100  Biso   1.000  C
  H179     1.0000 0.76700  0.54370  0.76340  Biso   1.000  H
  H180     1.0000 0.81680  0.56870  0.78290  Biso   1.000  H
  C136     1.0000 0.76056  0.61452  0.79740  Biso   1.000  C
  H181     1.0000 0.77780  0.64370  0.77950  Biso   1.000  H
  H182     1.0000 0.72850  0.61690  0.76870  Biso   1.000  H
  C137     1.0000 0.75675  0.61130  0.91080  Biso   1.000  C
  H183     1.0000 0.74900  0.64300  0.93720  Biso   1.000  H
  H184     1.0000 0.78800  0.60240  0.93790  Biso   1.000  H
  C138     1.0000 0.72064  0.57670  0.95000  Biso   1.000  C
  O93      1.0000 0.88382  0.60592  0.38800  Biso   1.000  O
  O94      1.0000 0.91749  0.53442  0.39680  Biso   1.000  O
  O95      1.0000 0.11024  0.55550  0.49300  Biso   1.000  O
  O96      1.0000 0.10010  0.56533  0.65450  Biso   1.000  O
  C139     1.0000 0.91855  0.57870  0.38690  Biso   1.000  C
  C140     1.0000 0.96599  0.60169  0.37400  Biso   1.000  C
  H185     1.0000 0.98280  0.58620  0.31800  Biso   1.000  H
  H186     1.0000 0.96130  0.63520  0.35580  Biso   1.000  H
  C141     1.0000 0.99671  0.59902  0.46800  Biso   1.000  C
  H187     1.0000 0.00620  0.56590  0.47980  Biso   1.000  H
  H188     1.0000 0.97830  0.60970  0.52660  Biso   1.000  H
  C142     1.0000 0.04047  0.62957  0.45700  Biso   1.000  C
  H189     1.0000 0.05850  0.61890  0.39770  Biso   1.000  H
  H190     1.0000 0.03070  0.66260  0.44520  Biso   1.000  H
  C143     1.0000 0.07251  0.62788  0.54870  Biso   1.000  C
  H191     1.0000 0.05390  0.63690  0.60830  Biso   1.000  H
  H192     1.0000 0.09780  0.65160  0.54030  Biso   1.000  H
  C144     1.0000 0.09489  0.58044  0.56780  Biso   1.000  C
  Co25     1.0000 0.24361  0.89183  0.15522  Biso   1.000  Co
  Co26     1.0000 0.34566  0.93676  0.13308  Biso   1.000  Co
  O97      1.0000 0.29168  0.92785  0.24320  Biso   1.000  O
  O98      1.0000 0.25791  0.91385  0.39050  Biso   1.000  O
  O99      1.0000 0.30263  0.05271  0.63970  Biso   1.000  O
  O100     1.0000 0.32556  0.03505  0.79460  Biso   1.000  O
  C145     1.0000 0.29029  0.93141  0.33840  Biso   1.000  C
  C146     1.0000 0.32924  0.95800  0.38930  Biso   1.000  C
  H193     1.0000 0.35930  0.94110  0.37760  Biso   1.000  H
  H194     1.0000 0.33200  0.98950  0.35780  Biso   1.000  H
  C147     1.0000 0.32268  0.96443  0.50100  Biso   1.000  C
  H195     1.0000 0.29370  0.98300  0.51340  Biso   1.000  H
  H196     1.0000 0.31870  0.93320  0.53290  Biso   1.000  H
  C148     1.0000 0.36452  0.98944  0.54740  Biso   1.000  C
  H197     1.0000 0.39370  0.97220  0.52950  Biso   1.000  H
  H198     1.0000 0.36690  0.02150  0.51870  Biso   1.000  H
  C149     1.0000 0.36130  0.99325  0.66080  Biso   1.000  C
  H199     1.0000 0.39300  0.00100  0.68720  Biso   1.000  H
  H200     1.0000 0.35240  0.96200  0.68790  Biso   1.000  H
  C150     1.0000 0.32670  0.02936  0.70000  Biso   1.000  C
  O101     1.0000 0.35592  0.86618  0.13800  Biso   1.000  O
  O102     1.0000 0.28442  0.83251  0.14680  Biso   1.000  O
  O103     1.0000 0.30550  0.63976  0.24300  Biso   1.000  O
  O104     1.0000 0.31533  0.64990  0.40450  Biso   1.000  O
  C151     1.0000 0.32870  0.83145  0.13690  Biso   1.000  C
  C152     1.0000 0.35169  0.78401  0.12400  Biso   1.000  C
  H201     1.0000 0.33620  0.76720  0.06800  Biso   1.000  H
  H202     1.0000 0.38520  0.78870  0.10580  Biso   1.000  H
  C153     1.0000 0.34902  0.75329  0.21800  Biso   1.000  C
  H203     1.0000 0.31590  0.74380  0.22980  Biso   1.000  H
  H204     1.0000 0.35970  0.77170  0.27660  Biso   1.000  H
  C154     1.0000 0.37957  0.70953  0.20700  Biso   1.000  C
  H205     1.0000 0.36890  0.69150  0.14770  Biso   1.000  H
  H206     1.0000 0.41260  0.71930  0.19520  Biso   1.000  H
  C155     1.0000 0.37788  0.67749  0.29870  Biso   1.000  C
  H207     1.0000 0.38690  0.69610  0.35830  Biso   1.000  H
  H208     1.0000 0.40160  0.65220  0.29030  Biso   1.000  H
  C156     1.0000 0.33044  0.65511  0.31780  Biso   1.000  C
  Co27     1.0000 0.74361  0.39183  0.65522  Biso   1.000  Co
  Co28     1.0000 0.84566  0.43676  0.63308  Biso   1.000  Co
  O105     1.0000 0.79168  0.42785  0.74320  Biso   1.000  O
  O106     1.0000 0.75791  0.41385  0.89050  Biso   1.000  O
  O107     1.0000 0.80263  0.55271  0.13970  Biso   1.000  O
  O108     1.0000 0.82556  0.53505  0.29460  Biso   1.000  O
  C157     1.0000 0.79029  0.43141  0.83840  Biso   1.000  C
  C158     1.0000 0.82924  0.45800  0.88930  Biso   1.000  C
  H209     1.0000 0.85930  0.44110  0.87760  Biso   1.000  H
  H210     1.0000 0.83200  0.48950  0.85780  Biso   1.000  H
  C159     1.0000 0.82268  0.46443  0.00100  Biso   1.000  C
  H211     1.0000 0.79370  0.48300  0.01340  Biso   1.000  H
  H212     1.0000 0.81870  0.43320  0.03290  Biso   1.000  H
  C160     1.0000 0.86452  0.48944  0.04740  Biso   1.000  C
  H213     1.0000 0.89370  0.47220  0.02950  Biso   1.000  H
  H214     1.0000 0.86690  0.52150  0.01870  Biso   1.000  H
  C161     1.0000 0.86130  0.49325  0.16080  Biso   1.000  C
  H215     1.0000 0.89300  0.50100  0.18720  Biso   1.000  H
  H216     1.0000 0.85240  0.46200  0.18790  Biso   1.000  H
  C162     1.0000 0.82670  0.52936  0.20000  Biso   1.000  C
  O109     1.0000 0.85592  0.36618  0.63800  Biso   1.000  O
  O110     1.0000 0.78442  0.33251  0.64680  Biso   1.000  O
  O111     1.0000 0.80550  0.13976  0.74300  Biso   1.000  O
  O112     1.0000 0.81533  0.14990  0.90450  Biso   1.000  O
  C163     1.0000 0.82870  0.33145  0.63690  Biso   1.000  C
  C164     1.0000 0.85169  0.28401  0.62400  Biso   1.000  C
  H217     1.0000 0.83620  0.26720  0.56800  Biso   1.000  H
  H218     1.0000 0.88520  0.28870  0.60580  Biso   1.000  H
  C165     1.0000 0.84902  0.25329  0.71800  Biso   1.000  C
  H219     1.0000 0.81590  0.24380  0.72980  Biso   1.000  H
  H220     1.0000 0.85970  0.27170  0.77660  Biso   1.000  H
  C166     1.0000 0.87957  0.20953  0.70700  Biso   1.000  C
  H221     1.0000 0.86890  0.19150  0.64770  Biso   1.000  H
  H222     1.0000 0.91260  0.21930  0.69520  Biso   1.000  H
  C167     1.0000 0.87788  0.17749  0.79870  Biso   1.000  C
  H223     1.0000 0.88690  0.19610  0.85830  Biso   1.000  H
  H224     1.0000 0.90160  0.15220  0.79030  Biso   1.000  H
  C168     1.0000 0.83044  0.15511  0.81780  Biso   1.000  C
  Co29     1.0000 0.25639  0.10817  0.65522  Biso   1.000  Co
  Co30     1.0000 0.15434  0.06324  0.63308  Biso   1.000  Co
  O113     1.0000 0.20832  0.07215  0.74320  Biso   1.000  O
  O114     1.0000 0.24209  0.08615  0.89050  Biso   1.000  O
  O115     1.0000 0.19737  0.94729  0.13970  Biso   1.000  O
  O116     1.0000 0.17444  0.96495  0.29460  Biso   1.000  O
  C169     1.0000 0.20971  0.06859  0.83840  Biso   1.000  C
  C170     1.0000 0.17076  0.04200  0.88930  Biso   1.000  C
  H225     1.0000 0.14070  0.05890  0.87760  Biso   1.000  H
  H226     1.0000 0.16800  0.01050  0.85780  Biso   1.000  H
  C171     1.0000 0.17732  0.03557  0.00100  Biso   1.000  C
  H227     1.0000 0.20630  0.01700  0.01340  Biso   1.000  H
  H228     1.0000 0.18130  0.06680  0.03290  Biso   1.000  H
  C172     1.0000 0.13548  0.01056  0.04740  Biso   1.000  C
  H229     1.0000 0.10630  0.02780  0.02950  Biso   1.000  H
  H230     1.0000 0.13310  0.97850  0.01870  Biso   1.000  H
  C173     1.0000 0.13870  0.00675  0.16080  Biso   1.000  C
  H231     1.0000 0.10700  0.99900  0.18720  Biso   1.000  H
  H232     1.0000 0.14760  0.03800  0.18790  Biso   1.000  H
  C174     1.0000 0.17330  0.97064  0.20000  Biso   1.000  C
  O117     1.0000 0.14408  0.13382  0.63800  Biso   1.000  O
  O118     1.0000 0.21558  0.16749  0.64680  Biso   1.000  O
  O119     1.0000 0.19450  0.36024  0.74300  Biso   1.000  O
  O120     1.0000 0.18467  0.35010  0.90450  Biso   1.000  O
  C175     1.0000 0.17130  0.16855  0.63690  Biso   1.000  C
  C176     1.0000 0.14831  0.21599  0.62400  Biso   1.000  C
  H233     1.0000 0.16380  0.23280  0.56800  Biso   1.000  H
  H234     1.0000 0.11480  0.21130  0.60580  Biso   1.000  H
  C177     1.0000 0.15098  0.24671  0.71800  Biso   1.000  C
  H235     1.0000 0.18410  0.25620  0.72980  Biso   1.000  H
  H236     1.0000 0.14030  0.22830  0.77660  Biso   1.000  H
  C178     1.0000 0.12043  0.29047  0.70700  Biso   1.000  C
  H237     1.0000 0.13110  0.30850  0.64770  Biso   1.000  H
  H238     1.0000 0.08740  0.28070  0.69520  Biso   1.000  H
  C179     1.0000 0.12212  0.32251  0.79870  Biso   1.000  C
  H239     1.0000 0.11310  0.30390  0.85830  Biso   1.000  H
  H240     1.0000 0.09840  0.34780  0.79030  Biso   1.000  H
  C180     1.0000 0.16956  0.34489  0.81780  Biso   1.000  C
  Co31     1.0000 0.75639  0.60817  0.15522  Biso   1.000  Co
  Co32     1.0000 0.65434  0.56324  0.13308  Biso   1.000  Co
  O121     1.0000 0.70832  0.57215  0.24320  Biso   1.000  O
  O122     1.0000 0.74209  0.58615  0.39050  Biso   1.000  O
  O123     1.0000 0.69737  0.44729  0.63970  Biso   1.000  O
  O124     1.0000 0.67444  0.46495  0.79460  Biso   1.000  O
  C181     1.0000 0.70971  0.56859  0.33840  Biso   1.000  C
  C182     1.0000 0.67076  0.54200  0.38930  Biso   1.000  C
  H241     1.0000 0.64070  0.55890  0.37760  Biso   1.000  H
  H242     1.0000 0.66800  0.51050  0.35780  Biso   1.000  H
  C183     1.0000 0.67732  0.53557  0.50100  Biso   1.000  C
  H243     1.0000 0.70630  0.51700  0.51340  Biso   1.000  H
  H244     1.0000 0.68130  0.56680  0.53290  Biso   1.000  H
  C184     1.0000 0.63548  0.51056  0.54740  Biso   1.000  C
  H245     1.0000 0.60630  0.52780  0.52950  Biso   1.000  H
  H246     1.0000 0.63310  0.47850  0.51870  Biso   1.000  H
  C185     1.0000 0.63870  0.50675  0.66080  Biso   1.000  C
  H247     1.0000 0.60700  0.49900  0.68720  Biso   1.000  H
  H248     1.0000 0.64760  0.53800  0.68790  Biso   1.000  H
  C186     1.0000 0.67330  0.47064  0.70000  Biso   1.000  C
  O125     1.0000 0.64408  0.63382  0.13800  Biso   1.000  O
  O126     1.0000 0.71558  0.66749  0.14680  Biso   1.000  O
  O127     1.0000 0.69450  0.86024  0.24300  Biso   1.000  O
  O128     1.0000 0.68467  0.85010  0.40450  Biso   1.000  O
  C187     1.0000 0.67130  0.66855  0.13690  Biso   1.000  C
  C188     1.0000 0.64831  0.71599  0.12400  Biso   1.000  C
  H249     1.0000 0.66380  0.73280  0.06800  Biso   1.000  H
  H250     1.0000 0.61480  0.71130  0.10580  Biso   1.000  H
  C189     1.0000 0.65098  0.74671  0.21800  Biso   1.000  C
  H251     1.0000 0.68410  0.75620  0.22980  Biso   1.000  H
  H252     1.0000 0.64030  0.72830  0.27660  Biso   1.000  H
  C190     1.0000 0.62043  0.79047  0.20700  Biso   1.000  C
  H253     1.0000 0.63110  0.80850  0.14770  Biso   1.000  H
  H254     1.0000 0.58740  0.78070  0.19520  Biso   1.000  H
  C191     1.0000 0.62212  0.82251  0.29870  Biso   1.000  C
  H255     1.0000 0.61310  0.80390  0.35830  Biso   1.000  H
  H256     1.0000 0.59840  0.84780  0.29030  Biso   1.000  H
  C192     1.0000 0.66956  0.84489  0.31780  Biso   1.000  C
