data_image0
_cell_length_a       13.3751
_cell_length_b       14.3847
_cell_length_c       11.3178
_cell_angle_alpha    90
_cell_angle_beta     111.405
_cell_angle_gamma    90

_symmetry_space_group_name_H-M    "P 1"
_symmetry_int_tables_number       1

loop_
  _symmetry_equiv_pos_as_xyz
  'x, y, z'

loop_
  _atom_site_label
  _atom_site_occupancy
  _atom_site_fract_x
  _atom_site_fract_y
  _atom_site_fract_z
  _atom_site_thermal_displace_type
  _atom_site_B_iso_or_equiv
  _atom_site_type_symbol
  O1       1.0000 0.86560  0.97390  0.29140  Biso   1.000  O
  O2       1.0000 0.88980  0.03350  0.12380  Biso   1.000  O
  C1       1.0000 0.84300  0.97830  0.17560  Biso   1.000  C
  C2       1.0000 0.75660  0.91750  0.08800  Biso   1.000  C
  C3       1.0000 0.70700  0.84990  0.13560  Biso   1.000  C
  H1       1.0000 0.72610  0.84410  0.22290  Biso   1.000  H
  C4       1.0000 0.57990  0.71760  0.11300  Biso   1.000  C
  C5       1.0000 0.72590  0.92600  0.95690  Biso   1.000  C
  H2       1.0000 0.75770  0.97080  0.92280  Biso   1.000  H
  C6       1.0000 0.63060  0.79160  0.05630  Biso   1.000  C
  C7       1.0000 0.60140  0.80000  0.92640  Biso   1.000  C
  H3       1.0000 0.55030  0.76010  0.87240  Biso   1.000  H
  O3       1.0000 0.60230  0.71570  0.22850  Biso   1.000  O
  O4       1.0000 0.51640  0.66280  0.04150  Biso   1.000  O
  C8       1.0000 0.64790  0.86730  0.87710  Biso   1.000  C
  H4       1.0000 0.62700  0.87360  0.78960  Biso   1.000  H
  O5       1.0000 0.36560  0.47390  0.29140  Biso   1.000  O
  O6       1.0000 0.38980  0.53350  0.12380  Biso   1.000  O
  C9       1.0000 0.34300  0.47830  0.17560  Biso   1.000  C
  C10      1.0000 0.25660  0.41750  0.08800  Biso   1.000  C
  C11      1.0000 0.20700  0.34990  0.13560  Biso   1.000  C
  H5       1.0000 0.22610  0.34410  0.22290  Biso   1.000  H
  C12      1.0000 0.07990  0.21760  0.11300  Biso   1.000  C
  C13      1.0000 0.22590  0.42600  0.95690  Biso   1.000  C
  H6       1.0000 0.25770  0.47080  0.92280  Biso   1.000  H
  C14      1.0000 0.13060  0.29160  0.05630  Biso   1.000  C
  C15      1.0000 0.10140  0.30000  0.92640  Biso   1.000  C
  H7       1.0000 0.05030  0.26010  0.87240  Biso   1.000  H
  O7       1.0000 0.10230  0.21570  0.22850  Biso   1.000  O
  O8       1.0000 0.01640  0.16280  0.04150  Biso   1.000  O
  C16      1.0000 0.14790  0.36730  0.87710  Biso   1.000  C
  H8       1.0000 0.12700  0.37360  0.78960  Biso   1.000  H
  O9       1.0000 0.13440  0.97390  0.20860  Biso   1.000  O
  O10      1.0000 0.11020  0.03350  0.37620  Biso   1.000  O
  C17      1.0000 0.15700  0.97830  0.32440  Biso   1.000  C
  C18      1.0000 0.24340  0.91750  0.41200  Biso   1.000  C
  C19      1.0000 0.29300  0.84990  0.36440  Biso   1.000  C
  H9       1.0000 0.27390  0.84410  0.27710  Biso   1.000  H
  C20      1.0000 0.42010  0.71760  0.38700  Biso   1.000  C
  C21      1.0000 0.27410  0.92600  0.54310  Biso   1.000  C
  H10      1.0000 0.24230  0.97080  0.57720  Biso   1.000  H
  C22      1.0000 0.36940  0.79160  0.44370  Biso   1.000  C
  C23      1.0000 0.39860  0.80000  0.57360  Biso   1.000  C
  H11      1.0000 0.44970  0.76010  0.62760  Biso   1.000  H
  O11      1.0000 0.39770  0.71570  0.27150  Biso   1.000  O
  O12      1.0000 0.48360  0.66280  0.45850  Biso   1.000  O
  C24      1.0000 0.35210  0.86730  0.62290  Biso   1.000  C
  H12      1.0000 0.37300  0.87360  0.71040  Biso   1.000  H
  O13      1.0000 0.63440  0.47390  0.20860  Biso   1.000  O
  O14      1.0000 0.61020  0.53350  0.37620  Biso   1.000  O
  C25      1.0000 0.65700  0.47830  0.32440  Biso   1.000  C
  C26      1.0000 0.74340  0.41750  0.41200  Biso   1.000  C
  C27      1.0000 0.79300  0.34990  0.36440  Biso   1.000  C
  H13      1.0000 0.77390  0.34410  0.27710  Biso   1.000  H
  C28      1.0000 0.92010  0.21760  0.38700  Biso   1.000  C
  C29      1.0000 0.77410  0.42600  0.54310  Biso   1.000  C
  H14      1.0000 0.74230  0.47080  0.57720  Biso   1.000  H
  C30      1.0000 0.86940  0.29160  0.44370  Biso   1.000  C
  C31      1.0000 0.89860  0.30000  0.57360  Biso   1.000  C
  H15      1.0000 0.94970  0.26010  0.62760  Biso   1.000  H
  O15      1.0000 0.89770  0.21570  0.27150  Biso   1.000  O
  O16      1.0000 0.98360  0.16280  0.45850  Biso   1.000  O
  C32      1.0000 0.85210  0.36730  0.62290  Biso   1.000  C
  H16      1.0000 0.87300  0.37360  0.71040  Biso   1.000  H
  O17      1.0000 0.13440  0.02610  0.70860  Biso   1.000  O
  O18      1.0000 0.11020  0.96650  0.87620  Biso   1.000  O
  C33      1.0000 0.15700  0.02170  0.82440  Biso   1.000  C
  C34      1.0000 0.24340  0.08250  0.91200  Biso   1.000  C
  C35      1.0000 0.29300  0.15010  0.86440  Biso   1.000  C
  H17      1.0000 0.27390  0.15590  0.77710  Biso   1.000  H
  C36      1.0000 0.42010  0.28240  0.88700  Biso   1.000  C
  C37      1.0000 0.27410  0.07400  0.04310  Biso   1.000  C
  H18      1.0000 0.24230  0.02920  0.07720  Biso   1.000  H
  C38      1.0000 0.36940  0.20840  0.94370  Biso   1.000  C
  C39      1.0000 0.39860  0.20000  0.07360  Biso   1.000  C
  H19      1.0000 0.44970  0.23990  0.12760  Biso   1.000  H
  O19      1.0000 0.39770  0.28430  0.77150  Biso   1.000  O
  O20      1.0000 0.48360  0.33720  0.95850  Biso   1.000  O
  C40      1.0000 0.35210  0.13270  0.12290  Biso   1.000  C
  H20      1.0000 0.37300  0.12640  0.21040  Biso   1.000  H
  O21      1.0000 0.63440  0.52610  0.70860  Biso   1.000  O
  O22      1.0000 0.61020  0.46650  0.87620  Biso   1.000  O
  C41      1.0000 0.65700  0.52170  0.82440  Biso   1.000  C
  C42      1.0000 0.74340  0.58250  0.91200  Biso   1.000  C
  C43      1.0000 0.79300  0.65010  0.86440  Biso   1.000  C
  H21      1.0000 0.77390  0.65590  0.77710  Biso   1.000  H
  C44      1.0000 0.92010  0.78240  0.88700  Biso   1.000  C
  C45      1.0000 0.77410  0.57400  0.04310  Biso   1.000  C
  H22      1.0000 0.74230  0.52920  0.07720  Biso   1.000  H
  C46      1.0000 0.86940  0.70840  0.94370  Biso   1.000  C
  C47      1.0000 0.89860  0.70000  0.07360  Biso   1.000  C
  H23      1.0000 0.94970  0.73990  0.12760  Biso   1.000  H
  O23      1.0000 0.89770  0.78430  0.77150  Biso   1.000  O
  O24      1.0000 0.98360  0.83720  0.95850  Biso   1.000  O
  C48      1.0000 0.85210  0.63270  0.12290  Biso   1.000  C
  H24      1.0000 0.87300  0.62640  0.21040  Biso   1.000  H
  O25      1.0000 0.86560  0.02610  0.79140  Biso   1.000  O
  O26      1.0000 0.88980  0.96650  0.62380  Biso   1.000  O
  C49      1.0000 0.84300  0.02170  0.67560  Biso   1.000  C
  C50      1.0000 0.75660  0.08250  0.58800  Biso   1.000  C
  C51      1.0000 0.70700  0.15010  0.63560  Biso   1.000  C
  H25      1.0000 0.72610  0.15590  0.72290  Biso   1.000  H
  C52      1.0000 0.57990  0.28240  0.61300  Biso   1.000  C
  C53      1.0000 0.72590  0.07400  0.45690  Biso   1.000  C
  H26      1.0000 0.75770  0.02920  0.42280  Biso   1.000  H
  C54      1.0000 0.63060  0.20840  0.55630  Biso   1.000  C
  C55      1.0000 0.60140  0.20000  0.42640  Biso   1.000  C
  H27      1.0000 0.55030  0.23990  0.37240  Biso   1.000  H
  O27      1.0000 0.60230  0.28430  0.72850  Biso   1.000  O
  O28      1.0000 0.51640  0.33720  0.54150  Biso   1.000  O
  C56      1.0000 0.64790  0.13270  0.37710  Biso   1.000  C
  H28      1.0000 0.62700  0.12640  0.28960  Biso   1.000  H
  O29      1.0000 0.36560  0.52610  0.79140  Biso   1.000  O
  O30      1.0000 0.38980  0.46650  0.62380  Biso   1.000  O
  C57      1.0000 0.34300  0.52170  0.67560  Biso   1.000  C
  C58      1.0000 0.25660  0.58250  0.58800  Biso   1.000  C
  C59      1.0000 0.20700  0.65010  0.63560  Biso   1.000  C
  H29      1.0000 0.22610  0.65590  0.72290  Biso   1.000  H
  C60      1.0000 0.07990  0.78240  0.61300  Biso   1.000  C
  C61      1.0000 0.22590  0.57400  0.45690  Biso   1.000  C
  H30      1.0000 0.25770  0.52920  0.42280  Biso   1.000  H
  C62      1.0000 0.13060  0.70840  0.55630  Biso   1.000  C
  C63      1.0000 0.10140  0.70000  0.42640  Biso   1.000  C
  H31      1.0000 0.05030  0.73990  0.37240  Biso   1.000  H
  O31      1.0000 0.10230  0.78430  0.72850  Biso   1.000  O
  O32      1.0000 0.01640  0.83720  0.54150  Biso   1.000  O
  C64      1.0000 0.14790  0.63270  0.37710  Biso   1.000  C
  H32      1.0000 0.12700  0.62640  0.28960  Biso   1.000  H
  Co1      1.0000 0.00000  0.11366  0.25000  Biso   1.000  Co
  Co2      1.0000 0.50000  0.61366  0.25000  Biso   1.000  Co
  Co3      1.0000 0.00000  0.88634  0.75000  Biso   1.000  Co
  Co4      1.0000 0.50000  0.38634  0.75000  Biso   1.000  Co
  Na1      1.0000 0.00000  0.00000  0.50000  Biso   1.000  Na
  Na2      1.0000 0.50000  0.50000  0.50000  Biso   1.000  Na
  Na3      1.0000 0.00000  0.00000  0.00000  Biso   1.000  Na
  Na4      1.0000 0.50000  0.50000  0.00000  Biso   1.000  Na
