data_image0
_cell_length_a       14.7366
_cell_length_b       13.5985
_cell_length_c       11.3369
_cell_angle_alpha    90
_cell_angle_beta     113.141
_cell_angle_gamma    90

_symmetry_space_group_name_H-M    "P 1"
_symmetry_int_tables_number       1

loop_
  _symmetry_equiv_pos_as_xyz
  'x, y, z'

loop_
  _atom_site_label
  _atom_site_occupancy
  _atom_site_fract_x
  _atom_site_fract_y
  _atom_site_fract_z
  _atom_site_thermal_displace_type
  _atom_site_B_iso_or_equiv
  _atom_site_type_symbol
  C1       1.0000 0.34690  0.48470  0.15430  Biso   1.000  C
  C2       1.0000 0.26030  0.42350  0.07030  Biso   1.000  C
  C3       1.0000 0.21270  0.36250  0.12590  Biso   1.000  C
  H1       1.0000 0.23310  0.36150  0.21460  Biso   1.000  H
  C4       1.0000 0.13490  0.30300  0.05070  Biso   1.000  C
  C5       1.0000 0.08510  0.23490  0.11150  Biso   1.000  C
  C6       1.0000 0.10390  0.30600  0.91800  Biso   1.000  C
  H2       1.0000 0.05220  0.26600  0.86670  Biso   1.000  H
  C7       1.0000 0.22810  0.42690  0.93750  Biso   1.000  C
  H3       1.0000 0.25900  0.46810  0.89940  Biso   1.000  H
  C8       1.0000 0.14960  0.36840  0.86230  Biso   1.000  C
  H4       1.0000 0.12760  0.37120  0.77340  Biso   1.000  H
  O1       1.0000 0.38530  0.54120  0.09600  Biso   1.000  O
  O2       1.0000 0.37670  0.48100  0.27300  Biso   1.000  O
  O3       1.0000 0.02490  0.17300  0.04460  Biso   1.000  O
  O4       1.0000 0.10530  0.24330  0.22930  Biso   1.000  O
  C9       1.0000 0.84690  0.98470  0.15430  Biso   1.000  C
  C10      1.0000 0.76030  0.92350  0.07030  Biso   1.000  C
  C11      1.0000 0.71270  0.86250  0.12590  Biso   1.000  C
  H5       1.0000 0.73310  0.86150  0.21460  Biso   1.000  H
  C12      1.0000 0.63490  0.80300  0.05070  Biso   1.000  C
  C13      1.0000 0.58510  0.73490  0.11150  Biso   1.000  C
  C14      1.0000 0.60390  0.80600  0.91800  Biso   1.000  C
  H6       1.0000 0.55220  0.76600  0.86670  Biso   1.000  H
  C15      1.0000 0.72810  0.92690  0.93750  Biso   1.000  C
  H7       1.0000 0.75900  0.96810  0.89940  Biso   1.000  H
  C16      1.0000 0.64960  0.86840  0.86230  Biso   1.000  C
  H8       1.0000 0.62760  0.87120  0.77340  Biso   1.000  H
  O5       1.0000 0.88530  0.04120  0.09600  Biso   1.000  O
  O6       1.0000 0.87670  0.98100  0.27300  Biso   1.000  O
  O7       1.0000 0.52490  0.67300  0.04460  Biso   1.000  O
  O8       1.0000 0.60530  0.74330  0.22930  Biso   1.000  O
  C17      1.0000 0.65310  0.48470  0.34570  Biso   1.000  C
  C18      1.0000 0.73970  0.42350  0.42970  Biso   1.000  C
  C19      1.0000 0.78730  0.36250  0.37410  Biso   1.000  C
  H9       1.0000 0.76690  0.36150  0.28540  Biso   1.000  H
  C20      1.0000 0.86510  0.30300  0.44930  Biso   1.000  C
  C21      1.0000 0.91490  0.23490  0.38850  Biso   1.000  C
  C22      1.0000 0.89610  0.30600  0.58200  Biso   1.000  C
  H10      1.0000 0.94780  0.26600  0.63330  Biso   1.000  H
  C23      1.0000 0.77190  0.42690  0.56250  Biso   1.000  C
  H11      1.0000 0.74100  0.46810  0.60060  Biso   1.000  H
  C24      1.0000 0.85040  0.36840  0.63770  Biso   1.000  C
  H12      1.0000 0.87240  0.37120  0.72660  Biso   1.000  H
  O9       1.0000 0.61470  0.54120  0.40400  Biso   1.000  O
  O10      1.0000 0.62330  0.48100  0.22700  Biso   1.000  O
  O11      1.0000 0.97510  0.17300  0.45540  Biso   1.000  O
  O12      1.0000 0.89470  0.24330  0.27070  Biso   1.000  O
  C25      1.0000 0.15310  0.98470  0.34570  Biso   1.000  C
  C26      1.0000 0.23970  0.92350  0.42970  Biso   1.000  C
  C27      1.0000 0.28730  0.86250  0.37410  Biso   1.000  C
  H13      1.0000 0.26690  0.86150  0.28540  Biso   1.000  H
  C28      1.0000 0.36510  0.80300  0.44930  Biso   1.000  C
  C29      1.0000 0.41490  0.73490  0.38850  Biso   1.000  C
  C30      1.0000 0.39610  0.80600  0.58200  Biso   1.000  C
  H14      1.0000 0.44780  0.76600  0.63330  Biso   1.000  H
  C31      1.0000 0.27190  0.92690  0.56250  Biso   1.000  C
  H15      1.0000 0.24100  0.96810  0.60060  Biso   1.000  H
  C32      1.0000 0.35040  0.86840  0.63770  Biso   1.000  C
  H16      1.0000 0.37240  0.87120  0.72660  Biso   1.000  H
  O13      1.0000 0.11470  0.04120  0.40400  Biso   1.000  O
  O14      1.0000 0.12330  0.98100  0.22700  Biso   1.000  O
  O15      1.0000 0.47510  0.67300  0.45540  Biso   1.000  O
  O16      1.0000 0.39470  0.74330  0.27070  Biso   1.000  O
  C33      1.0000 0.65310  0.51530  0.84570  Biso   1.000  C
  C34      1.0000 0.73970  0.57650  0.92970  Biso   1.000  C
  C35      1.0000 0.78730  0.63750  0.87410  Biso   1.000  C
  H17      1.0000 0.76690  0.63850  0.78540  Biso   1.000  H
  C36      1.0000 0.86510  0.69700  0.94930  Biso   1.000  C
  C37      1.0000 0.91490  0.76510  0.88850  Biso   1.000  C
  C38      1.0000 0.89610  0.69400  0.08200  Biso   1.000  C
  H18      1.0000 0.94780  0.73400  0.13330  Biso   1.000  H
  C39      1.0000 0.77190  0.57310  0.06250  Biso   1.000  C
  H19      1.0000 0.74100  0.53190  0.10060  Biso   1.000  H
  C40      1.0000 0.85040  0.63160  0.13770  Biso   1.000  C
  H20      1.0000 0.87240  0.62880  0.22660  Biso   1.000  H
  O17      1.0000 0.61470  0.45880  0.90400  Biso   1.000  O
  O18      1.0000 0.62330  0.51900  0.72700  Biso   1.000  O
  O19      1.0000 0.97510  0.82700  0.95540  Biso   1.000  O
  O20      1.0000 0.89470  0.75670  0.77070  Biso   1.000  O
  C41      1.0000 0.15310  0.01530  0.84570  Biso   1.000  C
  C42      1.0000 0.23970  0.07650  0.92970  Biso   1.000  C
  C43      1.0000 0.28730  0.13750  0.87410  Biso   1.000  C
  H21      1.0000 0.26690  0.13850  0.78540  Biso   1.000  H
  C44      1.0000 0.36510  0.19700  0.94930  Biso   1.000  C
  C45      1.0000 0.41490  0.26510  0.88850  Biso   1.000  C
  C46      1.0000 0.39610  0.19400  0.08200  Biso   1.000  C
  H22      1.0000 0.44780  0.23400  0.13330  Biso   1.000  H
  C47      1.0000 0.27190  0.07310  0.06250  Biso   1.000  C
  H23      1.0000 0.24100  0.03190  0.10060  Biso   1.000  H
  C48      1.0000 0.35040  0.13160  0.13770  Biso   1.000  C
  H24      1.0000 0.37240  0.12880  0.22660  Biso   1.000  H
  O21      1.0000 0.11470  0.95880  0.90400  Biso   1.000  O
  O22      1.0000 0.12330  0.01900  0.72700  Biso   1.000  O
  O23      1.0000 0.47510  0.32700  0.95540  Biso   1.000  O
  O24      1.0000 0.39470  0.25670  0.77070  Biso   1.000  O
  C49      1.0000 0.34690  0.51530  0.65430  Biso   1.000  C
  C50      1.0000 0.26030  0.57650  0.57030  Biso   1.000  C
  C51      1.0000 0.21270  0.63750  0.62590  Biso   1.000  C
  H25      1.0000 0.23310  0.63850  0.71460  Biso   1.000  H
  C52      1.0000 0.13490  0.69700  0.55070  Biso   1.000  C
  C53      1.0000 0.08510  0.76510  0.61150  Biso   1.000  C
  C54      1.0000 0.10390  0.69400  0.41800  Biso   1.000  C
  H26      1.0000 0.05220  0.73400  0.36670  Biso   1.000  H
  C55      1.0000 0.22810  0.57310  0.43750  Biso   1.000  C
  H27      1.0000 0.25900  0.53190  0.39940  Biso   1.000  H
  C56      1.0000 0.14960  0.63160  0.36230  Biso   1.000  C
  H28      1.0000 0.12760  0.62880  0.27340  Biso   1.000  H
  O25      1.0000 0.38530  0.45880  0.59600  Biso   1.000  O
  O26      1.0000 0.37670  0.51900  0.77300  Biso   1.000  O
  O27      1.0000 0.02490  0.82700  0.54460  Biso   1.000  O
  O28      1.0000 0.10530  0.75670  0.72930  Biso   1.000  O
  C57      1.0000 0.84690  0.01530  0.65430  Biso   1.000  C
  C58      1.0000 0.76030  0.07650  0.57030  Biso   1.000  C
  C59      1.0000 0.71270  0.13750  0.62590  Biso   1.000  C
  H29      1.0000 0.73310  0.13850  0.71460  Biso   1.000  H
  C60      1.0000 0.63490  0.19700  0.55070  Biso   1.000  C
  C61      1.0000 0.58510  0.26510  0.61150  Biso   1.000  C
  C62      1.0000 0.60390  0.19400  0.41800  Biso   1.000  C
  H30      1.0000 0.55220  0.23400  0.36670  Biso   1.000  H
  C63      1.0000 0.72810  0.07310  0.43750  Biso   1.000  C
  H31      1.0000 0.75900  0.03190  0.39940  Biso   1.000  H
  C64      1.0000 0.64960  0.13160  0.36230  Biso   1.000  C
  H32      1.0000 0.62760  0.12880  0.27340  Biso   1.000  H
  O29      1.0000 0.88530  0.95880  0.59600  Biso   1.000  O
  O30      1.0000 0.87670  0.01900  0.77300  Biso   1.000  O
  O31      1.0000 0.52490  0.32700  0.54460  Biso   1.000  O
  O32      1.0000 0.60530  0.25670  0.72930  Biso   1.000  O
  Na1      1.0000 0.50000  0.50000  0.00000  Biso   1.000  Na
  Na2      1.0000 0.00000  0.00000  0.00000  Biso   1.000  Na
  Na3      1.0000 0.50000  0.50000  0.50000  Biso   1.000  Na
  Na4      1.0000 0.00000  0.00000  0.50000  Biso   1.000  Na
  Cd1      1.0000 0.50000  0.62767  0.25000  Biso   1.000  Cd
  Cd2      1.0000 0.00000  0.12767  0.25000  Biso   1.000  Cd
  Cd3      1.0000 0.50000  0.37233  0.75000  Biso   1.000  Cd
  Cd4      1.0000 0.00000  0.87233  0.75000  Biso   1.000  Cd
