data_TINFIH_clean
_audit_creation_date              2015-10-16
_audit_creation_method            'Materials Studio'
_symmetry_space_group_name_H-M    'P1'
_symmetry_Int_Tables_number       1
_symmetry_cell_setting            triclinic
loop_
_symmetry_equiv_pos_as_xyz
  x,y,z
_cell_length_a                    10.3270
_cell_length_b                    12.1290
_cell_length_c                    15.0730
_cell_angle_alpha                 90.0000
_cell_angle_beta                  106.2880
_cell_angle_gamma                 90.0000
loop_
_atom_site_label
_atom_site_type_symbol
_atom_site_fract_x
_atom_site_fract_y
_atom_site_fract_z
_atom_site_U_iso_or_equiv
_atom_site_adp_type
_atom_site_occupancy
U1     U     0.16176   0.07060   0.57247   0.01267  Uiso   1.00
U2     U     0.22351   0.60399   0.25914   0.01267  Uiso   1.00
U3     U     0.27649   0.10399   0.24086   0.01267  Uiso   1.00
U4     U     0.33824   0.57060   0.92753   0.01267  Uiso   1.00
U5     U     0.72351   0.89601   0.75914   0.01267  Uiso   1.00
U6     U     0.66176   0.42940   0.07247   0.01267  Uiso   1.00
U7     U     0.83824   0.92940   0.42753   0.01267  Uiso   1.00
U8     U     0.77649   0.39601   0.74086   0.01267  Uiso   1.00
H1     H     0.34940   0.81270   0.43170   0.01267  Uiso   1.00
H2     H     0.11950   0.93530   0.00950   0.01267  Uiso   1.00
H3     H     0.38050   0.43530   0.49050   0.01267  Uiso   1.00
H4     H     0.61950   0.56470   0.50950   0.01267  Uiso   1.00
H5     H     0.15060   0.31270   0.06830   0.01267  Uiso   1.00
H6     H     0.88050   0.06470   0.99050   0.01267  Uiso   1.00
H7     H     0.65060   0.18730   0.56830   0.01267  Uiso   1.00
H8     H     0.84940   0.68730   0.93170   0.01267  Uiso   1.00
C1     C     0.91470   0.13320   0.98070   0.01267  Uiso   1.00
C2     C     0.04850   0.44400   0.91710   0.01267  Uiso   1.00
C3     C     0.00660   0.33520   0.94640   0.01267  Uiso   1.00
C4     C     0.57590   0.21960   0.52710   0.01267  Uiso   1.00
C5     C     0.73070   0.15460   0.83030   0.01267  Uiso   1.00
C6     C     0.95150   0.55600   0.08290   0.01267  Uiso   1.00
C7     C     0.85270   0.19350   0.90370   0.01267  Uiso   1.00
C8     C     0.58530   0.63320   0.51930   0.01267  Uiso   1.00
C9     C     0.49340   0.83520   0.55360   0.01267  Uiso   1.00
C10    C     0.99340   0.66480   0.05360   0.01267  Uiso   1.00
C11    C     0.96860   0.82390   0.95480   0.01267  Uiso   1.00
C12    C     0.64730   0.69350   0.59630   0.01267  Uiso   1.00
C13    C     0.23070   0.34540   0.33030   0.01267  Uiso   1.00
C14    C     0.03140   0.17610   0.04520   0.01267  Uiso   1.00
C15    C     0.42410   0.78040   0.47290   0.01267  Uiso   1.00
C16    C     0.08530   0.86680   0.01930   0.01267  Uiso   1.00
C17    C     0.45150   0.94400   0.58290   0.01267  Uiso   1.00
C18    C     0.07590   0.28040   0.02710   0.01267  Uiso   1.00
C19    C     0.26930   0.84540   0.16970   0.01267  Uiso   1.00
C20    C     0.50660   0.16480   0.44640   0.01267  Uiso   1.00
C21    C     0.76930   0.65460   0.66970   0.01267  Uiso   1.00
C22    C     0.35270   0.30650   0.40370   0.01267  Uiso   1.00
C23    C     0.14730   0.80650   0.09630   0.01267  Uiso   1.00
C24    C     0.54850   0.05600   0.41710   0.01267  Uiso   1.00
C25    C     0.41470   0.36680   0.48070   0.01267  Uiso   1.00
C26    C     0.53140   0.32390   0.54520   0.01267  Uiso   1.00
C27    C     0.92410   0.71960   0.97290   0.01267  Uiso   1.00
C28    C     0.46860   0.67610   0.45480   0.01267  Uiso   1.00
N1     N     0.39510   0.20670   0.38510   0.01267  Uiso   1.00
N2     N     0.60490   0.79330   0.61490   0.01267  Uiso   1.00
N3     N     0.89510   0.29330   0.88510   0.01267  Uiso   1.00
N4     N     0.10490   0.70670   0.11490   0.01267  Uiso   1.00
O1     O     0.68800   0.05690   0.83660   0.01267  Uiso   1.00
O2     O     0.42940   0.44540   0.04700   0.01267  Uiso   1.00
O3     O     0.07060   0.94540   0.45300   0.01267  Uiso   1.00
O4     O     0.58960   0.38040   0.62020   0.01267  Uiso   1.00
O5     O     0.64860   0.00670   0.46840   0.01267  Uiso   1.00
O6     O     0.32130   0.78030   0.23360   0.01267  Uiso   1.00
O7     O     0.85140   0.50670   0.03160   0.01267  Uiso   1.00
O8     O     0.08960   0.11960   0.12020   0.01267  Uiso   1.00
O9     O     0.67870   0.21970   0.76640   0.01267  Uiso   1.00
O10    O     0.14860   0.49330   0.96840   0.01267  Uiso   1.00
O11    O     0.57060   0.55460   0.95300   0.01267  Uiso   1.00
O12    O     0.81200   0.55690   0.66340   0.01267  Uiso   1.00
O13    O     0.35140   0.99330   0.53160   0.01267  Uiso   1.00
O14    O     0.82130   0.71970   0.73360   0.01267  Uiso   1.00
O15    O     0.41040   0.61960   0.37980   0.01267  Uiso   1.00
O16    O     0.47700   0.01930   0.34070   0.01267  Uiso   1.00
O17    O     0.18800   0.44310   0.33660   0.01267  Uiso   1.00
O18    O     0.17870   0.28030   0.26640   0.01267  Uiso   1.00
O19    O     0.91040   0.88040   0.87980   0.01267  Uiso   1.00
O20    O     0.52300   0.98070   0.65930   0.01267  Uiso   1.00
O21    O     0.02300   0.51930   0.15930   0.01267  Uiso   1.00
O22    O     0.92940   0.05460   0.54700   0.01267  Uiso   1.00
O23    O     0.31200   0.94310   0.16340   0.01267  Uiso   1.00
O24    O     0.97700   0.48070   0.84070   0.01267  Uiso   1.00
