data_image0
_cell_length_a       8.9999
_cell_length_b       9.1123
_cell_length_c       9.4932
_cell_angle_alpha    90.837
_cell_angle_beta     94.231
_cell_angle_gamma    94.178

_symmetry_space_group_name_H-M    "P 1"
_symmetry_int_tables_number       1

loop_
  _symmetry_equiv_pos_as_xyz
  'x, y, z'

loop_
  _atom_site_label
  _atom_site_occupancy
  _atom_site_fract_x
  _atom_site_fract_y
  _atom_site_fract_z
  _atom_site_thermal_displace_type
  _atom_site_B_iso_or_equiv
  _atom_site_type_symbol
  Ga1      1.0000 0.28306  0.07308  0.61728  Biso   1.000  Ga
  Ga2      1.0000 0.61057  0.34147  0.13351  Biso   1.000  Ga
  Ga3      1.0000 0.19182  0.09975  0.09224  Biso   1.000  Ga
  P1       1.0000 0.43931  0.14548  0.33640  Biso   1.000  P
  P2       1.0000 0.36696  0.29998  0.88344  Biso   1.000  P
  P3       1.0000 0.12759  0.86355  0.86230  Biso   1.000  P
  O1       1.0000 0.34150  0.17900  0.45510  Biso   1.000  O
  O2       1.0000 0.34710  0.06170  0.21400  Biso   1.000  O
  O3       1.0000 0.56700  0.05790  0.38290  Biso   1.000  O
  O4       1.0000 0.49790  0.29760  0.27980  Biso   1.000  O
  O5       1.0000 0.23560  0.24420  0.96830  Biso   1.000  O
  O6       1.0000 0.36680  0.22870  0.73970  Biso   1.000  O
  O7       1.0000 0.51430  0.27310  0.96740  Biso   1.000  O
  O8       1.0000 0.35220  0.46290  0.86700  Biso   1.000  O
  O9       1.0000 0.19950  0.71640  0.85300  Biso   1.000  O
  O10      1.0000 0.13580  0.91570  0.01900  Biso   1.000  O
  O11      1.0000 0.20290  0.97840  0.77800  Biso   1.000  O
  O12      1.0000 0.96120  0.83230  0.81270  Biso   1.000  O
  O13      1.0000 0.07730  0.15950  0.58870  Biso   1.000  O
  O14      1.0000 0.84120  0.09490  0.51060  Biso   1.000  O
  C1       1.0000 0.97620  0.07310  0.52850  Biso   1.000  C
  Ga4      1.0000 0.71694  0.92692  0.38272  Biso   1.000  Ga
  Ga5      1.0000 0.38943  0.65853  0.86649  Biso   1.000  Ga
  Ga6      1.0000 0.80818  0.90025  0.90776  Biso   1.000  Ga
  P4       1.0000 0.56069  0.85452  0.66360  Biso   1.000  P
  P5       1.0000 0.63304  0.70002  0.11656  Biso   1.000  P
  P6       1.0000 0.87241  0.13645  0.13770  Biso   1.000  P
  O15      1.0000 0.65850  0.82100  0.54490  Biso   1.000  O
  O16      1.0000 0.65290  0.93830  0.78600  Biso   1.000  O
  O17      1.0000 0.43300  0.94210  0.61710  Biso   1.000  O
  O18      1.0000 0.50210  0.70240  0.72020  Biso   1.000  O
  O19      1.0000 0.76440  0.75580  0.03170  Biso   1.000  O
  O20      1.0000 0.63320  0.77130  0.26030  Biso   1.000  O
  O21      1.0000 0.48570  0.72690  0.03260  Biso   1.000  O
  O22      1.0000 0.64780  0.53710  0.13300  Biso   1.000  O
  O23      1.0000 0.80050  0.28360  0.14700  Biso   1.000  O
  O24      1.0000 0.86420  0.08430  0.98100  Biso   1.000  O
  O25      1.0000 0.79710  0.02160  0.22200  Biso   1.000  O
  O26      1.0000 0.03880  0.16770  0.18730  Biso   1.000  O
  O27      1.0000 0.92270  0.84050  0.41130  Biso   1.000  O
  O28      1.0000 0.15880  0.90510  0.48940  Biso   1.000  O
  C2       1.0000 0.02380  0.92690  0.47150  Biso   1.000  C
