data_image0
_cell_length_a       12.238
_cell_length_b       12.238
_cell_length_c       12.398
_cell_angle_alpha    90
_cell_angle_beta     90
_cell_angle_gamma    90

_symmetry_space_group_name_H-M    "P 1"
_symmetry_int_tables_number       1

loop_
  _symmetry_equiv_pos_as_xyz
  'x, y, z'

loop_
  _atom_site_label
  _atom_site_occupancy
  _atom_site_fract_x
  _atom_site_fract_y
  _atom_site_fract_z
  _atom_site_thermal_displace_type
  _atom_site_B_iso_or_equiv
  _atom_site_type_symbol
  C1       1.0000 0.76670  0.86540  0.31780  Biso   1.000  C
  H1       1.0000 0.72410  0.89190  0.37410  Biso   1.000  H
  C2       1.0000 0.72350  0.85950  0.22040  Biso   1.000  C
  H2       1.0000 0.65040  0.87690  0.20950  Biso   1.000  H
  C3       1.0000 0.78900  0.82670  0.13370  Biso   1.000  C
  C4       1.0000 0.89560  0.79860  0.15350  Biso   1.000  C
  H3       1.0000 0.94070  0.77690  0.09710  Biso   1.000  H
  C5       1.0000 0.93620  0.80280  0.25910  Biso   1.000  C
  C6       1.0000 0.04730  0.76230  0.28420  Biso   1.000  C
  C7       1.0000 0.07640  0.65890  0.26220  Biso   1.000  C
  H4       1.0000 0.02470  0.61140  0.23360  Biso   1.000  H
  C8       1.0000 0.17960  0.62180  0.28070  Biso   1.000  C
  C9       1.0000 0.25470  0.69130  0.32460  Biso   1.000  C
  H5       1.0000 0.32550  0.66780  0.33890  Biso   1.000  H
  C10      1.0000 0.22360  0.79610  0.34720  Biso   1.000  C
  H6       1.0000 0.27460  0.84330  0.37750  Biso   1.000  H
  N1       1.0000 0.87030  0.83440  0.33870  Biso   1.000  N
  N2       1.0000 0.12270  0.83350  0.32760  Biso   1.000  N
  O1       1.0000 0.90710  0.84180  0.43950  Biso   1.000  O
  O2       1.0000 0.09810  0.93170  0.34410  Biso   1.000  O
  O3       1.0000 0.66750  0.91400  0.98970  Biso   1.000  O
  O4       1.0000 0.66610  0.71720  0.00660  Biso   1.000  O
  O5       1.0000 0.82410  0.80700  0.93100  Biso   1.000  O
  O6       1.0000 0.14880  0.45740  0.15110  Biso   1.000  O
  O7       1.0000 0.18210  0.41690  0.33730  Biso   1.000  O
  O8       1.0000 0.32740  0.48480  0.21970  Biso   1.000  O
  Na1      1.0000 0.71480  0.52900  0.99960  Biso   1.000  Na
  S1       1.0000 0.73205  0.81523  0.00110  Biso   1.000  S
  S2       1.0000 0.21400  0.48290  0.24620  Biso   1.000  S
  O9       1.0000 0.58260  0.12660  0.11160  Biso   1.000  O
  C11      1.0000 0.23330  0.13460  0.31780  Biso   1.000  C
  H7       1.0000 0.27590  0.10810  0.37410  Biso   1.000  H
  C12      1.0000 0.27650  0.14050  0.22040  Biso   1.000  C
  H8       1.0000 0.34960  0.12310  0.20950  Biso   1.000  H
  C13      1.0000 0.21100  0.17330  0.13370  Biso   1.000  C
  C14      1.0000 0.10440  0.20140  0.15350  Biso   1.000  C
  H9       1.0000 0.05930  0.22310  0.09710  Biso   1.000  H
  C15      1.0000 0.06380  0.19720  0.25910  Biso   1.000  C
  C16      1.0000 0.95270  0.23770  0.28420  Biso   1.000  C
  C17      1.0000 0.92360  0.34110  0.26220  Biso   1.000  C
  H10      1.0000 0.97530  0.38860  0.23360  Biso   1.000  H
  C18      1.0000 0.82040  0.37820  0.28070  Biso   1.000  C
  C19      1.0000 0.74530  0.30870  0.32460  Biso   1.000  C
  H11      1.0000 0.67450  0.33220  0.33890  Biso   1.000  H
  C20      1.0000 0.77640  0.20390  0.34720  Biso   1.000  C
  H12      1.0000 0.72540  0.15670  0.37750  Biso   1.000  H
  N3       1.0000 0.12970  0.16560  0.33870  Biso   1.000  N
  N4       1.0000 0.87730  0.16650  0.32760  Biso   1.000  N
  O10      1.0000 0.09290  0.15820  0.43950  Biso   1.000  O
  O11      1.0000 0.90190  0.06830  0.34410  Biso   1.000  O
  O12      1.0000 0.33250  0.08600  0.98970  Biso   1.000  O
  O13      1.0000 0.33390  0.28280  0.00660  Biso   1.000  O
  O14      1.0000 0.17590  0.19300  0.93100  Biso   1.000  O
  O15      1.0000 0.85120  0.54260  0.15110  Biso   1.000  O
  O16      1.0000 0.81790  0.58310  0.33730  Biso   1.000  O
  O17      1.0000 0.67260  0.51520  0.21970  Biso   1.000  O
  Na2      1.0000 0.28520  0.47100  0.99960  Biso   1.000  Na
  S3       1.0000 0.26795  0.18477  0.00110  Biso   1.000  S
  S4       1.0000 0.78600  0.51710  0.24620  Biso   1.000  S
  O18      1.0000 0.41740  0.87340  0.11160  Biso   1.000  O
  C21      1.0000 0.86540  0.23330  0.68220  Biso   1.000  C
  H13      1.0000 0.89190  0.27590  0.62590  Biso   1.000  H
  C22      1.0000 0.85950  0.27650  0.77960  Biso   1.000  C
  H14      1.0000 0.87690  0.34960  0.79050  Biso   1.000  H
  C23      1.0000 0.82670  0.21100  0.86630  Biso   1.000  C
  C24      1.0000 0.79860  0.10440  0.84650  Biso   1.000  C
  H15      1.0000 0.77690  0.05930  0.90290  Biso   1.000  H
  C25      1.0000 0.80280  0.06380  0.74090  Biso   1.000  C
  C26      1.0000 0.76230  0.95270  0.71580  Biso   1.000  C
  C27      1.0000 0.65890  0.92360  0.73780  Biso   1.000  C
  H16      1.0000 0.61140  0.97530  0.76640  Biso   1.000  H
  C28      1.0000 0.62180  0.82040  0.71930  Biso   1.000  C
  C29      1.0000 0.69130  0.74530  0.67540  Biso   1.000  C
  H17      1.0000 0.66780  0.67450  0.66110  Biso   1.000  H
  C30      1.0000 0.79610  0.77640  0.65280  Biso   1.000  C
  H18      1.0000 0.84330  0.72540  0.62250  Biso   1.000  H
  N5       1.0000 0.83440  0.12970  0.66130  Biso   1.000  N
  N6       1.0000 0.83350  0.87730  0.67240  Biso   1.000  N
  O19      1.0000 0.84180  0.09290  0.56050  Biso   1.000  O
  O20      1.0000 0.93170  0.90190  0.65590  Biso   1.000  O
  O21      1.0000 0.91400  0.33250  0.01030  Biso   1.000  O
  O22      1.0000 0.71720  0.33390  0.99340  Biso   1.000  O
  O23      1.0000 0.80700  0.17590  0.06900  Biso   1.000  O
  O24      1.0000 0.45740  0.85120  0.84890  Biso   1.000  O
  O25      1.0000 0.41690  0.81790  0.66270  Biso   1.000  O
  O26      1.0000 0.48480  0.67260  0.78030  Biso   1.000  O
  Na3      1.0000 0.52900  0.28520  0.00040  Biso   1.000  Na
  S5       1.0000 0.81523  0.26795  0.99890  Biso   1.000  S
  S6       1.0000 0.48290  0.78600  0.75380  Biso   1.000  S
  O27      1.0000 0.12660  0.41740  0.88840  Biso   1.000  O
  C31      1.0000 0.13460  0.76670  0.68220  Biso   1.000  C
  H19      1.0000 0.10810  0.72410  0.62590  Biso   1.000  H
  C32      1.0000 0.14050  0.72350  0.77960  Biso   1.000  C
  H20      1.0000 0.12310  0.65040  0.79050  Biso   1.000  H
  C33      1.0000 0.17330  0.78900  0.86630  Biso   1.000  C
  C34      1.0000 0.20140  0.89560  0.84650  Biso   1.000  C
  H21      1.0000 0.22310  0.94070  0.90290  Biso   1.000  H
  C35      1.0000 0.19720  0.93620  0.74090  Biso   1.000  C
  C36      1.0000 0.23770  0.04730  0.71580  Biso   1.000  C
  C37      1.0000 0.34110  0.07640  0.73780  Biso   1.000  C
  H22      1.0000 0.38860  0.02470  0.76640  Biso   1.000  H
  C38      1.0000 0.37820  0.17960  0.71930  Biso   1.000  C
  C39      1.0000 0.30870  0.25470  0.67540  Biso   1.000  C
  H23      1.0000 0.33220  0.32550  0.66110  Biso   1.000  H
  C40      1.0000 0.20390  0.22360  0.65280  Biso   1.000  C
  H24      1.0000 0.15670  0.27460  0.62250  Biso   1.000  H
  N7       1.0000 0.16560  0.87030  0.66130  Biso   1.000  N
  N8       1.0000 0.16650  0.12270  0.67240  Biso   1.000  N
  O28      1.0000 0.15820  0.90710  0.56050  Biso   1.000  O
  O29      1.0000 0.06830  0.09810  0.65590  Biso   1.000  O
  O30      1.0000 0.08600  0.66750  0.01030  Biso   1.000  O
  O31      1.0000 0.28280  0.66610  0.99340  Biso   1.000  O
  O32      1.0000 0.19300  0.82410  0.06900  Biso   1.000  O
  O33      1.0000 0.54260  0.14880  0.84890  Biso   1.000  O
  O34      1.0000 0.58310  0.18210  0.66270  Biso   1.000  O
  O35      1.0000 0.51520  0.32740  0.78030  Biso   1.000  O
  Na4      1.0000 0.47100  0.71480  0.00040  Biso   1.000  Na
  S7       1.0000 0.18477  0.73205  0.99890  Biso   1.000  S
  S8       1.0000 0.51710  0.21400  0.75380  Biso   1.000  S
  O36      1.0000 0.87340  0.58260  0.88840  Biso   1.000  O
  Na5      1.0000 0.50000  0.00000  0.98820  Biso   1.000  Na
  Na6      1.0000 0.00000  0.50000  0.01180  Biso   1.000  Na
  Sm1      1.0000 0.00000  0.00000  0.50000  Biso   1.000  Sm
  Cl1      1.0000 0.50000  0.50000  0.94500  Biso   1.000  Cl
  Cl2      1.0000 0.50000  0.50000  0.05500  Biso   1.000  Cl
