data_TIQHEH_clean
_audit_creation_date              2014-07-02
_audit_creation_method            'Materials Studio'
_symmetry_space_group_name_H-M    'P1'
_symmetry_Int_Tables_number       1
_symmetry_cell_setting            triclinic
loop_
_symmetry_equiv_pos_as_xyz
  x,y,z
_cell_length_a                    12.2450
_cell_length_b                    12.2450
_cell_length_c                    12.4070
_cell_angle_alpha                 90.0000
_cell_angle_beta                  90.0000
_cell_angle_gamma                 90.0000
loop_
_atom_site_label
_atom_site_type_symbol
_atom_site_fract_x
_atom_site_fract_y
_atom_site_fract_z
_atom_site_U_iso_or_equiv
_atom_site_adp_type
_atom_site_occupancy
Tb1    Tb    0.00000   0.00000   0.50000   0.01267  Uiso   1.00
Na1    Na    0.52840   0.27310   0.99380   0.01267  Uiso   1.00
Na2    Na    0.47160   0.72690   0.99380   0.01267  Uiso   1.00
Na3    Na    0.27310   0.47160   0.00620   0.01267  Uiso   1.00
Na4    Na    0.72690   0.52840   0.00620   0.01267  Uiso   1.00
Na5    Na    0.00000   0.50000   0.98660   0.01267  Uiso   1.00
Na6    Na    0.50000   0.00000   0.01340   0.01267  Uiso   1.00
H1     H     0.84340   0.72550   0.38180   0.01267  Uiso   1.00
H2     H     0.66660   0.67390   0.33990   0.01267  Uiso   1.00
H3     H     0.60800   0.98060   0.23340   0.01267  Uiso   1.00
H4     H     0.77670   0.05510   0.09670   0.01267  Uiso   1.00
H5     H     0.88800   0.34960   0.20210   0.01267  Uiso   1.00
H6     H     0.89680   0.28060   0.37670   0.01267  Uiso   1.00
H7     H     0.15660   0.27450   0.38180   0.01267  Uiso   1.00
H8     H     0.33340   0.32610   0.33990   0.01267  Uiso   1.00
H9     H     0.39200   0.01940   0.23340   0.01267  Uiso   1.00
H10    H     0.22330   0.94490   0.09670   0.01267  Uiso   1.00
H11    H     0.11200   0.65040   0.20210   0.01267  Uiso   1.00
H12    H     0.10320   0.71940   0.37670   0.01267  Uiso   1.00
H13    H     0.72550   0.15660   0.61820   0.01267  Uiso   1.00
H14    H     0.67390   0.33340   0.66010   0.01267  Uiso   1.00
H15    H     0.98060   0.39200   0.76660   0.01267  Uiso   1.00
H16    H     0.05510   0.22330   0.90330   0.01267  Uiso   1.00
H17    H     0.34960   0.11200   0.79790   0.01267  Uiso   1.00
H18    H     0.28060   0.10320   0.62330   0.01267  Uiso   1.00
H19    H     0.27450   0.84340   0.61820   0.01267  Uiso   1.00
H20    H     0.32610   0.66660   0.66010   0.01267  Uiso   1.00
H21    H     0.01940   0.60800   0.76660   0.01267  Uiso   1.00
H22    H     0.94490   0.77670   0.90330   0.01267  Uiso   1.00
H23    H     0.65040   0.88800   0.79790   0.01267  Uiso   1.00
H24    H     0.71940   0.89680   0.62330   0.01267  Uiso   1.00
C1     C     0.79550   0.77720   0.34980   0.01267  Uiso   1.00
C2     C     0.69070   0.74610   0.32530   0.01267  Uiso   1.00
C3     C     0.62020   0.82170   0.27900   0.01267  Uiso   1.00
C4     C     0.65630   0.92750   0.26250   0.01267  Uiso   1.00
C5     C     0.76410   0.95650   0.28860   0.01267  Uiso   1.00
C6     C     0.80590   0.06440   0.26070   0.01267  Uiso   1.00
C7     C     0.80050   0.10190   0.15300   0.01267  Uiso   1.00
C8     C     0.83100   0.20900   0.13190   0.01267  Uiso   1.00
C9     C     0.86700   0.27630   0.21620   0.01267  Uiso   1.00
C10    C     0.87160   0.23560   0.31950   0.01267  Uiso   1.00
C11    C     0.20450   0.22280   0.34980   0.01267  Uiso   1.00
C12    C     0.30930   0.25390   0.32530   0.01267  Uiso   1.00
C13    C     0.37980   0.17830   0.27900   0.01267  Uiso   1.00
C14    C     0.34370   0.07250   0.26250   0.01267  Uiso   1.00
C15    C     0.23590   0.04350   0.28860   0.01267  Uiso   1.00
C16    C     0.19410   0.93560   0.26070   0.01267  Uiso   1.00
C17    C     0.19950   0.89810   0.15300   0.01267  Uiso   1.00
C18    C     0.16900   0.79100   0.13190   0.01267  Uiso   1.00
C19    C     0.13300   0.72370   0.21620   0.01267  Uiso   1.00
C20    C     0.12840   0.76440   0.31950   0.01267  Uiso   1.00
C21    C     0.77720   0.20450   0.65020   0.01267  Uiso   1.00
C22    C     0.74610   0.30930   0.67470   0.01267  Uiso   1.00
C23    C     0.82170   0.37980   0.72100   0.01267  Uiso   1.00
C24    C     0.92750   0.34370   0.73750   0.01267  Uiso   1.00
C25    C     0.95650   0.23590   0.71140   0.01267  Uiso   1.00
C26    C     0.06440   0.19410   0.73930   0.01267  Uiso   1.00
C27    C     0.10190   0.19950   0.84700   0.01267  Uiso   1.00
C28    C     0.20900   0.16900   0.86810   0.01267  Uiso   1.00
C29    C     0.27630   0.13300   0.78380   0.01267  Uiso   1.00
C30    C     0.23560   0.12840   0.68050   0.01267  Uiso   1.00
C31    C     0.22280   0.79550   0.65020   0.01267  Uiso   1.00
C32    C     0.25390   0.69070   0.67470   0.01267  Uiso   1.00
C33    C     0.17830   0.62020   0.72100   0.01267  Uiso   1.00
C34    C     0.07250   0.65630   0.73750   0.01267  Uiso   1.00
C35    C     0.04350   0.76410   0.71140   0.01267  Uiso   1.00
C36    C     0.93560   0.80590   0.73930   0.01267  Uiso   1.00
C37    C     0.89810   0.80050   0.84700   0.01267  Uiso   1.00
C38    C     0.79100   0.83100   0.86810   0.01267  Uiso   1.00
C39    C     0.72370   0.86700   0.78380   0.01267  Uiso   1.00
C40    C     0.76440   0.87160   0.68050   0.01267  Uiso   1.00
S1     S     0.48512   0.78686   0.23882   0.01267  Uiso   1.00
S2     S     0.81882   0.26364   0.99960   0.01267  Uiso   1.00
S3     S     0.51488   0.21314   0.23882   0.01267  Uiso   1.00
S4     S     0.18118   0.73636   0.99960   0.01267  Uiso   1.00
S5     S     0.78686   0.51488   0.76118   0.01267  Uiso   1.00
S6     S     0.26364   0.18118   0.00040   0.01267  Uiso   1.00
S7     S     0.21314   0.48512   0.76118   0.01267  Uiso   1.00
S8     S     0.73636   0.81882   0.00040   0.01267  Uiso   1.00
N1     N     0.83200   0.87790   0.33020   0.01267  Uiso   1.00
N2     N     0.84010   0.13100   0.33990   0.01267  Uiso   1.00
N3     N     0.16800   0.12210   0.33020   0.01267  Uiso   1.00
N4     N     0.15990   0.86900   0.33990   0.01267  Uiso   1.00
N5     N     0.87790   0.16800   0.66980   0.01267  Uiso   1.00
N6     N     0.13100   0.15990   0.66010   0.01267  Uiso   1.00
N7     N     0.12210   0.83200   0.66980   0.01267  Uiso   1.00
N8     N     0.86900   0.84010   0.66010   0.01267  Uiso   1.00
Cl1    Cl    0.50000   0.50000   0.00000   0.01267  Uiso   1.00
O1     O     0.93420   0.90400   0.34680   0.01267  Uiso   1.00
O2     O     0.84480   0.09530   0.44060   0.01267  Uiso   1.00
O3     O     0.71940   0.32990   0.00380   0.01267  Uiso   1.00
O4     O     0.91630   0.32930   0.98600   0.01267  Uiso   1.00
O5     O     0.81190   0.17140   0.92860   0.01267  Uiso   1.00
O6     O     0.41670   0.80230   0.33150   0.01267  Uiso   1.00
O7     O     0.49110   0.67420   0.20200   0.01267  Uiso   1.00
O8     O     0.45930   0.85970   0.15100   0.01267  Uiso   1.00
O9     O     0.88500   0.58490   0.11580   0.01267  Uiso   1.00
O10    O     0.06580   0.09600   0.34680   0.01267  Uiso   1.00
O11    O     0.15520   0.90470   0.44060   0.01267  Uiso   1.00
O12    O     0.28060   0.67010   0.00380   0.01267  Uiso   1.00
O13    O     0.08370   0.67070   0.98600   0.01267  Uiso   1.00
O14    O     0.18810   0.82860   0.92860   0.01267  Uiso   1.00
O15    O     0.58330   0.19770   0.33150   0.01267  Uiso   1.00
O16    O     0.50890   0.32580   0.20200   0.01267  Uiso   1.00
O17    O     0.54070   0.14030   0.15100   0.01267  Uiso   1.00
O18    O     0.11500   0.41510   0.11580   0.01267  Uiso   1.00
O19    O     0.90400   0.06580   0.65320   0.01267  Uiso   1.00
O20    O     0.09530   0.15520   0.55940   0.01267  Uiso   1.00
O21    O     0.32990   0.28060   0.99620   0.01267  Uiso   1.00
O22    O     0.32930   0.08370   0.01400   0.01267  Uiso   1.00
O23    O     0.17140   0.18810   0.07140   0.01267  Uiso   1.00
O24    O     0.80230   0.58330   0.66850   0.01267  Uiso   1.00
O25    O     0.67420   0.50890   0.79800   0.01267  Uiso   1.00
O26    O     0.85970   0.54070   0.84900   0.01267  Uiso   1.00
O27    O     0.58490   0.11500   0.88420   0.01267  Uiso   1.00
O28    O     0.09600   0.93420   0.65320   0.01267  Uiso   1.00
O29    O     0.90470   0.84480   0.55940   0.01267  Uiso   1.00
O30    O     0.67010   0.71940   0.99620   0.01267  Uiso   1.00
O31    O     0.67070   0.91630   0.01400   0.01267  Uiso   1.00
O32    O     0.82860   0.81190   0.07140   0.01267  Uiso   1.00
O33    O     0.19770   0.41670   0.66850   0.01267  Uiso   1.00
O34    O     0.32580   0.49110   0.79800   0.01267  Uiso   1.00
O35    O     0.14030   0.45930   0.84900   0.01267  Uiso   1.00
O36    O     0.41510   0.88500   0.88420   0.01267  Uiso   1.00
