data_image0
_cell_length_a       15.486
_cell_length_b       15.486
_cell_length_c       15.486
_cell_angle_alpha    90
_cell_angle_beta     90
_cell_angle_gamma    90

_symmetry_space_group_name_H-M    "P 1"
_symmetry_int_tables_number       1

loop_
  _symmetry_equiv_pos_as_xyz
  'x, y, z'

loop_
  _atom_site_label
  _atom_site_occupancy
  _atom_site_fract_x
  _atom_site_fract_y
  _atom_site_fract_z
  _atom_site_thermal_displace_type
  _atom_site_B_iso_or_equiv
  _atom_site_type_symbol
  O1       1.0000 0.73040  0.37940  0.90800  Biso   1.000  O
  O2       1.0000 0.60410  0.38350  0.01840  Biso   1.000  O
  C1       1.0000 0.75380  0.36810  0.98640  Biso   1.000  C
  C2       1.0000 0.67710  0.36770  0.05210  Biso   1.000  C
  O3       1.0000 0.82560  0.35930  0.00790  Biso   1.000  O
  O4       1.0000 0.68710  0.35410  0.12870  Biso   1.000  O
  O5       1.0000 0.76960  0.62060  0.40800  Biso   1.000  O
  O6       1.0000 0.89590  0.61650  0.51840  Biso   1.000  O
  C3       1.0000 0.74620  0.63190  0.48640  Biso   1.000  C
  C4       1.0000 0.82290  0.63230  0.55210  Biso   1.000  C
  O7       1.0000 0.67440  0.64070  0.50790  Biso   1.000  O
  O8       1.0000 0.81290  0.64590  0.62870  Biso   1.000  O
  O9       1.0000 0.26960  0.87940  0.59200  Biso   1.000  O
  O10      1.0000 0.39590  0.88350  0.48160  Biso   1.000  O
  C5       1.0000 0.24620  0.86810  0.51360  Biso   1.000  C
  C6       1.0000 0.32290  0.86770  0.44790  Biso   1.000  C
  O11      1.0000 0.17440  0.85930  0.49210  Biso   1.000  O
  O12      1.0000 0.31290  0.85410  0.37130  Biso   1.000  O
  O13      1.0000 0.23040  0.12060  0.09200  Biso   1.000  O
  O14      1.0000 0.10410  0.11650  0.98160  Biso   1.000  O
  C7       1.0000 0.25380  0.13190  0.01360  Biso   1.000  C
  C8       1.0000 0.17710  0.13230  0.94790  Biso   1.000  C
  O15      1.0000 0.32560  0.14070  0.99210  Biso   1.000  O
  O16      1.0000 0.18710  0.14590  0.87130  Biso   1.000  O
  O17      1.0000 0.90800  0.73040  0.37940  Biso   1.000  O
  O18      1.0000 0.01840  0.60410  0.38350  Biso   1.000  O
  C9       1.0000 0.98640  0.75380  0.36810  Biso   1.000  C
  C10      1.0000 0.05210  0.67710  0.36770  Biso   1.000  C
  O19      1.0000 0.00790  0.82560  0.35930  Biso   1.000  O
  O20      1.0000 0.12870  0.68710  0.35410  Biso   1.000  O
  O21      1.0000 0.40800  0.76960  0.62060  Biso   1.000  O
  O22      1.0000 0.51840  0.89590  0.61650  Biso   1.000  O
  C11      1.0000 0.48640  0.74620  0.63190  Biso   1.000  C
  C12      1.0000 0.55210  0.82290  0.63230  Biso   1.000  C
  O23      1.0000 0.50790  0.67440  0.64070  Biso   1.000  O
  O24      1.0000 0.62870  0.81290  0.64590  Biso   1.000  O
  O25      1.0000 0.59200  0.26960  0.87940  Biso   1.000  O
  O26      1.0000 0.48160  0.39590  0.88350  Biso   1.000  O
  C13      1.0000 0.51360  0.24620  0.86810  Biso   1.000  C
  C14      1.0000 0.44790  0.32290  0.86770  Biso   1.000  C
  O27      1.0000 0.49210  0.17440  0.85930  Biso   1.000  O
  O28      1.0000 0.37130  0.31290  0.85410  Biso   1.000  O
  O29      1.0000 0.09200  0.23040  0.12060  Biso   1.000  O
  O30      1.0000 0.98160  0.10410  0.11650  Biso   1.000  O
  C15      1.0000 0.01360  0.25380  0.13190  Biso   1.000  C
  C16      1.0000 0.94790  0.17710  0.13230  Biso   1.000  C
  O31      1.0000 0.99210  0.32560  0.14070  Biso   1.000  O
  O32      1.0000 0.87130  0.18710  0.14590  Biso   1.000  O
  O33      1.0000 0.37940  0.90800  0.73040  Biso   1.000  O
  O34      1.0000 0.38350  0.01840  0.60410  Biso   1.000  O
  C17      1.0000 0.36810  0.98640  0.75380  Biso   1.000  C
  C18      1.0000 0.36770  0.05210  0.67710  Biso   1.000  C
  O35      1.0000 0.35930  0.00790  0.82560  Biso   1.000  O
  O36      1.0000 0.35410  0.12870  0.68710  Biso   1.000  O
  O37      1.0000 0.62060  0.40800  0.76960  Biso   1.000  O
  O38      1.0000 0.61650  0.51840  0.89590  Biso   1.000  O
  C19      1.0000 0.63190  0.48640  0.74620  Biso   1.000  C
  C20      1.0000 0.63230  0.55210  0.82290  Biso   1.000  C
  O39      1.0000 0.64070  0.50790  0.67440  Biso   1.000  O
  O40      1.0000 0.64590  0.62870  0.81290  Biso   1.000  O
  O41      1.0000 0.87940  0.59200  0.26960  Biso   1.000  O
  O42      1.0000 0.88350  0.48160  0.39590  Biso   1.000  O
  C21      1.0000 0.86810  0.51360  0.24620  Biso   1.000  C
  C22      1.0000 0.86770  0.44790  0.32290  Biso   1.000  C
  O43      1.0000 0.85930  0.49210  0.17440  Biso   1.000  O
  O44      1.0000 0.85410  0.37130  0.31290  Biso   1.000  O
  O45      1.0000 0.12060  0.09200  0.23040  Biso   1.000  O
  O46      1.0000 0.11650  0.98160  0.10410  Biso   1.000  O
  C23      1.0000 0.13190  0.01360  0.25380  Biso   1.000  C
  C24      1.0000 0.13230  0.94790  0.17710  Biso   1.000  C
  O47      1.0000 0.14070  0.99210  0.32560  Biso   1.000  O
  O48      1.0000 0.14590  0.87130  0.18710  Biso   1.000  O
  Ag1      1.0000 0.83290  0.33290  0.16710  Biso   1.000  Ag
  Ag2      1.0000 0.66710  0.66710  0.66710  Biso   1.000  Ag
  Ag3      1.0000 0.16710  0.83290  0.33290  Biso   1.000  Ag
  Ag4      1.0000 0.33290  0.16710  0.83290  Biso   1.000  Ag
  Cr1      1.0000 0.60700  0.39300  0.89300  Biso   1.000  Cr
  Cr2      1.0000 0.89300  0.60700  0.39300  Biso   1.000  Cr
  Cr3      1.0000 0.39300  0.89300  0.60700  Biso   1.000  Cr
  Cr4      1.0000 0.10700  0.10700  0.10700  Biso   1.000  Cr
