data_TISGUY_clean
_audit_creation_date              2014-07-02
_audit_creation_method            'Materials Studio'
_symmetry_space_group_name_H-M    'P1'
_symmetry_Int_Tables_number       1
_symmetry_cell_setting            triclinic
loop_
_symmetry_equiv_pos_as_xyz
  x,y,z
_cell_length_a                    9.9562
_cell_length_b                    14.8904
_cell_length_c                    28.2260
_cell_angle_alpha                 90.0000
_cell_angle_beta                  90.0000
_cell_angle_gamma                 106.3060
loop_
_atom_site_label
_atom_site_type_symbol
_atom_site_fract_x
_atom_site_fract_y
_atom_site_fract_z
_atom_site_U_iso_or_equiv
_atom_site_adp_type
_atom_site_occupancy
Ni1    Ni    0.18217   0.82913   0.49040   0.01267  Uiso   1.00
Ni2    Ni    0.76616   0.48911   0.33563   0.01267  Uiso   1.00
Ni3    Ni    0.31783   0.17087   0.99040   0.01267  Uiso   1.00
Ni4    Ni    0.73384   0.51089   0.83563   0.01267  Uiso   1.00
Ni5    Ni    0.81783   0.17087   0.50960   0.01267  Uiso   1.00
Ni6    Ni    0.23384   0.51089   0.66437   0.01267  Uiso   1.00
Ni7    Ni    0.68217   0.82913   0.00960   0.01267  Uiso   1.00
Ni8    Ni    0.26616   0.48911   0.16437   0.01267  Uiso   1.00
H1     H     0.31940   0.72280   0.31350   0.01267  Uiso   1.00
H2     H     0.28960   0.74380   0.23270   0.01267  Uiso   1.00
H3     H     0.14400   0.83340   0.20790   0.01267  Uiso   1.00
H4     H     0.00770   0.88390   0.26270   0.01267  Uiso   1.00
H5     H     0.01830   0.99270   0.34240   0.01267  Uiso   1.00
H6     H     0.85190   0.02100   0.39490   0.01267  Uiso   1.00
H7     H     0.69810   0.89830   0.43350   0.01267  Uiso   1.00
H8     H     0.70910   0.74710   0.42360   0.01267  Uiso   1.00
H9     H     0.37780   0.16390   0.36150   0.01267  Uiso   1.00
H10    H     0.30110   0.00560   0.34300   0.01267  Uiso   1.00
H11    H     0.46400   0.92900   0.31920   0.01267  Uiso   1.00
H12    H     0.69980   0.00980   0.31330   0.01267  Uiso   1.00
H13    H     0.84560   0.13180   0.26130   0.01267  Uiso   1.00
H14    H     0.08340   0.18550   0.25100   0.01267  Uiso   1.00
H15    H     0.22600   0.27070   0.31070   0.01267  Uiso   1.00
H16    H     0.12460   0.30320   0.38110   0.01267  Uiso   1.00
H17    H     0.92160   0.85880   0.53660   0.01267  Uiso   1.00
H18    H     0.19230   0.02770   0.45260   0.01267  Uiso   1.00
H19    H     0.40890   0.94930   0.42780   0.01267  Uiso   1.00
H20    H     0.37670   0.94020   0.56650   0.01267  Uiso   1.00
H21    H     0.55660   0.60620   0.31170   0.01267  Uiso   1.00
H22    H     0.89020   0.60500   0.24490   0.01267  Uiso   1.00
H23    H     0.93720   0.37090   0.29700   0.01267  Uiso   1.00
H24    H     0.60910   0.37480   0.25780   0.01267  Uiso   1.00
H25    H     0.18060   0.27720   0.81350   0.01267  Uiso   1.00
H26    H     0.21040   0.25620   0.73270   0.01267  Uiso   1.00
H27    H     0.35600   0.16660   0.70790   0.01267  Uiso   1.00
H28    H     0.49230   0.11610   0.76270   0.01267  Uiso   1.00
H29    H     0.48170   0.00730   0.84240   0.01267  Uiso   1.00
H30    H     0.64810   0.97900   0.89490   0.01267  Uiso   1.00
H31    H     0.80190   0.10170   0.93350   0.01267  Uiso   1.00
H32    H     0.79090   0.25290   0.92360   0.01267  Uiso   1.00
H33    H     0.12220   0.83610   0.86150   0.01267  Uiso   1.00
H34    H     0.19890   0.99440   0.84300   0.01267  Uiso   1.00
H35    H     0.03600   0.07100   0.81920   0.01267  Uiso   1.00
H36    H     0.80020   0.99020   0.81330   0.01267  Uiso   1.00
H37    H     0.65440   0.86820   0.76130   0.01267  Uiso   1.00
H38    H     0.41660   0.81450   0.75100   0.01267  Uiso   1.00
H39    H     0.27400   0.72930   0.81070   0.01267  Uiso   1.00
H40    H     0.37540   0.69680   0.88110   0.01267  Uiso   1.00
H41    H     0.57840   0.14120   0.03660   0.01267  Uiso   1.00
H42    H     0.30770   0.97230   0.95260   0.01267  Uiso   1.00
H43    H     0.09110   0.05070   0.92780   0.01267  Uiso   1.00
H44    H     0.12330   0.05980   0.06650   0.01267  Uiso   1.00
H45    H     0.94340   0.39380   0.81170   0.01267  Uiso   1.00
H46    H     0.60980   0.39500   0.74490   0.01267  Uiso   1.00
H47    H     0.56280   0.62910   0.79700   0.01267  Uiso   1.00
H48    H     0.89090   0.62520   0.75780   0.01267  Uiso   1.00
H49    H     0.68060   0.27720   0.68650   0.01267  Uiso   1.00
H50    H     0.71040   0.25620   0.76730   0.01267  Uiso   1.00
H51    H     0.85600   0.16660   0.79210   0.01267  Uiso   1.00
H52    H     0.99230   0.11610   0.73730   0.01267  Uiso   1.00
H53    H     0.98170   0.00730   0.65760   0.01267  Uiso   1.00
H54    H     0.14810   0.97900   0.60510   0.01267  Uiso   1.00
H55    H     0.30190   0.10170   0.56650   0.01267  Uiso   1.00
H56    H     0.29090   0.25290   0.57640   0.01267  Uiso   1.00
H57    H     0.62220   0.83610   0.63850   0.01267  Uiso   1.00
H58    H     0.69890   0.99440   0.65700   0.01267  Uiso   1.00
H59    H     0.53600   0.07100   0.68080   0.01267  Uiso   1.00
H60    H     0.30020   0.99020   0.68670   0.01267  Uiso   1.00
H61    H     0.15440   0.86820   0.73870   0.01267  Uiso   1.00
H62    H     0.91660   0.81450   0.74900   0.01267  Uiso   1.00
H63    H     0.77400   0.72930   0.68930   0.01267  Uiso   1.00
H64    H     0.87540   0.69680   0.61890   0.01267  Uiso   1.00
H65    H     0.07840   0.14120   0.46340   0.01267  Uiso   1.00
H66    H     0.80770   0.97230   0.54740   0.01267  Uiso   1.00
H67    H     0.59110   0.05070   0.57220   0.01267  Uiso   1.00
H68    H     0.62330   0.05980   0.43350   0.01267  Uiso   1.00
H69    H     0.44340   0.39380   0.68830   0.01267  Uiso   1.00
H70    H     0.10980   0.39500   0.75510   0.01267  Uiso   1.00
H71    H     0.06280   0.62910   0.70300   0.01267  Uiso   1.00
H72    H     0.39090   0.62520   0.74220   0.01267  Uiso   1.00
H73    H     0.81940   0.72280   0.18650   0.01267  Uiso   1.00
H74    H     0.78960   0.74380   0.26730   0.01267  Uiso   1.00
H75    H     0.64400   0.83340   0.29210   0.01267  Uiso   1.00
H76    H     0.50770   0.88390   0.23730   0.01267  Uiso   1.00
H77    H     0.51830   0.99270   0.15760   0.01267  Uiso   1.00
H78    H     0.35190   0.02100   0.10510   0.01267  Uiso   1.00
H79    H     0.19810   0.89830   0.06650   0.01267  Uiso   1.00
H80    H     0.20910   0.74710   0.07640   0.01267  Uiso   1.00
H81    H     0.87780   0.16390   0.13850   0.01267  Uiso   1.00
H82    H     0.80110   0.00560   0.15700   0.01267  Uiso   1.00
H83    H     0.96400   0.92900   0.18080   0.01267  Uiso   1.00
H84    H     0.19980   0.00980   0.18670   0.01267  Uiso   1.00
H85    H     0.34560   0.13180   0.23870   0.01267  Uiso   1.00
H86    H     0.58340   0.18550   0.24900   0.01267  Uiso   1.00
H87    H     0.72600   0.27070   0.18930   0.01267  Uiso   1.00
H88    H     0.62460   0.30320   0.11890   0.01267  Uiso   1.00
H89    H     0.42160   0.85880   0.96340   0.01267  Uiso   1.00
H90    H     0.69230   0.02770   0.04740   0.01267  Uiso   1.00
H91    H     0.90890   0.94930   0.07220   0.01267  Uiso   1.00
H92    H     0.87670   0.94020   0.93350   0.01267  Uiso   1.00
H93    H     0.05660   0.60620   0.18830   0.01267  Uiso   1.00
H94    H     0.39020   0.60500   0.25510   0.01267  Uiso   1.00
H95    H     0.43720   0.37090   0.20300   0.01267  Uiso   1.00
H96    H     0.10910   0.37480   0.24220   0.01267  Uiso   1.00
C1     C     0.20720   0.77590   0.38868   0.01267  Uiso   1.00
C2     C     0.17370   0.78650   0.33691   0.01267  Uiso   1.00
C3     C     0.25410   0.75450   0.30322   0.01267  Uiso   1.00
C4     C     0.23900   0.76860   0.25520   0.01267  Uiso   1.00
C5     C     0.14980   0.81920   0.24052   0.01267  Uiso   1.00
C6     C     0.06880   0.84910   0.27330   0.01267  Uiso   1.00
C7     C     0.07440   0.82980   0.32146   0.01267  Uiso   1.00
C8     C     0.96920   0.85160   0.35343   0.01267  Uiso   1.00
C9     C     0.95770   0.94230   0.35930   0.01267  Uiso   1.00
C10    C     0.85710   0.95890   0.39000   0.01267  Uiso   1.00
C11    C     0.76680   0.88630   0.41300   0.01267  Uiso   1.00
C12    C     0.77290   0.79680   0.40720   0.01267  Uiso   1.00
C13    C     0.87220   0.77840   0.37724   0.01267  Uiso   1.00
C14    C     0.87320   0.67790   0.37278   0.01267  Uiso   1.00
C15    C     0.61630   0.28650   0.35769   0.01267  Uiso   1.00
C16    C     0.58510   0.18350   0.34836   0.01267  Uiso   1.00
C17    C     0.44400   0.13260   0.35155   0.01267  Uiso   1.00
C18    C     0.39760   0.03860   0.34080   0.01267  Uiso   1.00
C19    C     0.49400   0.99380   0.32664   0.01267  Uiso   1.00
C20    C     0.63490   0.04210   0.32315   0.01267  Uiso   1.00
C21    C     0.68290   0.13760   0.33385   0.01267  Uiso   1.00
C22    C     0.83730   0.18130   0.32835   0.01267  Uiso   1.00
C23    C     0.90180   0.16570   0.28614   0.01267  Uiso   1.00
C24    C     0.04280   0.19800   0.27990   0.01267  Uiso   1.00
C25    C     0.12760   0.24870   0.31510   0.01267  Uiso   1.00
C26    C     0.06730   0.26710   0.35703   0.01267  Uiso   1.00
C27    C     0.92300   0.23280   0.36414   0.01267  Uiso   1.00
C28    C     0.12910   0.75330   0.58696   0.01267  Uiso   1.00
C29    C     0.95630   0.91740   0.52103   0.01267  Uiso   1.00
C30    C     0.11240   0.01470   0.47261   0.01267  Uiso   1.00
C31    C     0.44530   0.96960   0.45826   0.01267  Uiso   1.00
C32    C     0.42650   0.96420   0.53838   0.01267  Uiso   1.00
C33    C     0.53460   0.55740   0.28886   0.01267  Uiso   1.00
C34    C     0.93460   0.55630   0.24477   0.01267  Uiso   1.00
C35    C     0.96240   0.42140   0.27510   0.01267  Uiso   1.00
C36    C     0.56420   0.42330   0.25792   0.01267  Uiso   1.00
C37    C     0.29280   0.22410   0.88868   0.01267  Uiso   1.00
C38    C     0.32630   0.21350   0.83691   0.01267  Uiso   1.00
C39    C     0.24590   0.24550   0.80322   0.01267  Uiso   1.00
C40    C     0.26100   0.23140   0.75520   0.01267  Uiso   1.00
C41    C     0.35020   0.18080   0.74052   0.01267  Uiso   1.00
C42    C     0.43120   0.15090   0.77330   0.01267  Uiso   1.00
C43    C     0.42560   0.17020   0.82146   0.01267  Uiso   1.00
C44    C     0.53080   0.14840   0.85343   0.01267  Uiso   1.00
C45    C     0.54230   0.05770   0.85930   0.01267  Uiso   1.00
C46    C     0.64290   0.04110   0.89000   0.01267  Uiso   1.00
C47    C     0.73320   0.11370   0.91300   0.01267  Uiso   1.00
C48    C     0.72710   0.20320   0.90720   0.01267  Uiso   1.00
C49    C     0.62780   0.22160   0.87724   0.01267  Uiso   1.00
C50    C     0.62680   0.32210   0.87278   0.01267  Uiso   1.00
C51    C     0.88370   0.71350   0.85769   0.01267  Uiso   1.00
C52    C     0.91490   0.81650   0.84836   0.01267  Uiso   1.00
C53    C     0.05600   0.86740   0.85155   0.01267  Uiso   1.00
C54    C     0.10240   0.96140   0.84080   0.01267  Uiso   1.00
C55    C     0.00600   0.00620   0.82664   0.01267  Uiso   1.00
C56    C     0.86510   0.95790   0.82315   0.01267  Uiso   1.00
C57    C     0.81710   0.86240   0.83385   0.01267  Uiso   1.00
C58    C     0.66270   0.81870   0.82835   0.01267  Uiso   1.00
C59    C     0.59820   0.83430   0.78614   0.01267  Uiso   1.00
C60    C     0.45720   0.80200   0.77990   0.01267  Uiso   1.00
C61    C     0.37240   0.75130   0.81510   0.01267  Uiso   1.00
C62    C     0.43270   0.73290   0.85703   0.01267  Uiso   1.00
C63    C     0.57700   0.76720   0.86414   0.01267  Uiso   1.00
C64    C     0.37090   0.24670   0.08696   0.01267  Uiso   1.00
C65    C     0.54370   0.08260   0.02103   0.01267  Uiso   1.00
C66    C     0.38760   0.98530   0.97261   0.01267  Uiso   1.00
C67    C     0.05470   0.03040   0.95826   0.01267  Uiso   1.00
C68    C     0.07350   0.03580   0.03838   0.01267  Uiso   1.00
C69    C     0.96540   0.44260   0.78886   0.01267  Uiso   1.00
C70    C     0.56540   0.44370   0.74477   0.01267  Uiso   1.00
C71    C     0.53760   0.57860   0.77510   0.01267  Uiso   1.00
C72    C     0.93580   0.57670   0.75792   0.01267  Uiso   1.00
C73    C     0.79280   0.22410   0.61132   0.01267  Uiso   1.00
C74    C     0.82630   0.21350   0.66309   0.01267  Uiso   1.00
C75    C     0.74590   0.24550   0.69678   0.01267  Uiso   1.00
C76    C     0.76100   0.23140   0.74480   0.01267  Uiso   1.00
C77    C     0.85020   0.18080   0.75948   0.01267  Uiso   1.00
C78    C     0.93120   0.15090   0.72670   0.01267  Uiso   1.00
C79    C     0.92560   0.17020   0.67854   0.01267  Uiso   1.00
C80    C     0.03080   0.14840   0.64657   0.01267  Uiso   1.00
C81    C     0.04230   0.05770   0.64070   0.01267  Uiso   1.00
C82    C     0.14290   0.04110   0.61000   0.01267  Uiso   1.00
C83    C     0.23320   0.11370   0.58700   0.01267  Uiso   1.00
C84    C     0.22710   0.20320   0.59280   0.01267  Uiso   1.00
C85    C     0.12780   0.22160   0.62276   0.01267  Uiso   1.00
C86    C     0.12680   0.32210   0.62722   0.01267  Uiso   1.00
C87    C     0.38370   0.71350   0.64231   0.01267  Uiso   1.00
C88    C     0.41490   0.81650   0.65164   0.01267  Uiso   1.00
C89    C     0.55600   0.86740   0.64845   0.01267  Uiso   1.00
C90    C     0.60240   0.96140   0.65920   0.01267  Uiso   1.00
C91    C     0.50600   0.00620   0.67336   0.01267  Uiso   1.00
C92    C     0.36510   0.95790   0.67685   0.01267  Uiso   1.00
C93    C     0.31710   0.86240   0.66615   0.01267  Uiso   1.00
C94    C     0.16270   0.81870   0.67165   0.01267  Uiso   1.00
C95    C     0.09820   0.83430   0.71386   0.01267  Uiso   1.00
C96    C     0.95720   0.80200   0.72010   0.01267  Uiso   1.00
C97    C     0.87240   0.75130   0.68490   0.01267  Uiso   1.00
C98    C     0.93270   0.73290   0.64297   0.01267  Uiso   1.00
C99    C     0.07700   0.76720   0.63586   0.01267  Uiso   1.00
C100   C     0.87090   0.24670   0.41304   0.01267  Uiso   1.00
C101   C     0.04370   0.08260   0.47897   0.01267  Uiso   1.00
C102   C     0.88760   0.98530   0.52739   0.01267  Uiso   1.00
C103   C     0.55470   0.03040   0.54174   0.01267  Uiso   1.00
C104   C     0.57350   0.03580   0.46162   0.01267  Uiso   1.00
C105   C     0.46540   0.44260   0.71114   0.01267  Uiso   1.00
C106   C     0.06540   0.44370   0.75523   0.01267  Uiso   1.00
C107   C     0.03760   0.57860   0.72490   0.01267  Uiso   1.00
C108   C     0.43580   0.57670   0.74208   0.01267  Uiso   1.00
C109   C     0.70720   0.77590   0.11132   0.01267  Uiso   1.00
C110   C     0.67370   0.78650   0.16309   0.01267  Uiso   1.00
C111   C     0.75410   0.75450   0.19678   0.01267  Uiso   1.00
C112   C     0.73900   0.76860   0.24480   0.01267  Uiso   1.00
C113   C     0.64980   0.81920   0.25948   0.01267  Uiso   1.00
C114   C     0.56880   0.84910   0.22670   0.01267  Uiso   1.00
C115   C     0.57440   0.82980   0.17854   0.01267  Uiso   1.00
C116   C     0.46920   0.85160   0.14657   0.01267  Uiso   1.00
C117   C     0.45770   0.94230   0.14070   0.01267  Uiso   1.00
C118   C     0.35710   0.95890   0.11000   0.01267  Uiso   1.00
C119   C     0.26680   0.88630   0.08700   0.01267  Uiso   1.00
C120   C     0.27290   0.79680   0.09280   0.01267  Uiso   1.00
C121   C     0.37220   0.77840   0.12276   0.01267  Uiso   1.00
C122   C     0.37320   0.67790   0.12722   0.01267  Uiso   1.00
C123   C     0.11630   0.28650   0.14231   0.01267  Uiso   1.00
C124   C     0.08510   0.18350   0.15164   0.01267  Uiso   1.00
C125   C     0.94400   0.13260   0.14845   0.01267  Uiso   1.00
C126   C     0.89760   0.03860   0.15920   0.01267  Uiso   1.00
C127   C     0.99400   0.99380   0.17336   0.01267  Uiso   1.00
C128   C     0.13490   0.04210   0.17685   0.01267  Uiso   1.00
C129   C     0.18290   0.13760   0.16615   0.01267  Uiso   1.00
C130   C     0.33730   0.18130   0.17165   0.01267  Uiso   1.00
C131   C     0.40180   0.16570   0.21386   0.01267  Uiso   1.00
C132   C     0.54280   0.19800   0.22010   0.01267  Uiso   1.00
C133   C     0.62760   0.24870   0.18490   0.01267  Uiso   1.00
C134   C     0.56730   0.26710   0.14297   0.01267  Uiso   1.00
C135   C     0.42300   0.23280   0.13586   0.01267  Uiso   1.00
C136   C     0.62910   0.75330   0.91304   0.01267  Uiso   1.00
C137   C     0.45630   0.91740   0.97897   0.01267  Uiso   1.00
C138   C     0.61240   0.01470   0.02739   0.01267  Uiso   1.00
C139   C     0.94530   0.96960   0.04174   0.01267  Uiso   1.00
C140   C     0.92650   0.96420   0.96162   0.01267  Uiso   1.00
C141   C     0.03460   0.55740   0.21114   0.01267  Uiso   1.00
C142   C     0.43460   0.55630   0.25523   0.01267  Uiso   1.00
C143   C     0.46240   0.42140   0.22490   0.01267  Uiso   1.00
C144   C     0.06420   0.42330   0.24208   0.01267  Uiso   1.00
N1     N     0.06930   0.93130   0.49386   0.01267  Uiso   1.00
N2     N     0.37120   0.93340   0.49631   0.01267  Uiso   1.00
N3     N     0.60200   0.49120   0.29016   0.01267  Uiso   1.00
N4     N     0.89780   0.48860   0.27732   0.01267  Uiso   1.00
N5     N     0.43070   0.06870   0.99386   0.01267  Uiso   1.00
N6     N     0.12880   0.06660   0.99631   0.01267  Uiso   1.00
N7     N     0.89800   0.50880   0.79016   0.01267  Uiso   1.00
N8     N     0.60220   0.51140   0.77732   0.01267  Uiso   1.00
N9     N     0.93070   0.06870   0.50614   0.01267  Uiso   1.00
N10    N     0.62880   0.06660   0.50369   0.01267  Uiso   1.00
N11    N     0.39800   0.50880   0.70984   0.01267  Uiso   1.00
N12    N     0.10220   0.51140   0.72268   0.01267  Uiso   1.00
N13    N     0.56930   0.93130   0.00614   0.01267  Uiso   1.00
N14    N     0.87120   0.93340   0.00369   0.01267  Uiso   1.00
N15    N     0.10200   0.49120   0.20984   0.01267  Uiso   1.00
N16    N     0.39780   0.48860   0.22268   0.01267  Uiso   1.00
O1     O     0.18480   0.83450   0.41746   0.01267  Uiso   1.00
O2     O     0.26320   0.71330   0.39902   0.01267  Uiso   1.00
O3     O     0.82470   0.63340   0.33623   0.01267  Uiso   1.00
O4     O     0.92210   0.64200   0.40723   0.01267  Uiso   1.00
O5     O     0.70790   0.34290   0.33272   0.01267  Uiso   1.00
O6     O     0.54160   0.31000   0.38825   0.01267  Uiso   1.00
O7     O     0.16900   0.82630   0.56275   0.01267  Uiso   1.00
O8     O     0.11880   0.67390   0.57228   0.01267  Uiso   1.00
O9     O     0.31520   0.16550   0.91746   0.01267  Uiso   1.00
O10    O     0.23680   0.28670   0.89902   0.01267  Uiso   1.00
O11    O     0.67530   0.36660   0.83623   0.01267  Uiso   1.00
O12    O     0.57790   0.35800   0.90723   0.01267  Uiso   1.00
O13    O     0.79210   0.65710   0.83272   0.01267  Uiso   1.00
O14    O     0.95840   0.69000   0.88825   0.01267  Uiso   1.00
O15    O     0.33100   0.17370   0.06275   0.01267  Uiso   1.00
O16    O     0.38120   0.32610   0.07228   0.01267  Uiso   1.00
O17    O     0.81520   0.16550   0.58254   0.01267  Uiso   1.00
O18    O     0.73680   0.28670   0.60098   0.01267  Uiso   1.00
O19    O     0.17530   0.36660   0.66377   0.01267  Uiso   1.00
O20    O     0.07790   0.35800   0.59277   0.01267  Uiso   1.00
O21    O     0.29210   0.65710   0.66728   0.01267  Uiso   1.00
O22    O     0.45840   0.69000   0.61175   0.01267  Uiso   1.00
O23    O     0.83100   0.17370   0.43725   0.01267  Uiso   1.00
O24    O     0.88120   0.32610   0.42772   0.01267  Uiso   1.00
O25    O     0.68480   0.83450   0.08254   0.01267  Uiso   1.00
O26    O     0.76320   0.71330   0.10098   0.01267  Uiso   1.00
O27    O     0.32470   0.63340   0.16377   0.01267  Uiso   1.00
O28    O     0.42210   0.64200   0.09277   0.01267  Uiso   1.00
O29    O     0.20790   0.34290   0.16728   0.01267  Uiso   1.00
O30    O     0.04160   0.31000   0.11175   0.01267  Uiso   1.00
O31    O     0.66900   0.82630   0.93725   0.01267  Uiso   1.00
O32    O     0.61880   0.67390   0.92772   0.01267  Uiso   1.00
