data_TISKOW_clean
_audit_creation_date              2014-07-02
_audit_creation_method            'Materials Studio'
_symmetry_space_group_name_H-M    'P1'
_symmetry_Int_Tables_number       1
_symmetry_cell_setting            triclinic
loop_
_symmetry_equiv_pos_as_xyz
  x,y,z
_cell_length_a                    14.2036
_cell_length_b                    14.4601
_cell_length_c                    18.0724
_cell_angle_alpha                 69.2346
_cell_angle_beta                  66.8609
_cell_angle_gamma                 60.5851
loop_
_atom_site_label
_atom_site_type_symbol
_atom_site_fract_x
_atom_site_fract_y
_atom_site_fract_z
_atom_site_U_iso_or_equiv
_atom_site_adp_type
_atom_site_occupancy
Zn1    Zn    0.75808   0.00816   0.63508   0.01267  Uiso   1.00
Zn2    Zn    0.37877   0.20428   0.42350   0.01267  Uiso   1.00
Zn3    Zn    0.18983   0.58403   0.59473   0.01267  Uiso   1.00
Zn4    Zn    0.40132   0.49184   0.86492   0.01267  Uiso   1.00
Zn5    Zn    0.00655   0.29572   0.07650   0.01267  Uiso   1.00
Zn6    Zn    0.36859   0.91597   0.90527   0.01267  Uiso   1.00
Zn7    Zn    0.24192   0.99184   0.36492   0.01267  Uiso   1.00
Zn8    Zn    0.62123   0.79572   0.57650   0.01267  Uiso   1.00
Zn9    Zn    0.81017   0.41597   0.40527   0.01267  Uiso   1.00
Zn10   Zn    0.59868   0.50816   0.13508   0.01267  Uiso   1.00
Zn11   Zn    0.99345   0.70428   0.92350   0.01267  Uiso   1.00
Zn12   Zn    0.63141   0.08403   0.09473   0.01267  Uiso   1.00
Zn13   Zn    0.50000   0.50000   0.50000   0.01267  Uiso   1.00
Zn14   Zn    0.50000   1.00000   0.00000   0.01267  Uiso   1.00
H1     H     0.51260   0.30890   0.43750   0.01267  Uiso   1.00
H2     H     0.53380   0.46170   0.68050   0.01267  Uiso   1.00
H3     H     0.21270   0.56390   0.77750   0.01267  Uiso   1.00
H4     H     0.87220   0.16310   0.50770   0.01267  Uiso   1.00
H5     H     0.80840   0.59690   0.47790   0.01267  Uiso   1.00
H6     H     0.74000   0.15260   0.25480   0.01267  Uiso   1.00
H7     H     0.92270   0.96570   0.45930   0.01267  Uiso   1.00
H8     H     0.55390   0.24620   0.61380   0.01267  Uiso   1.00
H9     H     0.25900   0.19110   0.06250   0.01267  Uiso   1.00
H10    H     0.67600   0.03830   0.81950   0.01267  Uiso   1.00
H11    H     0.55410   0.93610   0.72250   0.01267  Uiso   1.00
H12    H     0.54300   0.33690   0.99230   0.01267  Uiso   1.00
H13    H     0.88320   0.90310   0.02210   0.01267  Uiso   1.00
H14    H     0.14740   0.34740   0.24520   0.01267  Uiso   1.00
H15    H     0.34770   0.53430   0.04070   0.01267  Uiso   1.00
H16    H     0.41390   0.25380   0.88620   0.01267  Uiso   1.00
H17    H     0.48740   0.69110   0.56250   0.01267  Uiso   1.00
H18    H     0.46620   0.53830   0.31950   0.01267  Uiso   1.00
H19    H     0.78730   0.43610   0.22250   0.01267  Uiso   1.00
H20    H     0.12780   0.83690   0.49230   0.01267  Uiso   1.00
H21    H     0.19160   0.40310   0.52210   0.01267  Uiso   1.00
H22    H     0.26000   0.84740   0.74520   0.01267  Uiso   1.00
H23    H     0.07730   0.03430   0.54070   0.01267  Uiso   1.00
H24    H     0.44610   0.75380   0.38620   0.01267  Uiso   1.00
H25    H     0.74100   0.80890   0.93750   0.01267  Uiso   1.00
H26    H     0.32400   0.96170   0.18050   0.01267  Uiso   1.00
H27    H     0.44590   0.06390   0.27750   0.01267  Uiso   1.00
H28    H     0.45700   0.66310   0.00770   0.01267  Uiso   1.00
H29    H     0.11680   0.09690   0.97790   0.01267  Uiso   1.00
H30    H     0.85260   0.65260   0.75480   0.01267  Uiso   1.00
H31    H     0.65230   0.46570   0.95930   0.01267  Uiso   1.00
H32    H     0.58610   0.74620   0.11380   0.01267  Uiso   1.00
C1     C     0.43780   0.34680   0.46320   0.01267  Uiso   1.00
C2     C     0.61340   0.07080   0.37760   0.01267  Uiso   1.00
C3     C     0.78300   0.00350   0.43010   0.01267  Uiso   1.00
C4     C     0.05530   0.03660   0.32860   0.01267  Uiso   1.00
C5     C     0.45720   0.48730   0.68750   0.01267  Uiso   1.00
C6     C     0.28310   0.54270   0.74030   0.01267  Uiso   1.00
C7     C     0.79510   0.20340   0.52320   0.01267  Uiso   1.00
C8     C     0.93730   0.05430   0.34350   0.01267  Uiso   1.00
C9     C     0.73570   0.60260   0.49100   0.01267  Uiso   1.00
C10    C     0.73620   0.93590   0.50510   0.01267  Uiso   1.00
C11    C     0.92330   0.17430   0.19910   0.01267  Uiso   1.00
C12    C     0.77810   0.11320   0.29540   0.01267  Uiso   1.00
C13    C     0.88110   0.11060   0.28080   0.01267  Uiso   1.00
C14    C     0.88660   0.00200   0.41760   0.01267  Uiso   1.00
C15    C     0.62210   0.24900   0.58060   0.01267  Uiso   1.00
C16    C     0.72780   0.05980   0.36800   0.01267  Uiso   1.00
C17    C     0.24780   0.15320   0.03680   0.01267  Uiso   1.00
C18    C     0.06180   0.42920   0.12240   0.01267  Uiso   1.00
C19    C     0.21660   0.49650   0.06990   0.01267  Uiso   1.00
C20    C     0.42050   0.46340   0.17140   0.01267  Uiso   1.00
C21    C     0.63200   0.01270   0.81250   0.01267  Uiso   1.00
C22    C     0.56610   0.95730   0.75970   0.01267  Uiso   1.00
C23    C     0.52170   0.29660   0.97680   0.01267  Uiso   1.00
C24    C     0.33510   0.44570   0.15650   0.01267  Uiso   1.00
C25    C     0.82930   0.89740   0.00900   0.01267  Uiso   1.00
C26    C     0.17720   0.56410   0.99490   0.01267  Uiso   1.00
C27    C     0.29670   0.32570   0.30090   0.01267  Uiso   1.00
C28    C     0.18670   0.38680   0.20460   0.01267  Uiso   1.00
C29    C     0.27250   0.38940   0.21920   0.01267  Uiso   1.00
C30    C     0.30620   0.49800   0.08240   0.01267  Uiso   1.00
C31    C     0.45170   0.25100   0.91940   0.01267  Uiso   1.00
C32    C     0.15560   0.44020   0.13200   0.01267  Uiso   1.00
C33    C     0.56220   0.65320   0.53680   0.01267  Uiso   1.00
C34    C     0.38660   0.92920   0.62240   0.01267  Uiso   1.00
C35    C     0.21700   0.99650   0.56990   0.01267  Uiso   1.00
C36    C     0.94470   0.96340   0.67140   0.01267  Uiso   1.00
C37    C     0.54280   0.51270   0.31250   0.01267  Uiso   1.00
C38    C     0.71690   0.45730   0.25970   0.01267  Uiso   1.00
C39    C     0.20490   0.79660   0.47680   0.01267  Uiso   1.00
C40    C     0.06270   0.94570   0.65650   0.01267  Uiso   1.00
C41    C     0.26430   0.39740   0.50900   0.01267  Uiso   1.00
C42    C     0.26380   0.06410   0.49490   0.01267  Uiso   1.00
C43    C     0.07670   0.82570   0.80090   0.01267  Uiso   1.00
C44    C     0.22190   0.88680   0.70460   0.01267  Uiso   1.00
C45    C     0.11890   0.88940   0.71920   0.01267  Uiso   1.00
C46    C     0.11340   0.99800   0.58240   0.01267  Uiso   1.00
C47    C     0.37790   0.75100   0.41940   0.01267  Uiso   1.00
C48    C     0.27220   0.94020   0.63200   0.01267  Uiso   1.00
C49    C     0.75220   0.84680   0.96320   0.01267  Uiso   1.00
C50    C     0.93820   0.57080   0.87760   0.01267  Uiso   1.00
C51    C     0.78340   0.50350   0.93010   0.01267  Uiso   1.00
C52    C     0.57950   0.53660   0.82860   0.01267  Uiso   1.00
C53    C     0.36800   0.98730   0.18750   0.01267  Uiso   1.00
C54    C     0.43390   0.04270   0.24030   0.01267  Uiso   1.00
C55    C     0.47830   0.70340   0.02320   0.01267  Uiso   1.00
C56    C     0.66490   0.55430   0.84350   0.01267  Uiso   1.00
C57    C     0.17070   0.10260   0.99100   0.01267  Uiso   1.00
C58    C     0.82280   0.43590   0.00510   0.01267  Uiso   1.00
C59    C     0.70330   0.67430   0.69910   0.01267  Uiso   1.00
C60    C     0.81330   0.61320   0.79540   0.01267  Uiso   1.00
C61    C     0.72750   0.61060   0.78080   0.01267  Uiso   1.00
C62    C     0.69380   0.50200   0.91760   0.01267  Uiso   1.00
C63    C     0.54830   0.74900   0.08060   0.01267  Uiso   1.00
C64    C     0.84440   0.55980   0.86800   0.01267  Uiso   1.00
N1     N     0.41410   0.50470   0.62930   0.01267  Uiso   1.00
N2     N     0.30041   0.54058   0.66340   0.01267  Uiso   1.00
N3     N     0.71041   0.53918   0.47180   0.01267  Uiso   1.00
N4     N     0.35410   0.32480   0.46900   0.01267  Uiso   1.00
N5     N     0.72150   0.16190   0.57810   0.01267  Uiso   1.00
N6     N     0.37920   0.51030   0.75850   0.01267  Uiso   1.00
N7     N     0.74500   0.30770   0.49410   0.01267  Uiso   1.00
N8     N     0.40273   0.42804   0.49790   0.01267  Uiso   1.00
N9     N     0.63130   0.33760   0.53180   0.01267  Uiso   1.00
N10    N     0.54810   0.99530   0.87070   0.01267  Uiso   1.00
N11    N     0.50439   0.95942   0.83660   0.01267  Uiso   1.00
N12    N     0.72139   0.96082   0.02820   0.01267  Uiso   1.00
N13    N     0.14790   0.17520   0.03100   0.01267  Uiso   1.00
N14    N     0.46150   0.33810   0.92190   0.01267  Uiso   1.00
N15    N     0.64800   0.98970   0.74150   0.01267  Uiso   1.00
N16    N     0.54680   0.19230   0.00590   0.01267  Uiso   1.00
N17    N     0.32867   0.07196   0.00210   0.01267  Uiso   1.00
N18    N     0.50070   0.16240   0.96820   0.01267  Uiso   1.00
N19    N     0.58590   0.49530   0.37070   0.01267  Uiso   1.00
N20    N     0.69959   0.45942   0.33660   0.01267  Uiso   1.00
N21    N     0.28959   0.46082   0.52820   0.01267  Uiso   1.00
N22    N     0.64590   0.67520   0.53100   0.01267  Uiso   1.00
N23    N     0.27850   0.83810   0.42190   0.01267  Uiso   1.00
N24    N     0.62080   0.48970   0.24150   0.01267  Uiso   1.00
N25    N     0.25500   0.69230   0.50590   0.01267  Uiso   1.00
N26    N     0.59727   0.57196   0.50210   0.01267  Uiso   1.00
N27    N     0.36870   0.66240   0.46820   0.01267  Uiso   1.00
N28    N     0.45190   0.00470   0.12930   0.01267  Uiso   1.00
N29    N     0.49561   0.04058   0.16340   0.01267  Uiso   1.00
N30    N     0.27861   0.03918   0.97180   0.01267  Uiso   1.00
N31    N     0.85210   0.82480   0.96900   0.01267  Uiso   1.00
N32    N     0.53850   0.66190   0.07810   0.01267  Uiso   1.00
N33    N     0.35200   0.01030   0.25850   0.01267  Uiso   1.00
N34    N     0.45320   0.80770   0.99410   0.01267  Uiso   1.00
N35    N     0.67133   0.92804   0.99790   0.01267  Uiso   1.00
N36    N     0.49930   0.83760   0.03180   0.01267  Uiso   1.00
O1     O     0.95890   0.23700   0.19880   0.01267  Uiso   1.00
O2     O     0.53629   0.12002   0.43200   0.01267  Uiso   1.00
O3     O     0.92000   0.16450   0.13510   0.01267  Uiso   1.00
O4     O     0.25863   0.07154   0.42520   0.01267  Uiso   1.00
O5     O     0.69675   0.88440   0.49230   0.01267  Uiso   1.00
O6     O     0.12750   0.99750   0.27050   0.01267  Uiso   1.00
O7     O     0.92350   0.94120   0.61780   0.01267  Uiso   1.00
O8     O     0.59880   0.03940   0.32840   0.01267  Uiso   1.00
O9     O     0.39470   0.26300   0.30120   0.01267  Uiso   1.00
O10    O     0.08831   0.37998   0.06800   0.01267  Uiso   1.00
O11    O     0.21960   0.33550   0.36490   0.01267  Uiso   1.00
O12    O     0.75537   0.42846   0.07480   0.01267  Uiso   1.00
O13    O     0.07345   0.61560   0.00770   0.01267  Uiso   1.00
O14    O     0.39550   0.50250   0.22950   0.01267  Uiso   1.00
O15    O     0.48250   0.55880   0.88220   0.01267  Uiso   1.00
O16    O     0.96660   0.46060   0.17160   0.01267  Uiso   1.00
O17    O     0.04110   0.76300   0.80120   0.01267  Uiso   1.00
O18    O     0.46371   0.87998   0.56800   0.01267  Uiso   1.00
O19    O     0.08000   0.83550   0.86490   0.01267  Uiso   1.00
O20    O     0.74137   0.92846   0.57480   0.01267  Uiso   1.00
O21    O     0.30325   0.11560   0.50770   0.01267  Uiso   1.00
O22    O     0.87250   0.00250   0.72950   0.01267  Uiso   1.00
O23    O     0.07650   0.05880   0.38220   0.01267  Uiso   1.00
O24    O     0.40120   0.96060   0.67160   0.01267  Uiso   1.00
O25    O     0.60530   0.73700   0.69880   0.01267  Uiso   1.00
O26    O     0.91169   0.62002   0.93200   0.01267  Uiso   1.00
O27    O     0.78040   0.66450   0.63510   0.01267  Uiso   1.00
O28    O     0.24463   0.57154   0.92520   0.01267  Uiso   1.00
O29    O     0.92655   0.38440   0.99230   0.01267  Uiso   1.00
O30    O     0.60450   0.49750   0.77050   0.01267  Uiso   1.00
O31    O     0.51750   0.44120   0.11780   0.01267  Uiso   1.00
O32    O     0.03340   0.53940   0.82840   0.01267  Uiso   1.00
