data_TISWEZ_clean
_audit_creation_date              2015-10-16
_audit_creation_method            'Materials Studio'
_symmetry_space_group_name_H-M    'P1'
_symmetry_Int_Tables_number       1
_symmetry_cell_setting            triclinic
loop_
_symmetry_equiv_pos_as_xyz
  x,y,z
_cell_length_a                    11.9450
_cell_length_b                    19.2163
_cell_length_c                    19.2163
_cell_angle_alpha                 84.4566
_cell_angle_beta                  71.8923
_cell_angle_gamma                 71.8924
loop_
_atom_site_label
_atom_site_type_symbol
_atom_site_fract_x
_atom_site_fract_y
_atom_site_fract_z
_atom_site_U_iso_or_equiv
_atom_site_adp_type
_atom_site_occupancy
Gd1    Gd    0.94203   0.10568   0.52112   0.01267  Uiso   1.00
Gd2    Gd    0.62124   0.70122   0.36288   0.01267  Uiso   1.00
Gd3    Gd    0.05797   0.89432   0.47888   0.01267  Uiso   1.00
Gd4    Gd    0.93117   0.60568   0.02112   0.01267  Uiso   1.00
Gd5    Gd    0.01588   0.36288   0.79878   0.01267  Uiso   1.00
Gd6    Gd    0.53685   0.52112   0.39432   0.01267  Uiso   1.00
Gd7    Gd    0.46315   0.47888   0.60568   0.01267  Uiso   1.00
Gd8    Gd    0.18534   0.79878   0.13712   0.01267  Uiso   1.00
Gd9    Gd    0.67754   0.13712   0.70122   0.01267  Uiso   1.00
Gd10   Gd    0.32246   0.86288   0.29878   0.01267  Uiso   1.00
Gd11   Gd    0.37876   0.29878   0.63712   0.01267  Uiso   1.00
Gd12   Gd    0.06883   0.39432   0.97888   0.01267  Uiso   1.00
Gd13   Gd    0.81466   0.20122   0.86288   0.01267  Uiso   1.00
Gd14   Gd    0.95229   0.97888   0.10568   0.01267  Uiso   1.00
Gd15   Gd    0.98412   0.63712   0.20122   0.01267  Uiso   1.00
Gd16   Gd    0.04771   0.02112   0.89432   0.01267  Uiso   1.00
H1     H     0.68430   0.21750   0.41130   0.01267  Uiso   1.00
H2     H     0.98840   0.82290   0.66510   0.01267  Uiso   1.00
H3     H     0.19800   0.53000   0.23600   0.01267  Uiso   1.00
H4     H     0.81310   0.28250   0.08870   0.01267  Uiso   1.00
H5     H     0.59290   0.55350   0.07810   0.01267  Uiso   1.00
H6     H     0.72090   0.90240   0.22660   0.01267  Uiso   1.00
H7     H     0.70640   0.64250   0.56250   0.01267  Uiso   1.00
H8     H     0.70020   0.44960   0.90800   0.01267  Uiso   1.00
H9     H     0.84670   0.56110   0.79010   0.01267  Uiso   1.00
H10    H     0.37670   0.27340   0.90240   0.01267  Uiso   1.00
H11    H     0.33200   0.36200   0.97600   0.01267  Uiso   1.00
H12    H     0.77140   0.35270   0.67370   0.01267  Uiso   1.00
H13    H     0.79110   0.85720   0.05120   0.01267  Uiso   1.00
H14    H     0.09820   0.08870   0.21750   0.01267  Uiso   1.00
H15    H     0.24810   0.65580   0.75100   0.01267  Uiso   1.00
H16    H     0.43400   0.76400   0.03000   0.01267  Uiso   1.00
H17    H     0.70220   0.85270   0.17370   0.01267  Uiso   1.00
H18    H     0.65110   0.93750   0.64250   0.01267  Uiso   1.00
H19    H     0.97640   0.67710   0.83490   0.01267  Uiso   1.00
H20    H     0.39180   0.90800   0.05040   0.01267  Uiso   1.00
H21    H     0.63570   0.46480   0.84600   0.01267  Uiso   1.00
H22    H     0.18870   0.83490   0.82290   0.01267  Uiso   1.00
H23    H     0.26890   0.43750   0.14250   0.01267  Uiso   1.00
H24    H     0.00400   0.11300   0.13900   0.01267  Uiso   1.00
H25    H     0.69790   0.93890   0.70990   0.01267  Uiso   1.00
H26    H     0.80200   0.47000   0.76400   0.01267  Uiso   1.00
H27    H     0.34990   0.59760   0.27340   0.01267  Uiso   1.00
H28    H     0.01160   0.17710   0.33490   0.01267  Uiso   1.00
H29    H     0.53600   0.03000   0.73600   0.01267  Uiso   1.00
H30    H     0.12410   0.17370   0.64730   0.01267  Uiso   1.00
H31    H     0.65350   0.33490   0.32290   0.01267  Uiso   1.00
H32    H     0.87590   0.82630   0.35270   0.01267  Uiso   1.00
H33    H     0.15330   0.43890   0.20990   0.01267  Uiso   1.00
H34    H     0.40710   0.44650   0.92190   0.01267  Uiso   1.00
H35    H     0.09610   0.74900   0.65580   0.01267  Uiso   1.00
H36    H     0.48170   0.15400   0.96480   0.01267  Uiso   1.00
H37    H     0.27550   0.05350   0.57810   0.01267  Uiso   1.00
H38    H     0.14640   0.57810   0.44650   0.01267  Uiso   1.00
H39    H     0.85020   0.59200   0.44960   0.01267  Uiso   1.00
H40    H     0.15770   0.05120   0.64280   0.01267  Uiso   1.00
H41    H     0.00090   0.75100   0.84420   0.01267  Uiso   1.00
H42    H     0.69200   0.97600   0.13800   0.01267  Uiso   1.00
H43    H     0.75190   0.34420   0.24900   0.01267  Uiso   1.00
H44    H     0.02360   0.32290   0.16510   0.01267  Uiso   1.00
H45    H     0.62330   0.72660   0.09760   0.01267  Uiso   1.00
H46    H     0.05480   0.77390   0.93530   0.01267  Uiso   1.00
H47    H     0.26400   0.72610   0.56470   0.01267  Uiso   1.00
H48    H     0.20890   0.14280   0.94880   0.01267  Uiso   1.00
H49    H     0.24400   0.61300   0.63900   0.01267  Uiso   1.00
H50    H     0.51830   0.84600   0.03520   0.01267  Uiso   1.00
H51    H     0.30800   0.02400   0.86200   0.01267  Uiso   1.00
H52    H     0.15490   0.84420   0.74900   0.01267  Uiso   1.00
H53    H     0.99910   0.24900   0.15580   0.01267  Uiso   1.00
H54    H     0.63680   0.20990   0.06110   0.01267  Uiso   1.00
H55    H     0.55350   0.96480   0.34600   0.01267  Uiso   1.00
H56    H     0.90440   0.41130   0.28250   0.01267  Uiso   1.00
H57    H     0.84230   0.94880   0.35720   0.01267  Uiso   1.00
H58    H     0.73600   0.27390   0.43530   0.01267  Uiso   1.00
H59    H     0.22860   0.64730   0.32630   0.01267  Uiso   1.00
H60    H     0.09560   0.58870   0.71750   0.01267  Uiso   1.00
H61    H     0.19950   0.64280   0.44880   0.01267  Uiso   1.00
H62    H     0.36320   0.79010   0.93890   0.01267  Uiso   1.00
H63    H     0.18690   0.71750   0.91130   0.01267  Uiso   1.00
H64    H     0.32900   0.07810   0.94650   0.01267  Uiso   1.00
H65    H     0.36430   0.53520   0.15400   0.01267  Uiso   1.00
H66    H     0.64830   0.55120   0.14280   0.01267  Uiso   1.00
H67    H     0.73110   0.56250   0.85750   0.01267  Uiso   1.00
H68    H     0.44220   0.94960   0.40800   0.01267  Uiso   1.00
H69    H     0.55490   0.67370   0.14730   0.01267  Uiso   1.00
H70    H     0.80050   0.35720   0.55120   0.01267  Uiso   1.00
H71    H     0.67100   0.92190   0.05350   0.01267  Uiso   1.00
H72    H     0.75600   0.38700   0.36100   0.01267  Uiso   1.00
H73    H     0.66800   0.63800   0.02400   0.01267  Uiso   1.00
H74    H     0.83000   0.86200   0.47600   0.01267  Uiso   1.00
H75    H     0.85360   0.42190   0.55350   0.01267  Uiso   1.00
H76    H     0.27910   0.09760   0.77340   0.01267  Uiso   1.00
H77    H     0.82870   0.43530   0.22610   0.01267  Uiso   1.00
H78    H     0.11700   0.63900   0.88700   0.01267  Uiso   1.00
H79    H     0.27200   0.26400   0.53000   0.01267  Uiso   1.00
H80    H     0.89950   0.65400   0.46480   0.01267  Uiso   1.00
H81    H     0.29360   0.35750   0.43750   0.01267  Uiso   1.00
H82    H     0.41140   0.85750   0.93750   0.01267  Uiso   1.00
H83    H     0.14300   0.86100   0.61300   0.01267  Uiso   1.00
H84    H     0.72450   0.94650   0.42190   0.01267  Uiso   1.00
H85    H     0.69400   0.47600   0.63800   0.01267  Uiso   1.00
H86    H     0.34890   0.06250   0.35750   0.01267  Uiso   1.00
H87    H     0.34650   0.66510   0.67710   0.01267  Uiso   1.00
H88    H     0.29980   0.55040   0.09200   0.01267  Uiso   1.00
H89    H     0.72800   0.73600   0.47000   0.01267  Uiso   1.00
H90    H     0.44510   0.32630   0.85270   0.01267  Uiso   1.00
H91    H     0.35170   0.44880   0.85720   0.01267  Uiso   1.00
H92    H     0.46400   0.97000   0.26400   0.01267  Uiso   1.00
H93    H     0.40780   0.29010   0.43890   0.01267  Uiso   1.00
H94    H     0.90390   0.25100   0.34420   0.01267  Uiso   1.00
H95    H     0.88300   0.36100   0.11300   0.01267  Uiso   1.00
H96    H     0.99010   0.06470   0.27390   0.01267  Uiso   1.00
H97    H     0.58860   0.14250   0.06250   0.01267  Uiso   1.00
H98    H     0.30600   0.52400   0.36200   0.01267  Uiso   1.00
H99    H     0.60820   0.09200   0.94960   0.01267  Uiso   1.00
H100   H     0.85700   0.13900   0.38700   0.01267  Uiso   1.00
H101   H     0.90180   0.91130   0.78250   0.01267  Uiso   1.00
H102   H     0.59220   0.70990   0.56110   0.01267  Uiso   1.00
H103   H     0.17130   0.56470   0.77390   0.01267  Uiso   1.00
H104   H     0.56600   0.23600   0.97000   0.01267  Uiso   1.00
H105   H     0.55780   0.05040   0.59200   0.01267  Uiso   1.00
H106   H     0.17000   0.13800   0.52400   0.01267  Uiso   1.00
H107   H     0.31570   0.78250   0.58870   0.01267  Uiso   1.00
H108   H     0.99600   0.88700   0.86100   0.01267  Uiso   1.00
H109   H     0.81130   0.16510   0.17710   0.01267  Uiso   1.00
H110   H     0.14980   0.40800   0.55040   0.01267  Uiso   1.00
H111   H     0.84510   0.15580   0.25100   0.01267  Uiso   1.00
H112   H     0.44650   0.03520   0.65400   0.01267  Uiso   1.00
H113   H     0.10050   0.34600   0.53520   0.01267  Uiso   1.00
H114   H     0.94520   0.22610   0.06470   0.01267  Uiso   1.00
H115   H     0.65010   0.40240   0.72660   0.01267  Uiso   1.00
H116   H     0.94750   0.77340   0.40240   0.01267  Uiso   1.00
H117   H     0.30210   0.06110   0.29010   0.01267  Uiso   1.00
H118   H     0.05250   0.22660   0.59760   0.01267  Uiso   1.00
H119   H     0.29780   0.14730   0.82630   0.01267  Uiso   1.00
H120   H     0.00990   0.93530   0.72610   0.01267  Uiso   1.00
C1     C     0.73230   0.22390   0.44150   0.01267  Uiso   1.00
C2     C     0.19040   0.05360   0.59000   0.01267  Uiso   1.00
C3     C     0.58530   0.14960   0.85680   0.01267  Uiso   1.00
C4     C     0.80960   0.94640   0.41000   0.01267  Uiso   1.00
C5     C     0.35220   0.83290   0.96610   0.01267  Uiso   1.00
C6     C     0.10230   0.72390   0.94150   0.01267  Uiso   1.00
C7     C     0.20040   0.02410   0.38330   0.01267  Uiso   1.00
C8     C     0.84380   0.12950   0.21090   0.01267  Uiso   1.00
C9     C     0.21960   0.59000   0.44640   0.01267  Uiso   1.00
C10    C     0.41470   0.85040   0.14320   0.01267  Uiso   1.00
C11    C     0.12020   0.17270   0.82610   0.01267  Uiso   1.00
C12    C     0.24270   0.92200   0.75860   0.01267  Uiso   1.00
C13    C     0.41630   0.38330   0.47590   0.01267  Uiso   1.00
C14    C     0.14960   0.35770   0.56170   0.01267  Uiso   1.00
C15    C     0.26770   0.77610   0.55850   0.01267  Uiso   1.00
C16    C     0.66600   0.55360   0.09000   0.01267  Uiso   1.00
C17    C     0.79960   0.97590   0.61670   0.01267  Uiso   1.00
C18    C     0.34880   0.33290   0.46610   0.01267  Uiso   1.00
C19    C     0.16470   0.25860   0.07800   0.01267  Uiso   1.00
C20    C     0.68170   0.96610   0.66710   0.01267  Uiso   1.00
C21    C     0.05470   0.78910   0.62950   0.01267  Uiso   1.00
C22    C     0.81260   0.52200   0.28780   0.01267  Uiso   1.00
C23    C     0.00130   0.24140   0.42200   0.01267  Uiso   1.00
C24    C     0.77420   0.48650   0.05490   0.01267  Uiso   1.00
C25    C     0.31580   0.62950   0.71090   0.01267  Uiso   1.00
C26    C     0.68590   0.37950   0.67870   0.01267  Uiso   1.00
C27    C     0.26510   0.64320   0.14960   0.01267  Uiso   1.00
C28    C     0.81560   0.01350   0.44510   0.01267  Uiso   1.00
C29    C     0.43100   0.85770   0.06170   0.01267  Uiso   1.00
C30    C     0.06540   0.17870   0.62050   0.01267  Uiso   1.00
C31    C     0.99870   0.75860   0.57800   0.01267  Uiso   1.00
C32    C     0.24400   0.09000   0.94640   0.01267  Uiso   1.00
C33    C     0.31410   0.62050   0.32130   0.01267  Uiso   1.00
C34    C     0.10780   0.47590   0.11670   0.01267  Uiso   1.00
C35    C     0.89770   0.27610   0.05850   0.01267  Uiso   1.00
C36    C     0.33400   0.44640   0.91000   0.01267  Uiso   1.00
C37    C     0.90830   0.64960   0.35680   0.01267  Uiso   1.00
C38    C     0.15620   0.87050   0.78910   0.01267  Uiso   1.00
C39    C     0.93460   0.82130   0.37950   0.01267  Uiso   1.00
C40    C     0.04380   0.05850   0.22390   0.01267  Uiso   1.00
C41    C     0.87980   0.82730   0.17390   0.01267  Uiso   1.00
C42    C     0.18440   0.98650   0.55490   0.01267  Uiso   1.00
C43    C     0.87760   0.02200   0.78780   0.01267  Uiso   1.00
C44    C     0.82620   0.44150   0.27610   0.01267  Uiso   1.00
C45    C     0.55790   0.85680   0.35040   0.01267  Uiso   1.00
C46    C     0.58370   0.61670   0.52410   0.01267  Uiso   1.00
C47    C     0.75730   0.07800   0.24140   0.01267  Uiso   1.00
C48    C     0.85040   0.64230   0.43830   0.01267  Uiso   1.00
C49    C     0.50730   0.06170   0.64230   0.01267  Uiso   1.00
C50    C     0.89960   0.28780   0.97800   0.01267  Uiso   1.00
C51    C     0.42330   0.57800   0.74140   0.01267  Uiso   1.00
C52    C     0.38100   0.67270   0.32610   0.01267  Uiso   1.00
C53    C     0.64780   0.16710   0.03390   0.01267  Uiso   1.00
C54    C     0.17380   0.55850   0.72390   0.01267  Uiso   1.00
C55    C     0.56900   0.14230   0.93830   0.01267  Uiso   1.00
C56    C     0.70710   0.67390   0.17270   0.01267  Uiso   1.00
C57    C     0.66540   0.21220   0.52200   0.01267  Uiso   1.00
C58    C     0.78040   0.41000   0.55360   0.01267  Uiso   1.00
C59    C     0.09170   0.35040   0.64320   0.01267  Uiso   1.00
C60    C     0.73490   0.35680   0.85040   0.01267  Uiso   1.00
C61    C     0.65120   0.66710   0.53390   0.01267  Uiso   1.00
C62    C     0.17090   0.05490   0.01350   0.01267  Uiso   1.00
C63    C     0.82910   0.94510   0.98650   0.01267  Uiso   1.00
C64    C     0.28870   0.56170   0.14230   0.01267  Uiso   1.00
C65    C     0.24410   0.12050   0.82130   0.01267  Uiso   1.00
C66    C     0.02670   0.28910   0.12950   0.01267  Uiso   1.00
C67    C     0.73930   0.44510   0.48650   0.01267  Uiso   1.00
C68    C     0.57670   0.42200   0.25860   0.01267  Uiso   1.00
C69    C     0.71130   0.43830   0.85770   0.01267  Uiso   1.00
C70    C     0.26070   0.55490   0.51350   0.01267  Uiso   1.00
C71    C     0.10040   0.71220   0.02200   0.01267  Uiso   1.00
C72    C     0.33460   0.78780   0.47800   0.01267  Uiso   1.00
C73    C     0.77550   0.11670   0.02410   0.01267  Uiso   1.00
C74    C     0.05370   0.82610   0.32730   0.01267  Uiso   1.00
C75    C     0.12240   0.97800   0.21220   0.01267  Uiso   1.00
C76    C     0.94630   0.17390   0.67270   0.01267  Uiso   1.00
C77    C     0.44210   0.14320   0.64960   0.01267  Uiso   1.00
C78    C     0.31830   0.03390   0.33290   0.01267  Uiso   1.00
C79    C     0.81490   0.53390   0.83290   0.01267  Uiso   1.00
C80    C     0.29290   0.32610   0.82730   0.01267  Uiso   1.00
C81    C     0.83530   0.74140   0.92200   0.01267  Uiso   1.00
C82    C     0.61900   0.32730   0.67390   0.01267  Uiso   1.00
C83    C     0.75600   0.91000   0.05360   0.01267  Uiso   1.00
C84    C     0.22580   0.51350   0.94510   0.01267  Uiso   1.00
C85    C     0.89220   0.52410   0.88330   0.01267  Uiso   1.00
C86    C     0.63540   0.67870   0.12050   0.01267  Uiso   1.00
C87    C     0.95620   0.94150   0.77610   0.01267  Uiso   1.00
C88    C     0.49270   0.93830   0.35770   0.01267  Uiso   1.00
C89    C     0.75590   0.87950   0.17870   0.01267  Uiso   1.00
C90    C     0.36460   0.32130   0.87950   0.01267  Uiso   1.00
C91    C     0.18740   0.47800   0.71220   0.01267  Uiso   1.00
C92    C     0.68420   0.37050   0.28910   0.01267  Uiso   1.00
C93    C     0.94530   0.21090   0.37050   0.01267  Uiso   1.00
C94    C     0.22450   0.88330   0.97590   0.01267  Uiso   1.00
C95    C     0.18510   0.46610   0.16710   0.01267  Uiso   1.00
C96    C     0.97330   0.71090   0.87050   0.01267  Uiso   1.00
N1     N     0.14170   0.82670   0.58410   0.01267  Uiso   1.00
N2     N     0.76020   0.93740   0.12160   0.01267  Uiso   1.00
N3     N     0.85830   0.17330   0.41590   0.01267  Uiso   1.00
N4     N     0.41480   0.96280   0.30920   0.01267  Uiso   1.00
N5     N     0.11820   0.12160   0.56260   0.01267  Uiso   1.00
N6     N     0.94750   0.32670   0.08410   0.01267  Uiso   1.00
N7     N     0.68080   0.43740   0.62160   0.01267  Uiso   1.00
N8     N     0.23980   0.06260   0.87840   0.01267  Uiso   1.00
N9     N     0.05250   0.67330   0.91590   0.01267  Uiso   1.00
N10    N     0.27600   0.30920   0.53720   0.01267  Uiso   1.00
N11    N     0.18680   0.53720   0.19080   0.01267  Uiso   1.00
N12    N     0.81320   0.46280   0.80920   0.01267  Uiso   1.00
N13    N     0.31920   0.56260   0.37840   0.01267  Uiso   1.00
N14    N     0.62240   0.19080   0.96280   0.01267  Uiso   1.00
N15    N     0.96840   0.08410   0.17330   0.01267  Uiso   1.00
N16    N     0.03160   0.91590   0.82670   0.01267  Uiso   1.00
N17    N     0.72400   0.69080   0.46280   0.01267  Uiso   1.00
N18    N     0.27420   0.58410   0.67330   0.01267  Uiso   1.00
N19    N     0.88180   0.87840   0.43740   0.01267  Uiso   1.00
N20    N     0.58520   0.03720   0.69080   0.01267  Uiso   1.00
N21    N     0.30240   0.37840   0.93740   0.01267  Uiso   1.00
N22    N     0.69760   0.62160   0.06260   0.01267  Uiso   1.00
N23    N     0.72580   0.41590   0.32670   0.01267  Uiso   1.00
N24    N     0.37760   0.80920   0.03720   0.01267  Uiso   1.00
O1     O     0.28910   0.43610   0.67650   0.01267  Uiso   1.00
O2     O     0.04140   0.54180   0.10900   0.01267  Uiso   1.00
O3     O     0.97240   0.85210   0.14450   0.01267  Uiso   1.00
O4     O     0.72470   0.06850   0.45910   0.01267  Uiso   1.00
O5     O     0.16670   0.31990   0.68010   0.01267  Uiso   1.00
O6     O     0.10970   0.23530   0.80190   0.01267  Uiso   1.00
O7     O     0.79320   0.95910   0.93150   0.01267  Uiso   1.00
O8     O     0.91040   0.53920   0.26020   0.01267  Uiso   1.00
O9     O     0.58320   0.60900   0.45820   0.01267  Uiso   1.00
O10    O     0.35310   0.73530   0.30190   0.01267  Uiso   1.00
O11    O     0.24770   0.56850   0.95910   0.01267  Uiso   1.00
O12    O     0.91810   0.01020   0.45580   0.01267  Uiso   1.00
O13    O     0.41680   0.39100   0.54180   0.01267  Uiso   1.00
O14    O     0.03440   0.67650   0.06390   0.01267  Uiso   1.00
O15    O     0.55040   0.23980   0.53920   0.01267  Uiso   1.00
O16    O     0.19220   0.95820   0.39100   0.01267  Uiso   1.00
O17    O     0.46900   0.64790   0.35550   0.01267  Uiso   1.00
O18    O     0.11690   0.85550   0.35210   0.01267  Uiso   1.00
O19    O     0.66670   0.18010   0.81990   0.01267  Uiso   1.00
O20    O     0.96710   0.22460   0.48900   0.01267  Uiso   1.00
O21    O     0.51340   0.81990   0.31990   0.01267  Uiso   1.00
O22    O     0.88310   0.14450   0.64790   0.01267  Uiso   1.00
O23    O     0.08840   0.80190   0.26470   0.01267  Uiso   1.00
O24    O     0.64690   0.26470   0.69810   0.01267  Uiso   1.00
O25    O     0.34750   0.67230   0.12410   0.01267  Uiso   1.00
O26    O     0.12130   0.07740   0.41500   0.01267  Uiso   1.00
O27    O     0.08960   0.46080   0.73980   0.01267  Uiso   1.00
O28    O     0.19170   0.98900   0.77540   0.01267  Uiso   1.00
O29    O     0.11370   0.42260   0.08500   0.01267  Uiso   1.00
O30    O     0.15320   0.68010   0.18010   0.01267  Uiso   1.00
O31    O     0.92020   0.72650   0.61110   0.01267  Uiso   1.00
O32    O     0.90170   0.06390   0.82350   0.01267  Uiso   1.00
O33    O     0.81930   0.72460   0.98900   0.01267  Uiso   1.00
O34    O     0.08190   0.98980   0.54420   0.01267  Uiso   1.00
O35    O     0.33330   0.81990   0.18010   0.01267  Uiso   1.00
O36    O     0.84680   0.31990   0.81990   0.01267  Uiso   1.00
O37    O     0.07980   0.27350   0.38890   0.01267  Uiso   1.00
O38    O     0.48660   0.18010   0.68010   0.01267  Uiso   1.00
O39    O     0.65500   0.69810   0.23530   0.01267  Uiso   1.00
O40    O     0.52840   0.12410   0.82770   0.01267  Uiso   1.00
O41    O     0.65250   0.32770   0.87590   0.01267  Uiso   1.00
O42    O     0.80780   0.04180   0.60900   0.01267  Uiso   1.00
O43    O     0.96560   0.32350   0.93610   0.01267  Uiso   1.00
O44    O     0.88630   0.57740   0.91500   0.01267  Uiso   1.00
O45    O     0.20980   0.96080   0.23980   0.01267  Uiso   1.00
O46    O     0.01980   0.62410   0.32770   0.01267  Uiso   1.00
O47    O     0.95860   0.45820   0.89100   0.01267  Uiso   1.00
O48    O     0.53100   0.35210   0.64450   0.01267  Uiso   1.00
O49    O     0.24220   0.22650   0.11110   0.01267  Uiso   1.00
O50    O     0.82940   0.26020   0.96080   0.01267  Uiso   1.00
O51    O     0.75780   0.77350   0.88890   0.01267  Uiso   1.00
O52    O     0.87870   0.92260   0.58500   0.01267  Uiso   1.00
O53    O     0.20680   0.04090   0.06850   0.01267  Uiso   1.00
O54    O     0.72520   0.17650   0.56390   0.01267  Uiso   1.00
O55    O     0.75230   0.43150   0.04090   0.01267  Uiso   1.00
O56    O     0.89030   0.76470   0.19810   0.01267  Uiso   1.00
O57    O     0.03290   0.77540   0.51100   0.01267  Uiso   1.00
O58    O     0.92830   0.95580   0.98980   0.01267  Uiso   1.00
O59    O     0.46370   0.41500   0.42260   0.01267  Uiso   1.00
O60    O     0.15040   0.89100   0.04180   0.01267  Uiso   1.00
O61    O     0.09830   0.93610   0.17650   0.01267  Uiso   1.00
O62    O     0.82450   0.64450   0.14790   0.01267  Uiso   1.00
O63    O     0.80830   0.01100   0.22460   0.01267  Uiso   1.00
O64    O     0.18380   0.54090   0.56850   0.01267  Uiso   1.00
O65    O     0.27480   0.82350   0.43610   0.01267  Uiso   1.00
O66    O     0.83330   0.68010   0.31990   0.01267  Uiso   1.00
O67    O     0.81620   0.45910   0.43150   0.01267  Uiso   1.00
O68    O     0.79020   0.03920   0.76020   0.01267  Uiso   1.00
O69    O     0.11590   0.51020   0.95580   0.01267  Uiso   1.00
O70    O     0.80130   0.08500   0.07740   0.01267  Uiso   1.00
O71    O     0.35330   0.88890   0.72650   0.01267  Uiso   1.00
O72    O     0.71090   0.56390   0.32350   0.01267  Uiso   1.00
O73    O     0.37390   0.54420   0.51020   0.01267  Uiso   1.00
O74    O     0.91160   0.19810   0.73530   0.01267  Uiso   1.00
O75    O     0.53130   0.38890   0.22650   0.01267  Uiso   1.00
O76    O     0.19870   0.91500   0.92260   0.01267  Uiso   1.00
O77    O     0.62610   0.45580   0.48980   0.01267  Uiso   1.00
O78    O     0.64670   0.11110   0.27350   0.01267  Uiso   1.00
O79    O     0.45610   0.51100   0.72460   0.01267  Uiso   1.00
O80    O     0.17060   0.73980   0.03920   0.01267  Uiso   1.00
O81    O     0.98020   0.37590   0.67230   0.01267  Uiso   1.00
O82    O     0.47160   0.87590   0.17230   0.01267  Uiso   1.00
O83    O     0.27530   0.93150   0.54090   0.01267  Uiso   1.00
O84    O     0.88410   0.48980   0.04420   0.01267  Uiso   1.00
O85    O     0.35610   0.17230   0.62410   0.01267  Uiso   1.00
O86    O     0.54390   0.48900   0.27540   0.01267  Uiso   1.00
O87    O     0.84960   0.10900   0.95820   0.01267  Uiso   1.00
O88    O     0.64390   0.82770   0.37590   0.01267  Uiso   1.00
O89    O     0.18070   0.27540   0.01100   0.01267  Uiso   1.00
O90    O     0.17550   0.35550   0.85210   0.01267  Uiso   1.00
O91    O     0.46870   0.61110   0.77350   0.01267  Uiso   1.00
O92    O     0.07170   0.04420   0.01020   0.01267  Uiso   1.00
O93    O     0.02760   0.14790   0.85550   0.01267  Uiso   1.00
O94    O     0.34500   0.30190   0.76470   0.01267  Uiso   1.00
O95    O     0.44960   0.76020   0.46080   0.01267  Uiso   1.00
O96    O     0.53630   0.58500   0.57740   0.01267  Uiso   1.00
