data_TIVFAG_clean
_audit_creation_date              2014-07-02
_audit_creation_method            'Materials Studio'
_symmetry_space_group_name_H-M    'P1'
_symmetry_Int_Tables_number       1
_symmetry_cell_setting            triclinic
loop_
_symmetry_equiv_pos_as_xyz
  x,y,z
_cell_length_a                    10.0388
_cell_length_b                    14.2291
_cell_length_c                    10.3413
_cell_angle_alpha                 92.4490
_cell_angle_beta                  90.0000
_cell_angle_gamma                 90.0000
loop_
_atom_site_label
_atom_site_type_symbol
_atom_site_fract_x
_atom_site_fract_y
_atom_site_fract_z
_atom_site_U_iso_or_equiv
_atom_site_adp_type
_atom_site_occupancy
Cu1    Cu    0.24699   0.28248   0.92450   0.01267  Uiso   1.00
Cu2    Cu    0.23290   0.78686   0.92860   0.01267  Uiso   1.00
Cu3    Cu    0.88663   0.77353   0.70532   0.01267  Uiso   1.00
Cu4    Cu    0.40903   0.78041   0.65767   0.01267  Uiso   1.00
Cu5    Cu    0.27701   0.66725   0.40975   0.01267  Uiso   1.00
Cu6    Cu    0.26534   0.87698   0.43944   0.01267  Uiso   1.00
Cu7    Cu    0.25772   0.28617   0.43585   0.01267  Uiso   1.00
Cu8    Cu    0.75301   0.28248   0.42450   0.01267  Uiso   1.00
Cu9    Cu    0.76710   0.78686   0.42860   0.01267  Uiso   1.00
Cu10   Cu    0.11337   0.77353   0.20532   0.01267  Uiso   1.00
Cu11   Cu    0.59097   0.78041   0.15767   0.01267  Uiso   1.00
Cu12   Cu    0.72299   0.66725   0.90975   0.01267  Uiso   1.00
Cu13   Cu    0.73466   0.87698   0.93944   0.01267  Uiso   1.00
Cu14   Cu    0.74228   0.28617   0.93585   0.01267  Uiso   1.00
H1     H     0.36780   0.48600   0.77760   0.01267  Uiso   1.00
H2     H     0.17590   0.51780   0.61150   0.01267  Uiso   1.00
H3     H     0.00430   0.45130   0.71030   0.01267  Uiso   1.00
H4     H     0.06270   0.50440   0.96910   0.01267  Uiso   1.00
H5     H     0.12300   0.09290   0.09440   0.01267  Uiso   1.00
H6     H     0.31440   0.05260   0.25190   0.01267  Uiso   1.00
H7     H     0.49510   0.10580   0.14830   0.01267  Uiso   1.00
H8     H     0.42730   0.06470   0.89090   0.01267  Uiso   1.00
H9     H     0.03400   0.82900   0.02800   0.01267  Uiso   1.00
H10    H     0.92500   0.75000   0.93400   0.01267  Uiso   1.00
H11    H     0.40700   0.87100   0.85300   0.01267  Uiso   1.00
H12    H     0.48000   0.77700   0.44600   0.01267  Uiso   1.00
H13    H     0.63220   0.48600   0.27760   0.01267  Uiso   1.00
H14    H     0.82410   0.51780   0.11150   0.01267  Uiso   1.00
H15    H     0.99570   0.45130   0.21030   0.01267  Uiso   1.00
H16    H     0.93730   0.50440   0.46910   0.01267  Uiso   1.00
H17    H     0.87700   0.09290   0.59440   0.01267  Uiso   1.00
H18    H     0.68560   0.05260   0.75190   0.01267  Uiso   1.00
H19    H     0.50490   0.10580   0.64830   0.01267  Uiso   1.00
H20    H     0.57270   0.06470   0.39090   0.01267  Uiso   1.00
H21    H     0.96600   0.82900   0.52800   0.01267  Uiso   1.00
H22    H     0.07500   0.75000   0.43400   0.01267  Uiso   1.00
H23    H     0.59300   0.87100   0.35300   0.01267  Uiso   1.00
H24    H     0.52000   0.77700   0.94600   0.01267  Uiso   1.00
C1     C     0.27680   0.45780   0.76920   0.01267  Uiso   1.00
C2     C     0.17870   0.52840   0.70770   0.01267  Uiso   1.00
C3     C     0.04580   0.50150   0.76770   0.01267  Uiso   1.00
C4     C     0.08280   0.45760   0.89690   0.01267  Uiso   1.00
C5     C     0.28120   0.36730   0.68460   0.01267  Uiso   1.00
C6     C     0.22440   0.62820   0.74330   0.01267  Uiso   1.00
C7     C     0.94720   0.58160   0.78390   0.01267  Uiso   1.00
C8     C     0.00120   0.36810   0.91790   0.01267  Uiso   1.00
C9     C     0.21730   0.11560   0.09720   0.01267  Uiso   1.00
C10    C     0.30790   0.04150   0.15600   0.01267  Uiso   1.00
C11    C     0.44460   0.06000   0.09100   0.01267  Uiso   1.00
C12    C     0.40790   0.10940   0.96570   0.01267  Uiso   1.00
C13    C     0.22650   0.20990   0.17580   0.01267  Uiso   1.00
C14    C     0.25570   0.94200   0.12320   0.01267  Uiso   1.00
C15    C     0.53020   0.97380   0.06790   0.01267  Uiso   1.00
C16    C     0.48970   0.19800   0.94820   0.01267  Uiso   1.00
C17    C     0.72320   0.45780   0.26920   0.01267  Uiso   1.00
C18    C     0.82130   0.52840   0.20770   0.01267  Uiso   1.00
C19    C     0.95420   0.50150   0.26770   0.01267  Uiso   1.00
C20    C     0.91720   0.45760   0.39690   0.01267  Uiso   1.00
C21    C     0.71880   0.36730   0.18460   0.01267  Uiso   1.00
C22    C     0.77560   0.62820   0.24330   0.01267  Uiso   1.00
C23    C     0.05280   0.58160   0.28390   0.01267  Uiso   1.00
C24    C     0.99880   0.36810   0.41790   0.01267  Uiso   1.00
C25    C     0.78270   0.11560   0.59720   0.01267  Uiso   1.00
C26    C     0.69210   0.04150   0.65600   0.01267  Uiso   1.00
C27    C     0.55540   0.06000   0.59100   0.01267  Uiso   1.00
C28    C     0.59210   0.10940   0.46570   0.01267  Uiso   1.00
C29    C     0.77350   0.20990   0.67580   0.01267  Uiso   1.00
C30    C     0.74430   0.94200   0.62320   0.01267  Uiso   1.00
C31    C     0.46980   0.97380   0.56790   0.01267  Uiso   1.00
C32    C     0.51030   0.19800   0.44820   0.01267  Uiso   1.00
Cl1    Cl    0.10399   0.97408   0.51113   0.01267  Uiso   1.00
Cl2    Cl    0.62501   0.69012   0.65661   0.01267  Uiso   1.00
Cl3    Cl    0.89601   0.97408   0.01113   0.01267  Uiso   1.00
Cl4    Cl    0.37499   0.69012   0.15661   0.01267  Uiso   1.00
O1     O     0.22270   0.44070   0.89480   0.01267  Uiso   1.00
O2     O     0.23950   0.29200   0.72990   0.01267  Uiso   1.00
O3     O     0.32320   0.37590   0.57020   0.01267  Uiso   1.00
O4     O     0.28000   0.67250   0.65340   0.01267  Uiso   1.00
O5     O     0.20790   0.65800   0.85710   0.01267  Uiso   1.00
O6     O     0.95920   0.64490   0.70320   0.01267  Uiso   1.00
O7     O     0.86190   0.57710   0.87220   0.01267  Uiso   1.00
O8     O     0.87790   0.37940   0.91400   0.01267  Uiso   1.00
O9     O     0.05810   0.29120   0.93980   0.01267  Uiso   1.00
O10    O     0.07280   0.76750   0.02450   0.01267  Uiso   1.00
O11    O     0.84800   0.77250   0.88990   0.01267  Uiso   1.00
O12    O     0.26640   0.12660   0.96800   0.01267  Uiso   1.00
O13    O     0.25820   0.28320   0.11960   0.01267  Uiso   1.00
O14    O     0.20060   0.20360   0.29400   0.01267  Uiso   1.00
O15    O     0.20820   0.89640   0.21320   0.01267  Uiso   1.00
O16    O     0.26500   0.91440   0.00590   0.01267  Uiso   1.00
O17    O     0.53210   0.91580   0.15700   0.01267  Uiso   1.00
O18    O     0.59390   0.96620   0.96220   0.01267  Uiso   1.00
O19    O     0.61310   0.18940   0.96980   0.01267  Uiso   1.00
O20    O     0.43650   0.27100   0.90850   0.01267  Uiso   1.00
O21    O     0.39590   0.80520   0.84000   0.01267  Uiso   1.00
O22    O     0.38940   0.77010   0.47110   0.01267  Uiso   1.00
O23    O     0.77730   0.44070   0.39480   0.01267  Uiso   1.00
O24    O     0.76050   0.29200   0.22990   0.01267  Uiso   1.00
O25    O     0.67680   0.37590   0.07020   0.01267  Uiso   1.00
O26    O     0.72000   0.67250   0.15340   0.01267  Uiso   1.00
O27    O     0.79210   0.65800   0.35710   0.01267  Uiso   1.00
O28    O     0.04080   0.64490   0.20320   0.01267  Uiso   1.00
O29    O     0.13810   0.57710   0.37220   0.01267  Uiso   1.00
O30    O     0.12210   0.37940   0.41400   0.01267  Uiso   1.00
O31    O     0.94190   0.29120   0.43980   0.01267  Uiso   1.00
O32    O     0.92720   0.76750   0.52450   0.01267  Uiso   1.00
O33    O     0.15200   0.77250   0.38990   0.01267  Uiso   1.00
O34    O     0.73360   0.12660   0.46800   0.01267  Uiso   1.00
O35    O     0.74180   0.28320   0.61960   0.01267  Uiso   1.00
O36    O     0.79940   0.20360   0.79400   0.01267  Uiso   1.00
O37    O     0.79180   0.89640   0.71320   0.01267  Uiso   1.00
O38    O     0.73500   0.91440   0.50590   0.01267  Uiso   1.00
O39    O     0.46790   0.91580   0.65700   0.01267  Uiso   1.00
O40    O     0.40610   0.96620   0.46220   0.01267  Uiso   1.00
O41    O     0.38690   0.18940   0.46980   0.01267  Uiso   1.00
O42    O     0.56350   0.27100   0.40850   0.01267  Uiso   1.00
O43    O     0.60410   0.80520   0.34000   0.01267  Uiso   1.00
O44    O     0.61060   0.77010   0.97110   0.01267  Uiso   1.00
