data_TIVXOM_charged
_audit_creation_date              2014-07-02
_audit_creation_method            'Materials Studio'
_symmetry_space_group_name_H-M    'P1'
_symmetry_Int_Tables_number       1
_symmetry_cell_setting            triclinic
loop_
_symmetry_equiv_pos_as_xyz
  x,y,z
_cell_length_a                    9.8195
_cell_length_b                    17.6984
_cell_length_c                    17.6984
_cell_angle_alpha                 63.3400
_cell_angle_beta                  79.3423
_cell_angle_gamma                 100.6580
loop_
_atom_site_label
_atom_site_type_symbol
_atom_site_fract_x
_atom_site_fract_y
_atom_site_fract_z
_atom_site_U_iso_or_equiv
_atom_site_adp_type
_atom_site_occupancy
Ag1    Ag    0.55055   0.91819   0.55172   0.01267  Uiso   1.00
Ag2    Ag    0.10227   0.55172   0.53009   0.01267  Uiso   1.00
Ag3    Ag    0.63236   0.53009   0.91819   0.01267  Uiso   1.00
Ag4    Ag    0.44945   0.08181   0.44828   0.01267  Uiso   1.00
Ag5    Ag    0.89773   0.44828   0.46991   0.01267  Uiso   1.00
Ag6    Ag    0.36764   0.46991   0.08181   0.01267  Uiso   1.00
H1     H     0.10330   0.64510   0.69380   0.01267  Uiso   1.00
H2     H     0.29310   0.76070   0.56010   0.01267  Uiso   1.00
H3     H     0.42060   0.88890   0.72320   0.01267  Uiso   1.00
H4     H     0.26040   0.85370   0.78540   0.01267  Uiso   1.00
H5     H     0.36800   0.79830   0.81260   0.01267  Uiso   1.00
H6     H     0.20760   0.40910   0.96020   0.01267  Uiso   1.00
H7     H     0.09120   0.49640   0.85670   0.01267  Uiso   1.00
H8     H     0.08760   0.69690   0.87190   0.01267  Uiso   1.00
H9     H     0.99400   0.63400   0.84780   0.01267  Uiso   1.00
H10    H     0.29990   0.63190   0.02720   0.01267  Uiso   1.00
H11    H     0.31000   0.70590   0.93240   0.01267  Uiso   1.00
H12    H     0.16060   0.65770   0.00800   0.01267  Uiso   1.00
H13    H     0.79710   0.69380   0.66110   0.01267  Uiso   1.00
H14    H     0.85320   0.56010   0.67920   0.01267  Uiso   1.00
H15    H     0.14380   0.72320   0.38790   0.01267  Uiso   1.00
H16    H     0.04580   0.78540   0.36090   0.01267  Uiso   1.00
H17    H     0.18060   0.81260   0.38910   0.01267  Uiso   1.00
H18    H     0.16780   0.96020   0.63070   0.01267  Uiso   1.00
H19    H     0.94790   0.85670   0.64690   0.01267  Uiso   1.00
H20    H     0.95950   0.87190   0.43120   0.01267  Uiso   1.00
H21    H     0.84180   0.84780   0.51820   0.01267  Uiso   1.00
H22    H     0.32710   0.02720   0.34090   0.01267  Uiso   1.00
H23    H     0.24240   0.93240   0.36170   0.01267  Uiso   1.00
H24    H     0.16860   0.00800   0.33430   0.01267  Uiso   1.00
H25    H     0.45820   0.66110   0.64510   0.01267  Uiso   1.00
H26    H     0.53240   0.67920   0.76070   0.01267  Uiso   1.00
H27    H     0.53170   0.38790   0.88890   0.01267  Uiso   1.00
H28    H     0.40670   0.36090   0.85370   0.01267  Uiso   1.00
H29    H     0.56970   0.38910   0.79830   0.01267  Uiso   1.00
H30    H     0.79850   0.63070   0.40910   0.01267  Uiso   1.00
H31    H     0.59480   0.64690   0.49640   0.01267  Uiso   1.00
H32    H     0.39070   0.43120   0.69690   0.01267  Uiso   1.00
H33    H     0.36000   0.51820   0.63400   0.01267  Uiso   1.00
H34    H     0.66800   0.34090   0.63190   0.01267  Uiso   1.00
H35    H     0.60410   0.36170   0.70590   0.01267  Uiso   1.00
H36    H     0.50290   0.33430   0.65770   0.01267  Uiso   1.00
H37    H     0.89670   0.35490   0.30620   0.01267  Uiso   1.00
H38    H     0.70690   0.23930   0.43990   0.01267  Uiso   1.00
H39    H     0.57940   0.11110   0.27680   0.01267  Uiso   1.00
H40    H     0.73960   0.14630   0.21460   0.01267  Uiso   1.00
H41    H     0.63200   0.20170   0.18740   0.01267  Uiso   1.00
H42    H     0.79240   0.59090   0.03980   0.01267  Uiso   1.00
H43    H     0.90880   0.50360   0.14330   0.01267  Uiso   1.00
H44    H     0.91240   0.30310   0.12810   0.01267  Uiso   1.00
H45    H     0.00600   0.36600   0.15220   0.01267  Uiso   1.00
H46    H     0.70010   0.36810   0.97280   0.01267  Uiso   1.00
H47    H     0.69000   0.29410   0.06760   0.01267  Uiso   1.00
H48    H     0.83940   0.34230   0.99200   0.01267  Uiso   1.00
H49    H     0.20290   0.30620   0.33890   0.01267  Uiso   1.00
H50    H     0.14680   0.43990   0.32080   0.01267  Uiso   1.00
H51    H     0.85620   0.27680   0.61210   0.01267  Uiso   1.00
H52    H     0.95420   0.21460   0.63910   0.01267  Uiso   1.00
H53    H     0.81940   0.18740   0.61090   0.01267  Uiso   1.00
H54    H     0.83220   0.03980   0.36930   0.01267  Uiso   1.00
H55    H     0.05210   0.14330   0.35310   0.01267  Uiso   1.00
H56    H     0.04050   0.12810   0.56880   0.01267  Uiso   1.00
H57    H     0.15820   0.15220   0.48180   0.01267  Uiso   1.00
H58    H     0.67290   0.97280   0.65910   0.01267  Uiso   1.00
H59    H     0.75760   0.06760   0.63830   0.01267  Uiso   1.00
H60    H     0.83140   0.99200   0.66570   0.01267  Uiso   1.00
H61    H     0.54180   0.33890   0.35490   0.01267  Uiso   1.00
H62    H     0.46760   0.32080   0.23930   0.01267  Uiso   1.00
H63    H     0.46830   0.61210   0.11110   0.01267  Uiso   1.00
H64    H     0.59330   0.63910   0.14630   0.01267  Uiso   1.00
H65    H     0.43030   0.61090   0.20170   0.01267  Uiso   1.00
H66    H     0.20150   0.36930   0.59090   0.01267  Uiso   1.00
H67    H     0.40520   0.35310   0.50360   0.01267  Uiso   1.00
H68    H     0.60930   0.56880   0.30310   0.01267  Uiso   1.00
H69    H     0.64000   0.48180   0.36600   0.01267  Uiso   1.00
H70    H     0.33200   0.65910   0.36810   0.01267  Uiso   1.00
H71    H     0.39590   0.63830   0.29410   0.01267  Uiso   1.00
H72    H     0.49710   0.66570   0.34230   0.01267  Uiso   1.00
C1     C     0.17020   0.69330   0.68840   0.01267  Uiso   1.00
C2     C     0.27510   0.75720   0.61520   0.01267  Uiso   1.00
C3     C     0.29250   0.78920   0.71660   0.01267  Uiso   1.00
C4     C     0.33960   0.83680   0.76370   0.01267  Uiso   1.00
C5     C     0.19900   0.46420   0.94960   0.01267  Uiso   1.00
C6     C     0.13510   0.51180   0.89220   0.01267  Uiso   1.00
C7     C     0.21700   0.58280   0.95720   0.01267  Uiso   1.00
C8     C     0.09210   0.65950   0.84540   0.01267  Uiso   1.00
C9     C     0.24970   0.65040   0.98350   0.01267  Uiso   1.00
C10    C     0.85860   0.68840   0.61830   0.01267  Uiso   1.00
C11    C     0.89030   0.61520   0.62760   0.01267  Uiso   1.00
C12    C     0.00910   0.71660   0.49420   0.01267  Uiso   1.00
C13    C     0.10330   0.76370   0.39950   0.01267  Uiso   1.00
C14    C     0.14860   0.94960   0.58620   0.01267  Uiso   1.00
C15    C     0.02730   0.89220   0.59600   0.01267  Uiso   1.00
C16    C     0.17420   0.95720   0.46000   0.01267  Uiso   1.00
C17    C     0.93750   0.84540   0.49510   0.01267  Uiso   1.00
C18    C     0.23320   0.98350   0.36610   0.01267  Uiso   1.00
C19    C     0.47690   0.61830   0.69330   0.01267  Uiso   1.00
C20    C     0.51790   0.62760   0.75720   0.01267  Uiso   1.00
C21    C     0.50330   0.49420   0.78920   0.01267  Uiso   1.00
C22    C     0.50280   0.39950   0.83680   0.01267  Uiso   1.00
C23    C     0.73480   0.58620   0.46420   0.01267  Uiso   1.00
C24    C     0.62330   0.59600   0.51180   0.01267  Uiso   1.00
C25    C     0.63420   0.46000   0.58280   0.01267  Uiso   1.00
C26    C     0.43260   0.49510   0.65950   0.01267  Uiso   1.00
C27    C     0.59930   0.36610   0.65040   0.01267  Uiso   1.00
C28    C     0.82980   0.30670   0.31160   0.01267  Uiso   1.00
C29    C     0.72490   0.24280   0.38480   0.01267  Uiso   1.00
C30    C     0.70750   0.21080   0.28340   0.01267  Uiso   1.00
C31    C     0.66040   0.16320   0.23630   0.01267  Uiso   1.00
C32    C     0.80100   0.53580   0.05040   0.01267  Uiso   1.00
C33    C     0.86490   0.48820   0.10780   0.01267  Uiso   1.00
C34    C     0.78300   0.41720   0.04280   0.01267  Uiso   1.00
C35    C     0.90790   0.34050   0.15460   0.01267  Uiso   1.00
C36    C     0.75030   0.34960   0.01650   0.01267  Uiso   1.00
C37    C     0.14140   0.31160   0.38170   0.01267  Uiso   1.00
C38    C     0.10970   0.38480   0.37240   0.01267  Uiso   1.00
C39    C     0.99090   0.28340   0.50580   0.01267  Uiso   1.00
C40    C     0.89670   0.23630   0.60050   0.01267  Uiso   1.00
C41    C     0.85140   0.05040   0.41380   0.01267  Uiso   1.00
C42    C     0.97270   0.10780   0.40400   0.01267  Uiso   1.00
C43    C     0.82580   0.04280   0.54000   0.01267  Uiso   1.00
C44    C     0.06250   0.15460   0.50490   0.01267  Uiso   1.00
C45    C     0.76680   0.01650   0.63390   0.01267  Uiso   1.00
C46    C     0.52310   0.38170   0.30670   0.01267  Uiso   1.00
C47    C     0.48210   0.37240   0.24280   0.01267  Uiso   1.00
C48    C     0.49670   0.50580   0.21080   0.01267  Uiso   1.00
C49    C     0.49720   0.60050   0.16320   0.01267  Uiso   1.00
C50    C     0.26520   0.41380   0.53580   0.01267  Uiso   1.00
C51    C     0.37670   0.40400   0.48820   0.01267  Uiso   1.00
C52    C     0.36580   0.54000   0.41720   0.01267  Uiso   1.00
C53    C     0.56740   0.50490   0.34050   0.01267  Uiso   1.00
C54    C     0.40070   0.63390   0.34960   0.01267  Uiso   1.00
N1     N     0.18078   0.71310   0.75421   0.01267  Uiso   1.00
N2     N     0.35204   0.81631   0.63267   0.01267  Uiso   1.00
N3     N     0.24916   0.50798   0.98985   0.01267  Uiso   1.00
N4     N     0.14812   0.58835   0.89679   0.01267  Uiso   1.00
N5     N     0.93499   0.75421   0.53269   0.01267  Uiso   1.00
N6     N     0.98471   0.63267   0.55102   0.01267  Uiso   1.00
N7     N     0.23901   0.98985   0.50217   0.01267  Uiso   1.00
N8     N     0.04491   0.89679   0.51486   0.01267  Uiso   1.00
N9     N     0.46768   0.53269   0.71310   0.01267  Uiso   1.00
N10    N     0.53573   0.55102   0.81631   0.01267  Uiso   1.00
N11    N     0.74118   0.50217   0.50798   0.01267  Uiso   1.00
N12    N     0.55977   0.51486   0.58835   0.01267  Uiso   1.00
N13    N     0.81922   0.28690   0.24579   0.01267  Uiso   1.00
N14    N     0.64796   0.18369   0.36733   0.01267  Uiso   1.00
N15    N     0.75084   0.49202   0.01015   0.01267  Uiso   1.00
N16    N     0.85188   0.41165   0.10321   0.01267  Uiso   1.00
N17    N     0.06501   0.24579   0.46731   0.01267  Uiso   1.00
N18    N     0.01529   0.36733   0.44898   0.01267  Uiso   1.00
N19    N     0.76099   0.01015   0.49783   0.01267  Uiso   1.00
N20    N     0.95509   0.10321   0.48514   0.01267  Uiso   1.00
N21    N     0.53232   0.46731   0.28690   0.01267  Uiso   1.00
N22    N     0.46427   0.44898   0.18369   0.01267  Uiso   1.00
N23    N     0.25882   0.49783   0.49202   0.01267  Uiso   1.00
N24    N     0.44023   0.48514   0.41165   0.01267  Uiso   1.00
C55    C     0.69170   0.87350   0.30280   0.01267  Uiso   1.00
S1     S     0.57505   0.84984   0.39832   0.01267  Uiso   1.00
O1     O     0.55600   0.92930   0.39060   0.01267  Uiso   1.00
O2     O     0.45360   0.78350   0.41560   0.01267  Uiso   1.00
O3     O     0.64430   0.81270   0.46280   0.01267  Uiso   1.00
F1     F     0.68120   0.82850   0.25720   0.01267  Uiso   1.00
F2     F     0.83650   0.92380   0.29410   0.01267  Uiso   1.00
F3     F     0.66460   0.95150   0.22480   0.01267  Uiso   1.00
C56    C     0.99450   0.30280   0.82370   0.01267  Uiso   1.00
S2     S     0.97337   0.39832   0.75184   0.01267  Uiso   1.00
O4     O     0.94660   0.39060   0.68010   0.01267  Uiso   1.00
O5     O     0.86920   0.41560   0.80090   0.01267  Uiso   1.00
O6     O     0.10710   0.46280   0.72450   0.01267  Uiso   1.00
F4     F     0.93840   0.25720   0.91430   0.01267  Uiso   1.00
F5     F     0.13060   0.29410   0.78210   0.01267  Uiso   1.00
F6     F     0.88940   0.22480   0.82370   0.01267  Uiso   1.00
C57    C     0.81820   0.82370   0.87350   0.01267  Uiso   1.00
S3     S     0.72521   0.75184   0.84984   0.01267  Uiso   1.00
O7     O     0.62670   0.68010   0.92930   0.01267  Uiso   1.00
O8     O     0.67010   0.80090   0.78350   0.01267  Uiso   1.00
O9     O     0.83160   0.72450   0.81270   0.01267  Uiso   1.00
F7     F     0.85270   0.91430   0.82850   0.01267  Uiso   1.00
F8     F     0.91270   0.78210   0.92380   0.01267  Uiso   1.00
F9     F     0.71310   0.82370   0.95150   0.01267  Uiso   1.00
C58    C     0.30830   0.12650   0.69720   0.01267  Uiso   1.00
S4     S     0.42495   0.15016   0.60168   0.01267  Uiso   1.00
O10    O     0.44400   0.07070   0.60940   0.01267  Uiso   1.00
O11    O     0.54640   0.21650   0.58440   0.01267  Uiso   1.00
O12    O     0.35570   0.18730   0.53720   0.01267  Uiso   1.00
F10    F     0.31880   0.17150   0.74280   0.01267  Uiso   1.00
F11    F     0.16350   0.07620   0.70590   0.01267  Uiso   1.00
F12    F     0.33540   0.04850   0.77520   0.01267  Uiso   1.00
C59    C     0.00550   0.69720   0.17630   0.01267  Uiso   1.00
S5     S     0.02663   0.60168   0.24816   0.01267  Uiso   1.00
O13    O     0.05340   0.60940   0.31990   0.01267  Uiso   1.00
O14    O     0.13080   0.58440   0.19910   0.01267  Uiso   1.00
O15    O     0.89290   0.53720   0.27550   0.01267  Uiso   1.00
F13    F     0.06160   0.74280   0.08570   0.01267  Uiso   1.00
F14    F     0.86940   0.70590   0.21790   0.01267  Uiso   1.00
F15    F     0.11060   0.77520   0.17630   0.01267  Uiso   1.00
C60    C     0.18180   0.17630   0.12650   0.01267  Uiso   1.00
S6     S     0.27479   0.24816   0.15016   0.01267  Uiso   1.00
O16    O     0.37330   0.31990   0.07070   0.01267  Uiso   1.00
O17    O     0.32990   0.19910   0.21650   0.01267  Uiso   1.00
O18    O     0.16840   0.27550   0.18730   0.01267  Uiso   1.00
F16    F     0.14730   0.08570   0.17150   0.01267  Uiso   1.00
F17    F     0.08730   0.21790   0.07620   0.01267  Uiso   1.00
F18    F     0.28690   0.17630   0.04850   0.01267  Uiso   1.00
