data_image0
_cell_length_a       17.542
_cell_length_b       17.542
_cell_length_c       17.542
_cell_angle_alpha    90
_cell_angle_beta     90
_cell_angle_gamma    90

_symmetry_space_group_name_H-M    "P 1"
_symmetry_int_tables_number       1

loop_
  _symmetry_equiv_pos_as_xyz
  'x, y, z'

loop_
  _atom_site_label
  _atom_site_occupancy
  _atom_site_fract_x
  _atom_site_fract_y
  _atom_site_fract_z
  _atom_site_thermal_displace_type
  _atom_site_B_iso_or_equiv
  _atom_site_type_symbol
  N1       1.0000 0.54160  0.65220  0.19970  Biso   1.000  N
  H1       1.0000 0.52800  0.67060  0.24440  Biso   1.000  H
  N2       1.0000 0.54200  0.57940  0.09840  Biso   1.000  N
  C1       1.0000 0.64470  0.74670  0.17280  Biso   1.000  C
  C2       1.0000 0.62810  0.79220  0.23590  Biso   1.000  C
  H2       1.0000 0.58580  0.77990  0.26740  Biso   1.000  H
  C3       1.0000 0.59790  0.68010  0.15420  Biso   1.000  C
  C4       1.0000 0.59610  0.63450  0.09190  Biso   1.000  C
  H3       1.0000 0.62860  0.64030  0.04900  Biso   1.000  H
  C5       1.0000 0.51050  0.59150  0.16440  Biso   1.000  C
  H4       1.0000 0.47050  0.56140  0.18500  Biso   1.000  H
  N3       1.0000 0.95840  0.34780  0.69970  Biso   1.000  N
  H5       1.0000 0.97200  0.32940  0.74440  Biso   1.000  H
  N4       1.0000 0.95800  0.42060  0.59840  Biso   1.000  N
  C6       1.0000 0.85530  0.25330  0.67280  Biso   1.000  C
  C7       1.0000 0.87190  0.20780  0.73590  Biso   1.000  C
  H6       1.0000 0.91420  0.22010  0.76740  Biso   1.000  H
  C8       1.0000 0.90210  0.31990  0.65420  Biso   1.000  C
  C9       1.0000 0.90390  0.36550  0.59190  Biso   1.000  C
  H7       1.0000 0.87140  0.35970  0.54900  Biso   1.000  H
  C10      1.0000 0.98950  0.40850  0.66440  Biso   1.000  C
  H8       1.0000 0.02950  0.43860  0.68500  Biso   1.000  H
  N5       1.0000 0.45840  0.15220  0.30030  Biso   1.000  N
  H9       1.0000 0.47200  0.17060  0.25560  Biso   1.000  H
  N6       1.0000 0.45800  0.07940  0.40160  Biso   1.000  N
  C11      1.0000 0.35530  0.24670  0.32720  Biso   1.000  C
  C12      1.0000 0.37190  0.29220  0.26410  Biso   1.000  C
  H10      1.0000 0.41420  0.27990  0.23260  Biso   1.000  H
  C13      1.0000 0.40210  0.18010  0.34580  Biso   1.000  C
  C14      1.0000 0.40390  0.13450  0.40810  Biso   1.000  C
  H11      1.0000 0.37140  0.14030  0.45100  Biso   1.000  H
  C15      1.0000 0.48950  0.09150  0.33560  Biso   1.000  C
  H12      1.0000 0.52950  0.06140  0.31500  Biso   1.000  H
  N7       1.0000 0.04160  0.84780  0.80030  Biso   1.000  N
  H13      1.0000 0.02800  0.82940  0.75560  Biso   1.000  H
  N8       1.0000 0.04200  0.92060  0.90160  Biso   1.000  N
  C16      1.0000 0.14470  0.75330  0.82720  Biso   1.000  C
  C17      1.0000 0.12810  0.70780  0.76410  Biso   1.000  C
  H14      1.0000 0.08580  0.72010  0.73260  Biso   1.000  H
  C18      1.0000 0.09790  0.81990  0.84580  Biso   1.000  C
  C19      1.0000 0.09610  0.86550  0.90810  Biso   1.000  C
  H15      1.0000 0.12860  0.85970  0.95100  Biso   1.000  H
  C20      1.0000 0.01050  0.90850  0.83560  Biso   1.000  C
  H16      1.0000 0.97050  0.93860  0.81500  Biso   1.000  H
  N9       1.0000 0.19970  0.54160  0.65220  Biso   1.000  N
  H17      1.0000 0.24440  0.52800  0.67060  Biso   1.000  H
  N10      1.0000 0.09840  0.54200  0.57940  Biso   1.000  N
  C21      1.0000 0.17280  0.64470  0.74670  Biso   1.000  C
  C22      1.0000 0.23590  0.62810  0.79220  Biso   1.000  C
  H18      1.0000 0.26740  0.58580  0.77990  Biso   1.000  H
  C23      1.0000 0.15420  0.59790  0.68010  Biso   1.000  C
  C24      1.0000 0.09190  0.59610  0.63450  Biso   1.000  C
  H19      1.0000 0.04900  0.62860  0.64030  Biso   1.000  H
  C25      1.0000 0.16440  0.51050  0.59150  Biso   1.000  C
  H20      1.0000 0.18500  0.47050  0.56140  Biso   1.000  H
  N11      1.0000 0.69970  0.95840  0.34780  Biso   1.000  N
  H21      1.0000 0.74440  0.97200  0.32940  Biso   1.000  H
  N12      1.0000 0.59840  0.95800  0.42060  Biso   1.000  N
  C26      1.0000 0.67280  0.85530  0.25330  Biso   1.000  C
  C27      1.0000 0.73590  0.87190  0.20780  Biso   1.000  C
  H22      1.0000 0.76740  0.91420  0.22010  Biso   1.000  H
  C28      1.0000 0.65420  0.90210  0.31990  Biso   1.000  C
  C29      1.0000 0.59190  0.90390  0.36550  Biso   1.000  C
  H23      1.0000 0.54900  0.87140  0.35970  Biso   1.000  H
  C30      1.0000 0.66440  0.98950  0.40850  Biso   1.000  C
  H24      1.0000 0.68500  0.02950  0.43860  Biso   1.000  H
  N13      1.0000 0.30030  0.45840  0.15220  Biso   1.000  N
  H25      1.0000 0.25560  0.47200  0.17060  Biso   1.000  H
  N14      1.0000 0.40160  0.45800  0.07940  Biso   1.000  N
  C31      1.0000 0.32720  0.35530  0.24670  Biso   1.000  C
  C32      1.0000 0.26410  0.37190  0.29220  Biso   1.000  C
  H26      1.0000 0.23260  0.41420  0.27990  Biso   1.000  H
  C33      1.0000 0.34580  0.40210  0.18010  Biso   1.000  C
  C34      1.0000 0.40810  0.40390  0.13450  Biso   1.000  C
  H27      1.0000 0.45100  0.37140  0.14030  Biso   1.000  H
  C35      1.0000 0.33560  0.48950  0.09150  Biso   1.000  C
  H28      1.0000 0.31500  0.52950  0.06140  Biso   1.000  H
  N15      1.0000 0.80030  0.04160  0.84780  Biso   1.000  N
  H29      1.0000 0.75560  0.02800  0.82940  Biso   1.000  H
  N16      1.0000 0.90160  0.04200  0.92060  Biso   1.000  N
  C36      1.0000 0.82720  0.14470  0.75330  Biso   1.000  C
  C37      1.0000 0.76410  0.12810  0.70780  Biso   1.000  C
  H30      1.0000 0.73260  0.08580  0.72010  Biso   1.000  H
  C38      1.0000 0.84580  0.09790  0.81990  Biso   1.000  C
  C39      1.0000 0.90810  0.09610  0.86550  Biso   1.000  C
  H31      1.0000 0.95100  0.12860  0.85970  Biso   1.000  H
  C40      1.0000 0.83560  0.01050  0.90850  Biso   1.000  C
  H32      1.0000 0.81500  0.97050  0.93860  Biso   1.000  H
  N17      1.0000 0.65220  0.19970  0.54160  Biso   1.000  N
  H33      1.0000 0.67060  0.24440  0.52800  Biso   1.000  H
  N18      1.0000 0.57940  0.09840  0.54200  Biso   1.000  N
  C41      1.0000 0.74670  0.17280  0.64470  Biso   1.000  C
  C42      1.0000 0.79220  0.23590  0.62810  Biso   1.000  C
  H34      1.0000 0.77990  0.26740  0.58580  Biso   1.000  H
  C43      1.0000 0.68010  0.15420  0.59790  Biso   1.000  C
  C44      1.0000 0.63450  0.09190  0.59610  Biso   1.000  C
  H35      1.0000 0.64030  0.04900  0.62860  Biso   1.000  H
  C45      1.0000 0.59150  0.16440  0.51050  Biso   1.000  C
  H36      1.0000 0.56140  0.18500  0.47050  Biso   1.000  H
  N19      1.0000 0.34780  0.69970  0.95840  Biso   1.000  N
  H37      1.0000 0.32940  0.74440  0.97200  Biso   1.000  H
  N20      1.0000 0.42060  0.59840  0.95800  Biso   1.000  N
  C46      1.0000 0.25330  0.67280  0.85530  Biso   1.000  C
  C47      1.0000 0.20780  0.73590  0.87190  Biso   1.000  C
  H38      1.0000 0.22010  0.76740  0.91420  Biso   1.000  H
  C48      1.0000 0.31990  0.65420  0.90210  Biso   1.000  C
  C49      1.0000 0.36550  0.59190  0.90390  Biso   1.000  C
  H39      1.0000 0.35970  0.54900  0.87140  Biso   1.000  H
  C50      1.0000 0.40850  0.66440  0.98950  Biso   1.000  C
  H40      1.0000 0.43860  0.68500  0.02950  Biso   1.000  H
  N21      1.0000 0.15220  0.30030  0.45840  Biso   1.000  N
  H41      1.0000 0.17060  0.25560  0.47200  Biso   1.000  H
  N22      1.0000 0.07940  0.40160  0.45800  Biso   1.000  N
  C51      1.0000 0.24670  0.32720  0.35530  Biso   1.000  C
  C52      1.0000 0.29220  0.26410  0.37190  Biso   1.000  C
  H42      1.0000 0.27990  0.23260  0.41420  Biso   1.000  H
  C53      1.0000 0.18010  0.34580  0.40210  Biso   1.000  C
  C54      1.0000 0.13450  0.40810  0.40390  Biso   1.000  C
  H43      1.0000 0.14030  0.45100  0.37140  Biso   1.000  H
  C55      1.0000 0.09150  0.33560  0.48950  Biso   1.000  C
  H44      1.0000 0.06140  0.31500  0.52950  Biso   1.000  H
  N23      1.0000 0.84780  0.80030  0.04160  Biso   1.000  N
  H45      1.0000 0.82940  0.75560  0.02800  Biso   1.000  H
  N24      1.0000 0.92060  0.90160  0.04200  Biso   1.000  N
  C56      1.0000 0.75330  0.82720  0.14470  Biso   1.000  C
  C57      1.0000 0.70780  0.76410  0.12810  Biso   1.000  C
  H46      1.0000 0.72010  0.73260  0.08580  Biso   1.000  H
  C58      1.0000 0.81990  0.84580  0.09790  Biso   1.000  C
  C59      1.0000 0.86550  0.90810  0.09610  Biso   1.000  C
  H47      1.0000 0.85970  0.95100  0.12860  Biso   1.000  H
  C60      1.0000 0.90850  0.83560  0.01050  Biso   1.000  C
  H48      1.0000 0.93860  0.81500  0.97050  Biso   1.000  H
  N25      1.0000 0.45840  0.34780  0.80030  Biso   1.000  N
  H49      1.0000 0.47200  0.32940  0.75560  Biso   1.000  H
  N26      1.0000 0.45800  0.42060  0.90160  Biso   1.000  N
  C61      1.0000 0.35530  0.25330  0.82720  Biso   1.000  C
  C62      1.0000 0.37190  0.20780  0.76410  Biso   1.000  C
  H50      1.0000 0.41420  0.22010  0.73260  Biso   1.000  H
  C63      1.0000 0.40210  0.31990  0.84580  Biso   1.000  C
  C64      1.0000 0.40390  0.36550  0.90810  Biso   1.000  C
  H51      1.0000 0.37140  0.35970  0.95100  Biso   1.000  H
  C65      1.0000 0.48950  0.40850  0.83560  Biso   1.000  C
  H52      1.0000 0.52950  0.43860  0.81500  Biso   1.000  H
  N27      1.0000 0.04160  0.65220  0.30030  Biso   1.000  N
  H53      1.0000 0.02800  0.67060  0.25560  Biso   1.000  H
  N28      1.0000 0.04200  0.57940  0.40160  Biso   1.000  N
  C66      1.0000 0.14470  0.74670  0.32720  Biso   1.000  C
  C67      1.0000 0.12810  0.79220  0.26410  Biso   1.000  C
  H54      1.0000 0.08580  0.77990  0.23260  Biso   1.000  H
  C68      1.0000 0.09790  0.68010  0.34580  Biso   1.000  C
  C69      1.0000 0.09610  0.63450  0.40810  Biso   1.000  C
  H55      1.0000 0.12860  0.64030  0.45100  Biso   1.000  H
  C70      1.0000 0.01050  0.59150  0.33560  Biso   1.000  C
  H56      1.0000 0.97050  0.56140  0.31500  Biso   1.000  H
  N29      1.0000 0.54160  0.84780  0.69970  Biso   1.000  N
  H57      1.0000 0.52800  0.82940  0.74440  Biso   1.000  H
  N30      1.0000 0.54200  0.92060  0.59840  Biso   1.000  N
  C71      1.0000 0.64470  0.75330  0.67280  Biso   1.000  C
  C72      1.0000 0.62810  0.70780  0.73590  Biso   1.000  C
  H58      1.0000 0.58580  0.72010  0.76740  Biso   1.000  H
  C73      1.0000 0.59790  0.81990  0.65420  Biso   1.000  C
  C74      1.0000 0.59610  0.86550  0.59190  Biso   1.000  C
  H59      1.0000 0.62860  0.85970  0.54900  Biso   1.000  H
  C75      1.0000 0.51050  0.90850  0.66440  Biso   1.000  C
  H60      1.0000 0.47050  0.93860  0.68500  Biso   1.000  H
  N31      1.0000 0.95840  0.15220  0.19970  Biso   1.000  N
  H61      1.0000 0.97200  0.17060  0.24440  Biso   1.000  H
  N32      1.0000 0.95800  0.07940  0.09840  Biso   1.000  N
  C76      1.0000 0.85530  0.24670  0.17280  Biso   1.000  C
  C77      1.0000 0.87190  0.29220  0.23590  Biso   1.000  C
  H62      1.0000 0.91420  0.27990  0.26740  Biso   1.000  H
  C78      1.0000 0.90210  0.18010  0.15420  Biso   1.000  C
  C79      1.0000 0.90390  0.13450  0.09190  Biso   1.000  C
  H63      1.0000 0.87140  0.14030  0.04900  Biso   1.000  H
  C80      1.0000 0.98950  0.09150  0.16440  Biso   1.000  C
  H64      1.0000 0.02950  0.06140  0.18500  Biso   1.000  H
  N33      1.0000 0.80030  0.45840  0.34780  Biso   1.000  N
  H65      1.0000 0.75560  0.47200  0.32940  Biso   1.000  H
  N34      1.0000 0.90160  0.45800  0.42060  Biso   1.000  N
  C81      1.0000 0.82720  0.35530  0.25330  Biso   1.000  C
  C82      1.0000 0.76410  0.37190  0.20780  Biso   1.000  C
  H66      1.0000 0.73260  0.41420  0.22010  Biso   1.000  H
  C83      1.0000 0.84580  0.40210  0.31990  Biso   1.000  C
  C84      1.0000 0.90810  0.40390  0.36550  Biso   1.000  C
  H67      1.0000 0.95100  0.37140  0.35970  Biso   1.000  H
  C85      1.0000 0.83560  0.48950  0.40850  Biso   1.000  C
  H68      1.0000 0.81500  0.52950  0.43860  Biso   1.000  H
  N35      1.0000 0.30030  0.04160  0.65220  Biso   1.000  N
  H69      1.0000 0.25560  0.02800  0.67060  Biso   1.000  H
  N36      1.0000 0.40160  0.04200  0.57940  Biso   1.000  N
  C86      1.0000 0.32720  0.14470  0.74670  Biso   1.000  C
  C87      1.0000 0.26410  0.12810  0.79220  Biso   1.000  C
  H70      1.0000 0.23260  0.08580  0.77990  Biso   1.000  H
  C88      1.0000 0.34580  0.09790  0.68010  Biso   1.000  C
  C89      1.0000 0.40810  0.09610  0.63450  Biso   1.000  C
  H71      1.0000 0.45100  0.12860  0.64030  Biso   1.000  H
  C90      1.0000 0.33560  0.01050  0.59150  Biso   1.000  C
  H72      1.0000 0.31500  0.97050  0.56140  Biso   1.000  H
  N37      1.0000 0.69970  0.54160  0.84780  Biso   1.000  N
  H73      1.0000 0.74440  0.52800  0.82940  Biso   1.000  H
  N38      1.0000 0.59840  0.54200  0.92060  Biso   1.000  N
  C91      1.0000 0.67280  0.64470  0.75330  Biso   1.000  C
  C92      1.0000 0.73590  0.62810  0.70780  Biso   1.000  C
  H74      1.0000 0.76740  0.58580  0.72010  Biso   1.000  H
  C93      1.0000 0.65420  0.59790  0.81990  Biso   1.000  C
  C94      1.0000 0.59190  0.59610  0.86550  Biso   1.000  C
  H75      1.0000 0.54900  0.62860  0.85970  Biso   1.000  H
  C95      1.0000 0.66440  0.51050  0.90850  Biso   1.000  C
  H76      1.0000 0.68500  0.47050  0.93860  Biso   1.000  H
  N39      1.0000 0.19970  0.95840  0.15220  Biso   1.000  N
  H77      1.0000 0.24440  0.97200  0.17060  Biso   1.000  H
  N40      1.0000 0.09840  0.95800  0.07940  Biso   1.000  N
  C96      1.0000 0.17280  0.85530  0.24670  Biso   1.000  C
  C97      1.0000 0.23590  0.87190  0.29220  Biso   1.000  C
  H78      1.0000 0.26740  0.91420  0.27990  Biso   1.000  H
  C98      1.0000 0.15420  0.90210  0.18010  Biso   1.000  C
  C99      1.0000 0.09190  0.90390  0.13450  Biso   1.000  C
  H79      1.0000 0.04900  0.87140  0.14030  Biso   1.000  H
  C100     1.0000 0.16440  0.98950  0.09150  Biso   1.000  C
  H80      1.0000 0.18500  0.02950  0.06140  Biso   1.000  H
  N41      1.0000 0.34780  0.80030  0.45840  Biso   1.000  N
  H81      1.0000 0.32940  0.75560  0.47200  Biso   1.000  H
  N42      1.0000 0.42060  0.90160  0.45800  Biso   1.000  N
  C101     1.0000 0.25330  0.82720  0.35530  Biso   1.000  C
  C102     1.0000 0.20780  0.76410  0.37190  Biso   1.000  C
  H82      1.0000 0.22010  0.73260  0.41420  Biso   1.000  H
  C103     1.0000 0.31990  0.84580  0.40210  Biso   1.000  C
  C104     1.0000 0.36550  0.90810  0.40390  Biso   1.000  C
  H83      1.0000 0.35970  0.95100  0.37140  Biso   1.000  H
  C105     1.0000 0.40850  0.83560  0.48950  Biso   1.000  C
  H84      1.0000 0.43860  0.81500  0.52950  Biso   1.000  H
  N43      1.0000 0.65220  0.30030  0.04160  Biso   1.000  N
  H85      1.0000 0.67060  0.25560  0.02800  Biso   1.000  H
  N44      1.0000 0.57940  0.40160  0.04200  Biso   1.000  N
  C106     1.0000 0.74670  0.32720  0.14470  Biso   1.000  C
  C107     1.0000 0.79220  0.26410  0.12810  Biso   1.000  C
  H86      1.0000 0.77990  0.23260  0.08580  Biso   1.000  H
  C108     1.0000 0.68010  0.34580  0.09790  Biso   1.000  C
  C109     1.0000 0.63450  0.40810  0.09610  Biso   1.000  C
  H87      1.0000 0.64030  0.45100  0.12860  Biso   1.000  H
  C110     1.0000 0.59150  0.33560  0.01050  Biso   1.000  C
  H88      1.0000 0.56140  0.31500  0.97050  Biso   1.000  H
  N45      1.0000 0.84780  0.69970  0.54160  Biso   1.000  N
  H89      1.0000 0.82940  0.74440  0.52800  Biso   1.000  H
  N46      1.0000 0.92060  0.59840  0.54200  Biso   1.000  N
  C111     1.0000 0.75330  0.67280  0.64470  Biso   1.000  C
  C112     1.0000 0.70780  0.73590  0.62810  Biso   1.000  C
  H90      1.0000 0.72010  0.76740  0.58580  Biso   1.000  H
  C113     1.0000 0.81990  0.65420  0.59790  Biso   1.000  C
  C114     1.0000 0.86550  0.59190  0.59610  Biso   1.000  C
  H91      1.0000 0.85970  0.54900  0.62860  Biso   1.000  H
  C115     1.0000 0.90850  0.66440  0.51050  Biso   1.000  C
  H92      1.0000 0.93860  0.68500  0.47050  Biso   1.000  H
  N47      1.0000 0.15220  0.19970  0.95840  Biso   1.000  N
  H93      1.0000 0.17060  0.24440  0.97200  Biso   1.000  H
  N48      1.0000 0.07940  0.09840  0.95800  Biso   1.000  N
  C116     1.0000 0.24670  0.17280  0.85530  Biso   1.000  C
  C117     1.0000 0.29220  0.23590  0.87190  Biso   1.000  C
  H94      1.0000 0.27990  0.26740  0.91420  Biso   1.000  H
  C118     1.0000 0.18010  0.15420  0.90210  Biso   1.000  C
  C119     1.0000 0.13450  0.09190  0.90390  Biso   1.000  C
  H95      1.0000 0.14030  0.04900  0.87140  Biso   1.000  H
  C120     1.0000 0.09150  0.16440  0.98950  Biso   1.000  C
  H96      1.0000 0.06140  0.18500  0.02950  Biso   1.000  H
  Cd1      1.0000 0.50000  0.50000  0.00000  Biso   1.000  Cd
  Cd2      1.0000 0.00000  0.50000  0.50000  Biso   1.000  Cd
  Cd3      1.0000 0.50000  0.00000  0.50000  Biso   1.000  Cd
  Cd4      1.0000 0.00000  0.00000  0.00000  Biso   1.000  Cd
