data_image0
_cell_length_a       14.113
_cell_length_b       14.59
_cell_length_c       10.469
_cell_angle_alpha    90
_cell_angle_beta     90
_cell_angle_gamma    90

_symmetry_space_group_name_H-M    "P 1"
_symmetry_int_tables_number       1

loop_
  _symmetry_equiv_pos_as_xyz
  'x, y, z'

loop_
  _atom_site_label
  _atom_site_occupancy
  _atom_site_fract_x
  _atom_site_fract_y
  _atom_site_fract_z
  _atom_site_thermal_displace_type
  _atom_site_B_iso_or_equiv
  _atom_site_type_symbol
  Co1      1.0000 0.39692  0.16970  0.18264  Biso   1.000  Co
  Co2      1.0000 0.11362  0.15152  0.11921  Biso   1.000  Co
  Zn1      1.0000 0.25361  0.03869  0.64991  Biso   1.000  Zn
  Co3      1.0000 0.24639  0.53869  0.14991  Biso   1.000  Co
  P1       1.0000 0.28224  0.13845  0.92640  Biso   1.000  P
  H1       1.0000 0.26400  0.22800  0.90400  Biso   1.000  H
  P2       1.0000 0.61566  0.13179  0.16960  Biso   1.000  P
  H2       1.0000 0.68200  0.14000  0.27500  Biso   1.000  H
  P3       1.0000 0.22350  0.08982  0.36490  Biso   1.000  P
  H3       1.0000 0.23400  0.99170  0.34400  Biso   1.000  H
  P4       1.0000 0.39900  0.38489  0.12130  Biso   1.000  P
  H4       1.0000 0.34200  0.36100  0.01600  Biso   1.000  H
  O1       1.0000 0.37280  0.13450  0.00600  Biso   1.000  O
  O2       1.0000 0.30300  0.09280  0.80050  Biso   1.000  O
  O3       1.0000 0.19800  0.09580  0.99340  Biso   1.000  O
  O4       1.0000 0.13540  0.12280  0.29720  Biso   1.000  O
  O5       1.0000 0.61890  0.21750  0.09080  Biso   1.000  O
  O6       1.0000 0.51860  0.11380  0.23020  Biso   1.000  O
  O7       1.0000 0.64690  0.04800  0.09250  Biso   1.000  O
  O8       1.0000 0.21890  0.11340  0.50620  Biso   1.000  O
  O9       1.0000 0.31440  0.11500  0.30480  Biso   1.000  O
  O10      1.0000 0.35500  0.46390  0.19560  Biso   1.000  O
  O11      1.0000 0.49570  0.41040  0.07020  Biso   1.000  O
  O12      1.0000 0.40310  0.30040  0.20330  Biso   1.000  O
  Zn2      1.0000 0.61362  0.34848  0.11921  Biso   1.000  Zn
  Co4      1.0000 0.60308  0.83030  0.68264  Biso   1.000  Co
  Co5      1.0000 0.88638  0.84848  0.61921  Biso   1.000  Co
  Zn3      1.0000 0.74639  0.96131  0.14991  Biso   1.000  Zn
  Co6      1.0000 0.75361  0.46131  0.64991  Biso   1.000  Co
  P5       1.0000 0.71776  0.86155  0.42640  Biso   1.000  P
  H5       1.0000 0.73600  0.77200  0.40400  Biso   1.000  H
  P6       1.0000 0.38434  0.86821  0.66960  Biso   1.000  P
  H6       1.0000 0.31800  0.86000  0.77500  Biso   1.000  H
  P7       1.0000 0.77650  0.91018  0.86490  Biso   1.000  P
  H7       1.0000 0.76600  0.00830  0.84400  Biso   1.000  H
  P8       1.0000 0.60100  0.61511  0.62130  Biso   1.000  P
  H8       1.0000 0.65800  0.63900  0.51600  Biso   1.000  H
  O13      1.0000 0.62720  0.86550  0.50600  Biso   1.000  O
  O14      1.0000 0.69700  0.90720  0.30050  Biso   1.000  O
  O15      1.0000 0.80200  0.90420  0.49340  Biso   1.000  O
  O16      1.0000 0.86460  0.87720  0.79720  Biso   1.000  O
  O17      1.0000 0.38110  0.78250  0.59080  Biso   1.000  O
  O18      1.0000 0.48140  0.88620  0.73020  Biso   1.000  O
  O19      1.0000 0.35310  0.95200  0.59250  Biso   1.000  O
  O20      1.0000 0.78110  0.88660  0.00620  Biso   1.000  O
  O21      1.0000 0.68560  0.88500  0.80480  Biso   1.000  O
  O22      1.0000 0.64500  0.53610  0.69560  Biso   1.000  O
  O23      1.0000 0.50430  0.58960  0.57020  Biso   1.000  O
  O24      1.0000 0.59690  0.69960  0.70330  Biso   1.000  O
  Zn4      1.0000 0.38638  0.65152  0.61921  Biso   1.000  Zn
  Co7      1.0000 0.89692  0.33030  0.18264  Biso   1.000  Co
  P9       1.0000 0.78224  0.36155  0.92640  Biso   1.000  P
  H9       1.0000 0.76400  0.27200  0.90400  Biso   1.000  H
  P10      1.0000 0.11566  0.36821  0.16960  Biso   1.000  P
  H10      1.0000 0.18200  0.36000  0.27500  Biso   1.000  H
  P11      1.0000 0.72350  0.41018  0.36490  Biso   1.000  P
  H11      1.0000 0.73400  0.50830  0.34400  Biso   1.000  H
  P12      1.0000 0.89900  0.11511  0.12130  Biso   1.000  P
  H12      1.0000 0.84200  0.13900  0.01600  Biso   1.000  H
  O25      1.0000 0.87280  0.36550  0.00600  Biso   1.000  O
  O26      1.0000 0.80300  0.40720  0.80050  Biso   1.000  O
  O27      1.0000 0.69800  0.40420  0.99340  Biso   1.000  O
  O28      1.0000 0.63540  0.37720  0.29720  Biso   1.000  O
  O29      1.0000 0.11890  0.28250  0.09080  Biso   1.000  O
  O30      1.0000 0.01860  0.38620  0.23020  Biso   1.000  O
  O31      1.0000 0.14690  0.45200  0.09250  Biso   1.000  O
  O32      1.0000 0.71890  0.38660  0.50620  Biso   1.000  O
  O33      1.0000 0.81440  0.38500  0.30480  Biso   1.000  O
  O34      1.0000 0.85500  0.03610  0.19560  Biso   1.000  O
  O35      1.0000 0.99570  0.08960  0.07020  Biso   1.000  O
  O36      1.0000 0.90310  0.19960  0.20330  Biso   1.000  O
  Co8      1.0000 0.10308  0.66970  0.68264  Biso   1.000  Co
  P13      1.0000 0.21776  0.63845  0.42640  Biso   1.000  P
  H13      1.0000 0.23600  0.72800  0.40400  Biso   1.000  H
  P14      1.0000 0.88434  0.63179  0.66960  Biso   1.000  P
  H14      1.0000 0.81800  0.64000  0.77500  Biso   1.000  H
  P15      1.0000 0.27650  0.58982  0.86490  Biso   1.000  P
  H15      1.0000 0.26600  0.49170  0.84400  Biso   1.000  H
  P16      1.0000 0.10100  0.88489  0.62130  Biso   1.000  P
  H16      1.0000 0.15800  0.86100  0.51600  Biso   1.000  H
  O37      1.0000 0.12720  0.63450  0.50600  Biso   1.000  O
  O38      1.0000 0.19700  0.59280  0.30050  Biso   1.000  O
  O39      1.0000 0.30200  0.59580  0.49340  Biso   1.000  O
  O40      1.0000 0.36460  0.62280  0.79720  Biso   1.000  O
  O41      1.0000 0.88110  0.71750  0.59080  Biso   1.000  O
  O42      1.0000 0.98140  0.61380  0.73020  Biso   1.000  O
  O43      1.0000 0.85310  0.54800  0.59250  Biso   1.000  O
  O44      1.0000 0.28110  0.61340  0.00620  Biso   1.000  O
  O45      1.0000 0.18560  0.61500  0.80480  Biso   1.000  O
  O46      1.0000 0.14500  0.96390  0.69560  Biso   1.000  O
  O47      1.0000 0.00430  0.91040  0.57020  Biso   1.000  O
  O48      1.0000 0.09690  0.80040  0.70330  Biso   1.000  O
