data_image0
_cell_length_a       33.894
_cell_length_b       13.229
_cell_length_c       8.937
_cell_angle_alpha    90
_cell_angle_beta     104.37
_cell_angle_gamma    90

_symmetry_space_group_name_H-M    "P 1"
_symmetry_int_tables_number       1

loop_
  _symmetry_equiv_pos_as_xyz
  'x, y, z'

loop_
  _atom_site_label
  _atom_site_occupancy
  _atom_site_fract_x
  _atom_site_fract_y
  _atom_site_fract_z
  _atom_site_thermal_displace_type
  _atom_site_B_iso_or_equiv
  _atom_site_type_symbol
  Zn1      1.0000 0.14858  0.39570  0.16001  Biso   1.000  Zn
  Zn2      1.0000 0.22932  0.64163  0.12724  Biso   1.000  Zn
  P1       1.0000 0.19570  0.55164  0.40357  Biso   1.000  P
  P2       1.0000 0.05163  0.38268  0.06660  Biso   1.000  P
  H1       1.0000 0.05700  0.28500  0.10700  Biso   1.000  H
  P3       1.0000 0.18005  0.20973  0.38460  Biso   1.000  P
  H2       1.0000 0.16240  0.11890  0.38800  Biso   1.000  H
  O1       1.0000 0.22471  0.62700  0.33050  Biso   1.000  O
  O2       1.0000 0.15865  0.51960  0.28180  Biso   1.000  O
  O3       1.0000 0.21940  0.45780  0.47700  Biso   1.000  O
  O4       1.0000 0.18442  0.62000  0.52520  Biso   1.000  O
  O5       1.0000 0.09182  0.41170  0.04200  Biso   1.000  O
  O6       1.0000 0.01799  0.39520  0.92260  Biso   1.000  O
  O7       1.0000 0.04392  0.42830  0.21000  Biso   1.000  O
  O8       1.0000 0.21503  0.19230  0.31430  Biso   1.000  O
  O9       1.0000 0.14755  0.27470  0.28870  Biso   1.000  O
  O10      1.0000 0.19224  0.24280  0.54770  Biso   1.000  O
  Zn3      1.0000 0.64858  0.89570  0.16001  Biso   1.000  Zn
  Zn4      1.0000 0.72932  0.14163  0.12724  Biso   1.000  Zn
  P4       1.0000 0.69570  0.05164  0.40357  Biso   1.000  P
  P5       1.0000 0.55163  0.88268  0.06660  Biso   1.000  P
  H3       1.0000 0.55700  0.78500  0.10700  Biso   1.000  H
  P6       1.0000 0.68005  0.70973  0.38460  Biso   1.000  P
  H4       1.0000 0.66240  0.61890  0.38800  Biso   1.000  H
  O11      1.0000 0.72471  0.12700  0.33050  Biso   1.000  O
  O12      1.0000 0.65865  0.01960  0.28180  Biso   1.000  O
  O13      1.0000 0.71940  0.95780  0.47700  Biso   1.000  O
  O14      1.0000 0.68442  0.12000  0.52520  Biso   1.000  O
  O15      1.0000 0.59182  0.91170  0.04200  Biso   1.000  O
  O16      1.0000 0.51799  0.89520  0.92260  Biso   1.000  O
  O17      1.0000 0.54392  0.92830  0.21000  Biso   1.000  O
  O18      1.0000 0.71503  0.69230  0.31430  Biso   1.000  O
  O19      1.0000 0.64755  0.77470  0.28870  Biso   1.000  O
  O20      1.0000 0.69224  0.74280  0.54770  Biso   1.000  O
  Zn5      1.0000 0.85142  0.39570  0.33999  Biso   1.000  Zn
  Zn6      1.0000 0.77068  0.64163  0.37276  Biso   1.000  Zn
  P7       1.0000 0.80430  0.55164  0.09643  Biso   1.000  P
  P8       1.0000 0.94837  0.38268  0.43340  Biso   1.000  P
  H5       1.0000 0.94300  0.28500  0.39300  Biso   1.000  H
  P9       1.0000 0.81995  0.20973  0.11540  Biso   1.000  P
  H6       1.0000 0.83760  0.11890  0.11200  Biso   1.000  H
  O21      1.0000 0.77529  0.62700  0.16950  Biso   1.000  O
  O22      1.0000 0.84135  0.51960  0.21820  Biso   1.000  O
  O23      1.0000 0.78060  0.45780  0.02300  Biso   1.000  O
  O24      1.0000 0.81558  0.62000  0.97480  Biso   1.000  O
  O25      1.0000 0.90818  0.41170  0.45800  Biso   1.000  O
  O26      1.0000 0.98201  0.39520  0.57740  Biso   1.000  O
  O27      1.0000 0.95608  0.42830  0.29000  Biso   1.000  O
  O28      1.0000 0.78497  0.19230  0.18570  Biso   1.000  O
  O29      1.0000 0.85245  0.27470  0.21130  Biso   1.000  O
  O30      1.0000 0.80776  0.24280  0.95230  Biso   1.000  O
  Zn7      1.0000 0.35142  0.89570  0.33999  Biso   1.000  Zn
  Zn8      1.0000 0.27068  0.14163  0.37276  Biso   1.000  Zn
  P10      1.0000 0.30430  0.05164  0.09643  Biso   1.000  P
  P11      1.0000 0.44837  0.88268  0.43340  Biso   1.000  P
  H7       1.0000 0.44300  0.78500  0.39300  Biso   1.000  H
  P12      1.0000 0.31995  0.70973  0.11540  Biso   1.000  P
  H8       1.0000 0.33760  0.61890  0.11200  Biso   1.000  H
  O31      1.0000 0.27529  0.12700  0.16950  Biso   1.000  O
  O32      1.0000 0.34135  0.01960  0.21820  Biso   1.000  O
  O33      1.0000 0.28060  0.95780  0.02300  Biso   1.000  O
  O34      1.0000 0.31558  0.12000  0.97480  Biso   1.000  O
  O35      1.0000 0.40818  0.91170  0.45800  Biso   1.000  O
  O36      1.0000 0.48201  0.89520  0.57740  Biso   1.000  O
  O37      1.0000 0.45608  0.92830  0.29000  Biso   1.000  O
  O38      1.0000 0.28497  0.69230  0.18570  Biso   1.000  O
  O39      1.0000 0.35245  0.77470  0.21130  Biso   1.000  O
  O40      1.0000 0.30776  0.74280  0.95230  Biso   1.000  O
  Zn9      1.0000 0.85142  0.60430  0.83999  Biso   1.000  Zn
  Zn10     1.0000 0.77068  0.35837  0.87276  Biso   1.000  Zn
  P13      1.0000 0.80430  0.44836  0.59643  Biso   1.000  P
  P14      1.0000 0.94837  0.61732  0.93340  Biso   1.000  P
  H9       1.0000 0.94300  0.71500  0.89300  Biso   1.000  H
  P15      1.0000 0.81995  0.79027  0.61540  Biso   1.000  P
  H10      1.0000 0.83760  0.88110  0.61200  Biso   1.000  H
  O41      1.0000 0.77529  0.37300  0.66950  Biso   1.000  O
  O42      1.0000 0.84135  0.48040  0.71820  Biso   1.000  O
  O43      1.0000 0.78060  0.54220  0.52300  Biso   1.000  O
  O44      1.0000 0.81558  0.38000  0.47480  Biso   1.000  O
  O45      1.0000 0.90818  0.58830  0.95800  Biso   1.000  O
  O46      1.0000 0.98201  0.60480  0.07740  Biso   1.000  O
  O47      1.0000 0.95608  0.57170  0.79000  Biso   1.000  O
  O48      1.0000 0.78497  0.80770  0.68570  Biso   1.000  O
  O49      1.0000 0.85245  0.72530  0.71130  Biso   1.000  O
  O50      1.0000 0.80776  0.75720  0.45230  Biso   1.000  O
  Zn11     1.0000 0.35142  0.10430  0.83999  Biso   1.000  Zn
  Zn12     1.0000 0.27068  0.85837  0.87276  Biso   1.000  Zn
  P16      1.0000 0.30430  0.94836  0.59643  Biso   1.000  P
  P17      1.0000 0.44837  0.11732  0.93340  Biso   1.000  P
  H11      1.0000 0.44300  0.21500  0.89300  Biso   1.000  H
  P18      1.0000 0.31995  0.29027  0.61540  Biso   1.000  P
  H12      1.0000 0.33760  0.38110  0.61200  Biso   1.000  H
  O51      1.0000 0.27529  0.87300  0.66950  Biso   1.000  O
  O52      1.0000 0.34135  0.98040  0.71820  Biso   1.000  O
  O53      1.0000 0.28060  0.04220  0.52300  Biso   1.000  O
  O54      1.0000 0.31558  0.88000  0.47480  Biso   1.000  O
  O55      1.0000 0.40818  0.08830  0.95800  Biso   1.000  O
  O56      1.0000 0.48201  0.10480  0.07740  Biso   1.000  O
  O57      1.0000 0.45608  0.07170  0.79000  Biso   1.000  O
  O58      1.0000 0.28497  0.30770  0.68570  Biso   1.000  O
  O59      1.0000 0.35245  0.22530  0.71130  Biso   1.000  O
  O60      1.0000 0.30776  0.25720  0.45230  Biso   1.000  O
  Zn13     1.0000 0.14858  0.60430  0.66001  Biso   1.000  Zn
  Zn14     1.0000 0.22932  0.35837  0.62724  Biso   1.000  Zn
  P19      1.0000 0.19570  0.44836  0.90357  Biso   1.000  P
  P20      1.0000 0.05163  0.61732  0.56660  Biso   1.000  P
  H13      1.0000 0.05700  0.71500  0.60700  Biso   1.000  H
  P21      1.0000 0.18005  0.79027  0.88460  Biso   1.000  P
  H14      1.0000 0.16240  0.88110  0.88800  Biso   1.000  H
  O61      1.0000 0.22471  0.37300  0.83050  Biso   1.000  O
  O62      1.0000 0.15865  0.48040  0.78180  Biso   1.000  O
  O63      1.0000 0.21940  0.54220  0.97700  Biso   1.000  O
  O64      1.0000 0.18442  0.38000  0.02520  Biso   1.000  O
  O65      1.0000 0.09182  0.58830  0.54200  Biso   1.000  O
  O66      1.0000 0.01799  0.60480  0.42260  Biso   1.000  O
  O67      1.0000 0.04392  0.57170  0.71000  Biso   1.000  O
  O68      1.0000 0.21503  0.80770  0.81430  Biso   1.000  O
  O69      1.0000 0.14755  0.72530  0.78870  Biso   1.000  O
  O70      1.0000 0.19224  0.75720  0.04770  Biso   1.000  O
  Zn15     1.0000 0.64858  0.10430  0.66001  Biso   1.000  Zn
  Zn16     1.0000 0.72932  0.85837  0.62724  Biso   1.000  Zn
  P22      1.0000 0.69570  0.94836  0.90357  Biso   1.000  P
  P23      1.0000 0.55163  0.11732  0.56660  Biso   1.000  P
  H15      1.0000 0.55700  0.21500  0.60700  Biso   1.000  H
  P24      1.0000 0.68005  0.29027  0.88460  Biso   1.000  P
  H16      1.0000 0.66240  0.38110  0.88800  Biso   1.000  H
  O71      1.0000 0.72471  0.87300  0.83050  Biso   1.000  O
  O72      1.0000 0.65865  0.98040  0.78180  Biso   1.000  O
  O73      1.0000 0.71940  0.04220  0.97700  Biso   1.000  O
  O74      1.0000 0.68442  0.88000  0.02520  Biso   1.000  O
  O75      1.0000 0.59182  0.08830  0.54200  Biso   1.000  O
  O76      1.0000 0.51799  0.10480  0.42260  Biso   1.000  O
  O77      1.0000 0.54392  0.07170  0.71000  Biso   1.000  O
  O78      1.0000 0.71503  0.30770  0.81430  Biso   1.000  O
  O79      1.0000 0.64755  0.22530  0.78870  Biso   1.000  O
  O80      1.0000 0.69224  0.25720  0.04770  Biso   1.000  O
  Zn17     1.0000 0.00000  0.48862  0.75000  Biso   1.000  Zn
  Zn18     1.0000 0.50000  0.98862  0.75000  Biso   1.000  Zn
  Zn19     1.0000 0.00000  0.51138  0.25000  Biso   1.000  Zn
  Zn20     1.0000 0.50000  0.01138  0.25000  Biso   1.000  Zn
