data_TIXVON_clean
_audit_creation_date              2015-10-16
_audit_creation_method            'Materials Studio'
_symmetry_space_group_name_H-M    'P1'
_symmetry_Int_Tables_number       1
_symmetry_cell_setting            triclinic
loop_
_symmetry_equiv_pos_as_xyz
  x,y,z
_cell_length_a                    11.3748
_cell_length_b                    23.7111
_cell_length_c                    22.0842
_cell_angle_alpha                 90.0000
_cell_angle_beta                  90.0000
_cell_angle_gamma                 90.0000
loop_
_atom_site_label
_atom_site_type_symbol
_atom_site_fract_x
_atom_site_fract_y
_atom_site_fract_z
_atom_site_U_iso_or_equiv
_atom_site_adp_type
_atom_site_occupancy
Mg1    Mg    0.71110   0.94058   0.00243   0.01267  Uiso   1.00
Mg2    Mg    0.28890   0.05942   0.99757   0.01267  Uiso   1.00
Mg3    Mg    0.00000   0.00000   0.00000   0.01267  Uiso   1.00
Mg4    Mg    0.28890   0.44058   0.49757   0.01267  Uiso   1.00
Mg5    Mg    0.78890   0.55942   0.00243   0.01267  Uiso   1.00
Mg6    Mg    0.21110   0.05942   0.49757   0.01267  Uiso   1.00
Mg7    Mg    0.00000   0.50000   0.50000   0.01267  Uiso   1.00
Mg8    Mg    0.78890   0.94058   0.50243   0.01267  Uiso   1.00
Mg9    Mg    0.21110   0.44058   0.99757   0.01267  Uiso   1.00
Mg10   Mg    0.71110   0.55942   0.50243   0.01267  Uiso   1.00
Mg11   Mg    0.50000   0.00000   0.50000   0.01267  Uiso   1.00
Mg12   Mg    0.50000   0.50000   0.00000   0.01267  Uiso   1.00
H1     H     0.11480   0.61640   0.36980   0.01267  Uiso   1.00
H2     H     0.69230   0.69690   0.88470   0.01267  Uiso   1.00
H3     H     0.86310   0.12410   0.74950   0.01267  Uiso   1.00
H4     H     0.93890   0.43360   0.32480   0.01267  Uiso   1.00
H5     H     0.09630   0.58330   0.12630   0.01267  Uiso   1.00
H6     H     0.06110   0.93360   0.17520   0.01267  Uiso   1.00
H7     H     0.89860   0.17180   0.32940   0.01267  Uiso   1.00
H8     H     0.62450   0.76780   0.82190   0.01267  Uiso   1.00
H9     H     0.31860   0.68530   0.80470   0.01267  Uiso   1.00
H10    H     0.06110   0.56640   0.67520   0.01267  Uiso   1.00
H11    H     0.90730   0.75510   0.20440   0.01267  Uiso   1.00
H12    H     0.18140   0.68530   0.30470   0.01267  Uiso   1.00
H13    H     0.40730   0.24490   0.29560   0.01267  Uiso   1.00
H14    H     0.59270   0.75510   0.70440   0.01267  Uiso   1.00
H15    H     0.68140   0.31470   0.19530   0.01267  Uiso   1.00
H16    H     0.43890   0.93360   0.67520   0.01267  Uiso   1.00
H17    H     0.87210   0.12330   0.97760   0.01267  Uiso   1.00
H18    H     0.62170   0.28770   0.93210   0.01267  Uiso   1.00
H19    H     0.40730   0.25510   0.79560   0.01267  Uiso   1.00
H20    H     0.09270   0.25510   0.29560   0.01267  Uiso   1.00
H21    H     0.81860   0.18530   0.19530   0.01267  Uiso   1.00
H22    H     0.38520   0.61640   0.86980   0.01267  Uiso   1.00
H23    H     0.37830   0.78770   0.56790   0.01267  Uiso   1.00
H24    H     0.87830   0.21230   0.93210   0.01267  Uiso   1.00
H25    H     0.89860   0.32820   0.82940   0.01267  Uiso   1.00
H26    H     0.40370   0.91670   0.12630   0.01267  Uiso   1.00
H27    H     0.59630   0.08330   0.87370   0.01267  Uiso   1.00
H28    H     0.93890   0.06640   0.82480   0.01267  Uiso   1.00
H29    H     0.37550   0.26780   0.67810   0.01267  Uiso   1.00
H30    H     0.62790   0.37670   0.97760   0.01267  Uiso   1.00
H31    H     0.11480   0.88360   0.86980   0.01267  Uiso   1.00
H32    H     0.19230   0.30310   0.61530   0.01267  Uiso   1.00
H33    H     0.12170   0.71230   0.56790   0.01267  Uiso   1.00
H34    H     0.62790   0.12330   0.47760   0.01267  Uiso   1.00
H35    H     0.12450   0.23220   0.67810   0.01267  Uiso   1.00
H36    H     0.60140   0.32820   0.32940   0.01267  Uiso   1.00
H37    H     0.09270   0.24490   0.79560   0.01267  Uiso   1.00
H38    H     0.32920   0.18620   0.36840   0.01267  Uiso   1.00
H39    H     0.10140   0.82820   0.67060   0.01267  Uiso   1.00
H40    H     0.61480   0.11640   0.63020   0.01267  Uiso   1.00
H41    H     0.59630   0.41670   0.37370   0.01267  Uiso   1.00
H42    H     0.19230   0.19690   0.11530   0.01267  Uiso   1.00
H43    H     0.37550   0.23220   0.17810   0.01267  Uiso   1.00
H44    H     0.36310   0.62410   0.25050   0.01267  Uiso   1.00
H45    H     0.62450   0.73220   0.32190   0.01267  Uiso   1.00
H46    H     0.87550   0.73220   0.82190   0.01267  Uiso   1.00
H47    H     0.87830   0.28770   0.43210   0.01267  Uiso   1.00
H48    H     0.13690   0.62410   0.75050   0.01267  Uiso   1.00
H49    H     0.37210   0.62330   0.02240   0.01267  Uiso   1.00
H50    H     0.17080   0.18620   0.86840   0.01267  Uiso   1.00
H51    H     0.69230   0.80310   0.38470   0.01267  Uiso   1.00
H52    H     0.30770   0.19690   0.61530   0.01267  Uiso   1.00
H53    H     0.80770   0.80310   0.88470   0.01267  Uiso   1.00
H54    H     0.68140   0.18530   0.69530   0.01267  Uiso   1.00
H55    H     0.17080   0.31380   0.36840   0.01267  Uiso   1.00
H56    H     0.32920   0.31380   0.86840   0.01267  Uiso   1.00
H57    H     0.67080   0.81380   0.63160   0.01267  Uiso   1.00
H58    H     0.37830   0.71230   0.06790   0.01267  Uiso   1.00
H59    H     0.37210   0.87670   0.52240   0.01267  Uiso   1.00
H60    H     0.86310   0.37590   0.24950   0.01267  Uiso   1.00
H61    H     0.18140   0.81470   0.80470   0.01267  Uiso   1.00
H62    H     0.63690   0.37590   0.74950   0.01267  Uiso   1.00
H63    H     0.61480   0.38360   0.13020   0.01267  Uiso   1.00
H64    H     0.67080   0.68620   0.13160   0.01267  Uiso   1.00
H65    H     0.39860   0.67180   0.67060   0.01267  Uiso   1.00
H66    H     0.10140   0.67180   0.17060   0.01267  Uiso   1.00
H67    H     0.82920   0.81380   0.13160   0.01267  Uiso   1.00
H68    H     0.12170   0.78770   0.06790   0.01267  Uiso   1.00
H69    H     0.87550   0.76780   0.32190   0.01267  Uiso   1.00
H70    H     0.81860   0.31470   0.69530   0.01267  Uiso   1.00
H71    H     0.40370   0.58330   0.62630   0.01267  Uiso   1.00
H72    H     0.90730   0.74490   0.70440   0.01267  Uiso   1.00
H73    H     0.62170   0.21230   0.43210   0.01267  Uiso   1.00
H74    H     0.82920   0.68620   0.63160   0.01267  Uiso   1.00
H75    H     0.56110   0.43360   0.82480   0.01267  Uiso   1.00
H76    H     0.90370   0.08330   0.37370   0.01267  Uiso   1.00
H77    H     0.09630   0.91670   0.62630   0.01267  Uiso   1.00
H78    H     0.13690   0.87590   0.25050   0.01267  Uiso   1.00
H79    H     0.12790   0.62330   0.52240   0.01267  Uiso   1.00
H80    H     0.88520   0.11640   0.13020   0.01267  Uiso   1.00
H81    H     0.30770   0.30310   0.11530   0.01267  Uiso   1.00
H82    H     0.90370   0.41670   0.87370   0.01267  Uiso   1.00
H83    H     0.87210   0.37670   0.47760   0.01267  Uiso   1.00
H84    H     0.36310   0.87590   0.75050   0.01267  Uiso   1.00
H85    H     0.59270   0.74490   0.20440   0.01267  Uiso   1.00
H86    H     0.43890   0.56640   0.17520   0.01267  Uiso   1.00
H87    H     0.39860   0.82820   0.17060   0.01267  Uiso   1.00
H88    H     0.88520   0.38360   0.63020   0.01267  Uiso   1.00
H89    H     0.31860   0.81470   0.30470   0.01267  Uiso   1.00
H90    H     0.56110   0.06640   0.32480   0.01267  Uiso   1.00
H91    H     0.38520   0.88360   0.36980   0.01267  Uiso   1.00
H92    H     0.80770   0.69690   0.38470   0.01267  Uiso   1.00
H93    H     0.12790   0.87670   0.02240   0.01267  Uiso   1.00
H94    H     0.12450   0.26780   0.17810   0.01267  Uiso   1.00
H95    H     0.63690   0.12410   0.24950   0.01267  Uiso   1.00
H96    H     0.60140   0.17180   0.82940   0.01267  Uiso   1.00
C1     C     0.93800   0.70890   0.69880   0.01267  Uiso   1.00
C2     C     0.67810   0.18613   0.42030   0.01267  Uiso   1.00
C3     C     0.23170   0.53608   0.04546   0.01267  Uiso   1.00
C4     C     0.65360   0.39088   0.38540   0.01267  Uiso   1.00
C5     C     0.81840   0.36732   0.44750   0.01267  Uiso   1.00
C6     C     0.15620   0.66190   0.14120   0.01267  Uiso   1.00
C7     C     0.60770   0.82610   0.65480   0.01267  Uiso   1.00
C8     C     0.07650   0.26270   0.66840   0.01267  Uiso   1.00
C9     C     0.88370   0.80509   0.86940   0.01267  Uiso   1.00
C10    C     0.97000   0.39772   0.31900   0.01267  Uiso   1.00
C11    C     0.56140   0.62077   0.14480   0.01267  Uiso   1.00
C12    C     0.60500   0.58419   0.09340   0.01267  Uiso   1.00
C13    C     0.42420   0.86320   0.72600   0.01267  Uiso   1.00
C14    C     0.57650   0.73730   0.83160   0.01267  Uiso   1.00
C15    C     0.89320   0.18810   0.17840   0.01267  Uiso   1.00
C16    C     0.43860   0.37923   0.85520   0.01267  Uiso   1.00
C17    C     0.84640   0.10912   0.38540   0.01267  Uiso   1.00
C18    C     0.75810   0.19938   0.37670   0.01267  Uiso   1.00
C19    C     0.93370   0.35332   0.63980   0.01267  Uiso   1.00
C20    C     0.58770   0.60427   0.92730   0.01267  Uiso   1.00
C21    C     0.23460   0.59408   0.07082   0.01267  Uiso   1.00
C22    C     0.43800   0.29110   0.80120   0.01267  Uiso   1.00
C23    C     0.34380   0.83810   0.14120   0.01267  Uiso   1.00
C24    C     0.02980   0.69010   0.73420   0.01267  Uiso   1.00
C25    C     0.38370   0.30509   0.13060   0.01267  Uiso   1.00
C26    C     0.82190   0.31387   0.42030   0.01267  Uiso   1.00
C27    C     0.75810   0.30062   0.87670   0.01267  Uiso   1.00
C28    C     0.03620   0.76650   0.80840   0.01267  Uiso   1.00
C29    C     0.45460   0.14939   0.61503   0.01267  Uiso   1.00
C30    C     0.60680   0.31190   0.17840   0.01267  Uiso   1.00
C31    C     0.06200   0.20890   0.80120   0.01267  Uiso   1.00
C32    C     0.53620   0.26650   0.19160   0.01267  Uiso   1.00
C33    C     0.76830   0.46392   0.95454   0.01267  Uiso   1.00
C34    C     0.26540   0.59408   0.57082   0.01267  Uiso   1.00
C35    C     0.60680   0.18810   0.67840   0.01267  Uiso   1.00
C36    C     0.74190   0.30062   0.37670   0.01267  Uiso   1.00
C37    C     0.39500   0.41581   0.90660   0.01267  Uiso   1.00
C38    C     0.43860   0.12077   0.35520   0.01267  Uiso   1.00
C39    C     0.31840   0.63268   0.05250   0.01267  Uiso   1.00
C40    C     0.45460   0.35061   0.11503   0.01267  Uiso   1.00
C41    C     0.43370   0.85332   0.36020   0.01267  Uiso   1.00
C42    C     0.47020   0.80990   0.73420   0.01267  Uiso   1.00
C43    C     0.92350   0.76270   0.83160   0.01267  Uiso   1.00
C44    C     0.67810   0.31387   0.92030   0.01267  Uiso   1.00
C45    C     0.89320   0.31190   0.67840   0.01267  Uiso   1.00
C46    C     0.76540   0.40592   0.92918   0.01267  Uiso   1.00
C47    C     0.84380   0.33810   0.85880   0.01267  Uiso   1.00
C48    C     0.34640   0.60912   0.61460   0.01267  Uiso   1.00
C49    C     0.56630   0.14668   0.63980   0.01267  Uiso   1.00
C50    C     0.53000   0.39772   0.81900   0.01267  Uiso   1.00
C51    C     0.43370   0.64668   0.86020   0.01267  Uiso   1.00
C52    C     0.68160   0.36732   0.94750   0.01267  Uiso   1.00
C53    C     0.04540   0.14939   0.11503   0.01267  Uiso   1.00
C54    C     0.42350   0.26270   0.16840   0.01267  Uiso   1.00
C55    C     0.39320   0.68810   0.82160   0.01267  Uiso   1.00
C56    C     0.53000   0.10228   0.31900   0.01267  Uiso   1.00
C57    C     0.93860   0.62077   0.64480   0.01267  Uiso   1.00
C58    C     0.97000   0.10228   0.81900   0.01267  Uiso   1.00
C59    C     0.23170   0.96392   0.54546   0.01267  Uiso   1.00
C60    C     0.10500   0.41581   0.40660   0.01267  Uiso   1.00
C61    C     0.76540   0.09408   0.42918   0.01267  Uiso   1.00
C62    C     0.57580   0.13680   0.27400   0.01267  Uiso   1.00
C63    C     0.04540   0.35061   0.61503   0.01267  Uiso   1.00
C64    C     0.26830   0.96392   0.04546   0.01267  Uiso   1.00
C65    C     0.08770   0.39573   0.57270   0.01267  Uiso   1.00
C66    C     0.73460   0.09408   0.92918   0.01267  Uiso   1.00
C67    C     0.06140   0.12077   0.85520   0.01267  Uiso   1.00
C68    C     0.10500   0.08419   0.90660   0.01267  Uiso   1.00
C69    C     0.24190   0.69938   0.12330   0.01267  Uiso   1.00
C70    C     0.32190   0.68613   0.07970   0.01267  Uiso   1.00
C71    C     0.58770   0.89573   0.42730   0.01267  Uiso   1.00
C72    C     0.46380   0.73350   0.80840   0.01267  Uiso   1.00
C73    C     0.92420   0.13680   0.77400   0.01267  Uiso   1.00
C74    C     0.06140   0.37923   0.35520   0.01267  Uiso   1.00
C75    C     0.56140   0.87923   0.64480   0.01267  Uiso   1.00
C76    C     0.84640   0.39088   0.88540   0.01267  Uiso   1.00
C77    C     0.18160   0.63268   0.55250   0.01267  Uiso   1.00
C78    C     0.74190   0.19938   0.87670   0.01267  Uiso   1.00
C79    C     0.34380   0.66190   0.64120   0.01267  Uiso   1.00
C80    C     0.26540   0.90592   0.07082   0.01267  Uiso   1.00
C81    C     0.17810   0.81387   0.07970   0.01267  Uiso   1.00
C82    C     0.60500   0.91581   0.59340   0.01267  Uiso   1.00
C83    C     0.24190   0.80062   0.62330   0.01267  Uiso   1.00
C84    C     0.47020   0.69010   0.23420   0.01267  Uiso   1.00
C85    C     0.31840   0.86732   0.55250   0.01267  Uiso   1.00
C86    C     0.54540   0.85061   0.38497   0.01267  Uiso   1.00
C87    C     0.73170   0.03608   0.95454   0.01267  Uiso   1.00
C88    C     0.97020   0.30990   0.26580   0.01267  Uiso   1.00
C89    C     0.07650   0.23730   0.16840   0.01267  Uiso   1.00
C90    C     0.07580   0.86320   0.22600   0.01267  Uiso   1.00
C91    C     0.91230   0.89573   0.92730   0.01267  Uiso   1.00
C92    C     0.65620   0.33810   0.35880   0.01267  Uiso   1.00
C93    C     0.03620   0.73350   0.30840   0.01267  Uiso   1.00
C94    C     0.18160   0.86732   0.05250   0.01267  Uiso   1.00
C95    C     0.61630   0.69491   0.86940   0.01267  Uiso   1.00
C96    C     0.53620   0.23350   0.69160   0.01267  Uiso   1.00
C97    C     0.56200   0.79110   0.69880   0.01267  Uiso   1.00
C98    C     0.03000   0.89772   0.18100   0.01267  Uiso   1.00
C99    C     0.06200   0.29110   0.30120   0.01267  Uiso   1.00
C100   C     0.54540   0.64939   0.88497   0.01267  Uiso   1.00
C101   C     0.06630   0.85332   0.86020   0.01267  Uiso   1.00
C102   C     0.47000   0.89772   0.68100   0.01267  Uiso   1.00
C103   C     0.03000   0.60228   0.68100   0.01267  Uiso   1.00
C104   C     0.11630   0.30509   0.63060   0.01267  Uiso   1.00
C105   C     0.57580   0.36320   0.77400   0.01267  Uiso   1.00
C106   C     0.17810   0.68613   0.57970   0.01267  Uiso   1.00
C107   C     0.56630   0.35332   0.13980   0.01267  Uiso   1.00
C108   C     0.41230   0.39573   0.07270   0.01267  Uiso   1.00
C109   C     0.76830   0.03608   0.45454   0.01267  Uiso   1.00
C110   C     0.34640   0.89088   0.11460   0.01267  Uiso   1.00
C111   C     0.57650   0.76270   0.33160   0.01267  Uiso   1.00
C112   C     0.95460   0.85061   0.88497   0.01267  Uiso   1.00
C113   C     0.15360   0.60912   0.11460   0.01267  Uiso   1.00
C114   C     0.61630   0.80509   0.36940   0.01267  Uiso   1.00
C115   C     0.73170   0.46392   0.45454   0.01267  Uiso   1.00
C116   C     0.88370   0.69491   0.36940   0.01267  Uiso   1.00
C117   C     0.32190   0.81387   0.57970   0.01267  Uiso   1.00
C118   C     0.96380   0.23350   0.19160   0.01267  Uiso   1.00
C119   C     0.10680   0.68810   0.32160   0.01267  Uiso   1.00
C120   C     0.38370   0.19491   0.63060   0.01267  Uiso   1.00
C121   C     0.39500   0.08419   0.40660   0.01267  Uiso   1.00
C122   C     0.39230   0.17390   0.34520   0.01267  Uiso   1.00
C123   C     0.08770   0.10427   0.07270   0.01267  Uiso   1.00
C124   C     0.92350   0.73730   0.33160   0.01267  Uiso   1.00
C125   C     0.68160   0.13268   0.44750   0.01267  Uiso   1.00
C126   C     0.10770   0.32610   0.34520   0.01267  Uiso   1.00
C127   C     0.89500   0.91581   0.09340   0.01267  Uiso   1.00
C128   C     0.42420   0.63680   0.22600   0.01267  Uiso   1.00
C129   C     0.25810   0.80062   0.12330   0.01267  Uiso   1.00
C130   C     0.97020   0.19010   0.76580   0.01267  Uiso   1.00
C131   C     0.11630   0.19491   0.13060   0.01267  Uiso   1.00
C132   C     0.81840   0.13268   0.94750   0.01267  Uiso   1.00
C133   C     0.43800   0.20890   0.30120   0.01267  Uiso   1.00
C134   C     0.41230   0.10427   0.57270   0.01267  Uiso   1.00
C135   C     0.52980   0.19010   0.26580   0.01267  Uiso   1.00
C136   C     0.92420   0.36320   0.27400   0.01267  Uiso   1.00
C137   C     0.06630   0.64668   0.36020   0.01267  Uiso   1.00
C138   C     0.95460   0.64939   0.38497   0.01267  Uiso   1.00
C139   C     0.96380   0.26650   0.69160   0.01267  Uiso   1.00
C140   C     0.26830   0.53608   0.54546   0.01267  Uiso   1.00
C141   C     0.89500   0.58419   0.59340   0.01267  Uiso   1.00
C142   C     0.52980   0.30990   0.76580   0.01267  Uiso   1.00
C143   C     0.93860   0.87923   0.14480   0.01267  Uiso   1.00
C144   C     0.65620   0.16190   0.85880   0.01267  Uiso   1.00
C145   C     0.93370   0.14668   0.13980   0.01267  Uiso   1.00
C146   C     0.39230   0.32610   0.84520   0.01267  Uiso   1.00
C147   C     0.56200   0.70890   0.19880   0.01267  Uiso   1.00
C148   C     0.91230   0.60427   0.42730   0.01267  Uiso   1.00
C149   C     0.07580   0.63680   0.72600   0.01267  Uiso   1.00
C150   C     0.65360   0.10912   0.88540   0.01267  Uiso   1.00
C151   C     0.89230   0.82610   0.15480   0.01267  Uiso   1.00
C152   C     0.89230   0.67390   0.65480   0.01267  Uiso   1.00
C153   C     0.60770   0.67390   0.15480   0.01267  Uiso   1.00
C154   C     0.84380   0.16190   0.35880   0.01267  Uiso   1.00
C155   C     0.25810   0.69938   0.62330   0.01267  Uiso   1.00
C156   C     0.15620   0.83810   0.64120   0.01267  Uiso   1.00
C157   C     0.10770   0.17390   0.84520   0.01267  Uiso   1.00
C158   C     0.46380   0.76650   0.30840   0.01267  Uiso   1.00
C159   C     0.10680   0.81190   0.82160   0.01267  Uiso   1.00
C160   C     0.02980   0.80990   0.23420   0.01267  Uiso   1.00
C161   C     0.82190   0.18613   0.92030   0.01267  Uiso   1.00
C162   C     0.93800   0.79110   0.19880   0.01267  Uiso   1.00
C163   C     0.47000   0.60228   0.18100   0.01267  Uiso   1.00
C164   C     0.23460   0.90592   0.57082   0.01267  Uiso   1.00
C165   C     0.39320   0.81190   0.32160   0.01267  Uiso   1.00
C166   C     0.73460   0.40592   0.42918   0.01267  Uiso   1.00
C167   C     0.42350   0.23730   0.66840   0.01267  Uiso   1.00
C168   C     0.15360   0.89088   0.61460   0.01267  Uiso   1.00
O1     O     0.98760   0.57158   0.44825   0.01267  Uiso   1.00
O2     O     0.58900   0.27693   0.72397   0.01267  Uiso   1.00
O3     O     0.14630   0.50442   0.05747   0.01267  Uiso   1.00
O4     O     0.58900   0.22307   0.22397   0.01267  Uiso   1.00
O5     O     0.25000   0.75000   0.65580   0.01267  Uiso   1.00
O6     O     0.81400   0.01786   0.98837   0.01267  Uiso   1.00
O7     O     0.95950   0.54413   0.57717   0.01267  Uiso   1.00
O8     O     0.64630   0.00442   0.94253   0.01267  Uiso   1.00
O9     O     0.41100   0.72307   0.27603   0.01267  Uiso   1.00
O10    O     0.54050   0.54413   0.07717   0.01267  Uiso   1.00
O11    O     0.45950   0.04413   0.42283   0.01267  Uiso   1.00
O12    O     0.30360   0.10331   0.56102   0.01267  Uiso   1.00
O13    O     0.31400   0.98214   0.51163   0.01267  Uiso   1.00
O14    O     0.04050   0.45587   0.42283   0.01267  Uiso   1.00
O15    O     0.79790   0.59725   0.57057   0.01267  Uiso   1.00
O16    O     0.45950   0.45587   0.92283   0.01267  Uiso   1.00
O17    O     0.25000   0.75000   0.15580   0.01267  Uiso   1.00
O18    O     0.75000   0.25000   0.84420   0.01267  Uiso   1.00
O19    O     0.48760   0.42842   0.05175   0.01267  Uiso   1.00
O20    O     0.64630   0.49558   0.44253   0.01267  Uiso   1.00
O21    O     0.80360   0.89669   0.93898   0.01267  Uiso   1.00
O22    O     0.48760   0.07158   0.55175   0.01267  Uiso   1.00
O23    O     0.29790   0.40275   0.92943   0.01267  Uiso   1.00
O24    O     0.98760   0.92842   0.94825   0.01267  Uiso   1.00
O25    O     0.80360   0.60331   0.43898   0.01267  Uiso   1.00
O26    O     0.04050   0.04413   0.92283   0.01267  Uiso   1.00
O27    O     0.31400   0.51786   0.01163   0.01267  Uiso   1.00
O28    O     0.79790   0.90275   0.07057   0.01267  Uiso   1.00
O29    O     0.68600   0.48214   0.98837   0.01267  Uiso   1.00
O30    O     0.29790   0.09725   0.42943   0.01267  Uiso   1.00
O31    O     0.20210   0.09725   0.92943   0.01267  Uiso   1.00
O32    O     0.91100   0.27693   0.22397   0.01267  Uiso   1.00
O33    O     0.68600   0.01786   0.48837   0.01267  Uiso   1.00
O34    O     0.85370   0.00442   0.44253   0.01267  Uiso   1.00
O35    O     0.30360   0.39669   0.06102   0.01267  Uiso   1.00
O36    O     0.54050   0.95587   0.57717   0.01267  Uiso   1.00
O37    O     0.01240   0.07158   0.05175   0.01267  Uiso   1.00
O38    O     0.35370   0.99558   0.05747   0.01267  Uiso   1.00
O39    O     0.20210   0.40275   0.42943   0.01267  Uiso   1.00
O40    O     0.69640   0.89669   0.43898   0.01267  Uiso   1.00
O41    O     0.51240   0.92842   0.44825   0.01267  Uiso   1.00
O42    O     0.08900   0.72307   0.77603   0.01267  Uiso   1.00
O43    O     0.51240   0.57158   0.94825   0.01267  Uiso   1.00
O44    O     0.70210   0.59725   0.07057   0.01267  Uiso   1.00
O45    O     0.70210   0.90275   0.57057   0.01267  Uiso   1.00
O46    O     0.41100   0.77693   0.77603   0.01267  Uiso   1.00
O47    O     0.01240   0.42842   0.55175   0.01267  Uiso   1.00
O48    O     0.08900   0.77693   0.27603   0.01267  Uiso   1.00
O49    O     0.95950   0.95587   0.07717   0.01267  Uiso   1.00
O50    O     0.85370   0.49558   0.94253   0.01267  Uiso   1.00
O51    O     0.19640   0.39669   0.56102   0.01267  Uiso   1.00
O52    O     0.18600   0.51786   0.51163   0.01267  Uiso   1.00
O53    O     0.69640   0.60331   0.93898   0.01267  Uiso   1.00
O54    O     0.81400   0.48214   0.48837   0.01267  Uiso   1.00
O55    O     0.91100   0.22307   0.72397   0.01267  Uiso   1.00
O56    O     0.35370   0.50442   0.55747   0.01267  Uiso   1.00
O57    O     0.18600   0.98214   0.01163   0.01267  Uiso   1.00
O58    O     0.19640   0.10331   0.06102   0.01267  Uiso   1.00
O59    O     0.75000   0.25000   0.34420   0.01267  Uiso   1.00
O60    O     0.14630   0.99558   0.55747   0.01267  Uiso   1.00
