data_image0
_cell_length_a       9.238
_cell_length_b       12.268
_cell_length_c       18.098
_cell_angle_alpha    90
_cell_angle_beta     91.41
_cell_angle_gamma    90

_symmetry_space_group_name_H-M    "P 1"
_symmetry_int_tables_number       1

loop_
  _symmetry_equiv_pos_as_xyz
  'x, y, z'

loop_
  _atom_site_label
  _atom_site_occupancy
  _atom_site_fract_x
  _atom_site_fract_y
  _atom_site_fract_z
  _atom_site_thermal_displace_type
  _atom_site_B_iso_or_equiv
  _atom_site_type_symbol
  Ag1      1.0000 0.62558  0.43759  0.50856  Biso   1.000  Ag
  Ag2      1.0000 0.85970  0.37105  0.25409  Biso   1.000  Ag
  Ag3      1.0000 0.91630  0.41383  0.76005  Biso   1.000  Ag
  Cu1      1.0000 0.14870  0.21210  0.51504  Biso   1.000  Cu
  C1       1.0000 0.44080  0.35080  0.50590  Biso   1.000  C
  N1       1.0000 0.34340  0.29280  0.50600  Biso   1.000  N
  C2       1.0000 0.96430  0.16810  0.65830  Biso   1.000  C
  N2       1.0000 0.02460  0.18640  0.60610  Biso   1.000  N
  C3       1.0000 0.80500  0.42120  0.35850  Biso   1.000  C
  N3       1.0000 0.76440  0.44080  0.41620  Biso   1.000  N
  C4       1.0000 0.00630  0.13500  0.36090  Biso   1.000  C
  N4       1.0000 0.06010  0.16010  0.41440  Biso   1.000  N
  C5       1.0000 0.82130  0.45180  0.66090  Biso   1.000  C
  N5       1.0000 0.76680  0.46070  0.60300  Biso   1.000  N
  N6       1.0000 0.05260  0.35470  0.50150  Biso   1.000  N
  H1       1.0000 0.97640  0.34730  0.47080  Biso   1.000  H
  H2       1.0000 0.11470  0.40200  0.48260  Biso   1.000  H
  H3       1.0000 0.02340  0.37910  0.54500  Biso   1.000  H
  N7       1.0000 0.24950  0.07030  0.53460  Biso   1.000  N
  C6       1.0000 0.24590  0.98430  0.49300  Biso   1.000  C
  H4       1.0000 0.19200  0.98800  0.44900  Biso   1.000  H
  C7       1.0000 0.31480  0.88970  0.50890  Biso   1.000  C
  H5       1.0000 0.30740  0.83140  0.47620  Biso   1.000  H
  C8       1.0000 0.39010  0.88020  0.56880  Biso   1.000  C
  H6       1.0000 0.44260  0.81690  0.57860  Biso   1.000  H
  C9       1.0000 0.39240  0.96710  0.61990  Biso   1.000  C
  H7       1.0000 0.43750  0.96200  0.66630  Biso   1.000  H
  C10      1.0000 0.32240  0.06010  0.59570  Biso   1.000  C
  H8       1.0000 0.32850  0.12100  0.62620  Biso   1.000  H
  Ag4      1.0000 0.37442  0.93759  0.99144  Biso   1.000  Ag
  Ag5      1.0000 0.14030  0.87105  0.24591  Biso   1.000  Ag
  Ag6      1.0000 0.08370  0.91383  0.73995  Biso   1.000  Ag
  Cu2      1.0000 0.85130  0.71210  0.98496  Biso   1.000  Cu
  C11      1.0000 0.55920  0.85080  0.99410  Biso   1.000  C
  N8       1.0000 0.65660  0.79280  0.99400  Biso   1.000  N
  C12      1.0000 0.03570  0.66810  0.84170  Biso   1.000  C
  N9       1.0000 0.97540  0.68640  0.89390  Biso   1.000  N
  C13      1.0000 0.19500  0.92120  0.14150  Biso   1.000  C
  N10      1.0000 0.23560  0.94080  0.08380  Biso   1.000  N
  C14      1.0000 0.99370  0.63500  0.13910  Biso   1.000  C
  N11      1.0000 0.93990  0.66010  0.08560  Biso   1.000  N
  C15      1.0000 0.17870  0.95180  0.83910  Biso   1.000  C
  N12      1.0000 0.23320  0.96070  0.89700  Biso   1.000  N
  N13      1.0000 0.94740  0.85470  0.99850  Biso   1.000  N
  H9       1.0000 0.02360  0.84730  0.02920  Biso   1.000  H
  H10      1.0000 0.88530  0.90200  0.01740  Biso   1.000  H
  H11      1.0000 0.97660  0.87910  0.95500  Biso   1.000  H
  N14      1.0000 0.75050  0.57030  0.96540  Biso   1.000  N
  C16      1.0000 0.75410  0.48430  0.00700  Biso   1.000  C
  H12      1.0000 0.80800  0.48800  0.05100  Biso   1.000  H
  C17      1.0000 0.68520  0.38970  0.99110  Biso   1.000  C
  H13      1.0000 0.69260  0.33140  0.02380  Biso   1.000  H
  C18      1.0000 0.60990  0.38020  0.93120  Biso   1.000  C
  H14      1.0000 0.55740  0.31690  0.92140  Biso   1.000  H
  C19      1.0000 0.60760  0.46710  0.88010  Biso   1.000  C
  H15      1.0000 0.56250  0.46200  0.83370  Biso   1.000  H
  C20      1.0000 0.67760  0.56010  0.90430  Biso   1.000  C
  H16      1.0000 0.67150  0.62100  0.87380  Biso   1.000  H
  Ag7      1.0000 0.37442  0.56241  0.49144  Biso   1.000  Ag
  Ag8      1.0000 0.14030  0.62895  0.74591  Biso   1.000  Ag
  Ag9      1.0000 0.08370  0.58617  0.23995  Biso   1.000  Ag
  Cu3      1.0000 0.85130  0.78790  0.48496  Biso   1.000  Cu
  C21      1.0000 0.55920  0.64920  0.49410  Biso   1.000  C
  N15      1.0000 0.65660  0.70720  0.49400  Biso   1.000  N
  C22      1.0000 0.03570  0.83190  0.34170  Biso   1.000  C
  N16      1.0000 0.97540  0.81360  0.39390  Biso   1.000  N
  C23      1.0000 0.19500  0.57880  0.64150  Biso   1.000  C
  N17      1.0000 0.23560  0.55920  0.58380  Biso   1.000  N
  C24      1.0000 0.99370  0.86500  0.63910  Biso   1.000  C
  N18      1.0000 0.93990  0.83990  0.58560  Biso   1.000  N
  C25      1.0000 0.17870  0.54820  0.33910  Biso   1.000  C
  N19      1.0000 0.23320  0.53930  0.39700  Biso   1.000  N
  N20      1.0000 0.94740  0.64530  0.49850  Biso   1.000  N
  H17      1.0000 0.02360  0.65270  0.52920  Biso   1.000  H
  H18      1.0000 0.88530  0.59800  0.51740  Biso   1.000  H
  H19      1.0000 0.97660  0.62090  0.45500  Biso   1.000  H
  N21      1.0000 0.75050  0.92970  0.46540  Biso   1.000  N
  C26      1.0000 0.75410  0.01570  0.50700  Biso   1.000  C
  H20      1.0000 0.80800  0.01200  0.55100  Biso   1.000  H
  C27      1.0000 0.68520  0.11030  0.49110  Biso   1.000  C
  H21      1.0000 0.69260  0.16860  0.52380  Biso   1.000  H
  C28      1.0000 0.60990  0.11980  0.43120  Biso   1.000  C
  H22      1.0000 0.55740  0.18310  0.42140  Biso   1.000  H
  C29      1.0000 0.60760  0.03290  0.38010  Biso   1.000  C
  H23      1.0000 0.56250  0.03800  0.33370  Biso   1.000  H
  C30      1.0000 0.67760  0.93990  0.40430  Biso   1.000  C
  H24      1.0000 0.67150  0.87900  0.37380  Biso   1.000  H
  Ag10     1.0000 0.62558  0.06241  0.00856  Biso   1.000  Ag
  Ag11     1.0000 0.85970  0.12895  0.75409  Biso   1.000  Ag
  Ag12     1.0000 0.91630  0.08617  0.26005  Biso   1.000  Ag
  Cu4      1.0000 0.14870  0.28790  0.01504  Biso   1.000  Cu
  C31      1.0000 0.44080  0.14920  0.00590  Biso   1.000  C
  N22      1.0000 0.34340  0.20720  0.00600  Biso   1.000  N
  C32      1.0000 0.96430  0.33190  0.15830  Biso   1.000  C
  N23      1.0000 0.02460  0.31360  0.10610  Biso   1.000  N
  C33      1.0000 0.80500  0.07880  0.85850  Biso   1.000  C
  N24      1.0000 0.76440  0.05920  0.91620  Biso   1.000  N
  C34      1.0000 0.00630  0.36500  0.86090  Biso   1.000  C
  N25      1.0000 0.06010  0.33990  0.91440  Biso   1.000  N
  C35      1.0000 0.82130  0.04820  0.16090  Biso   1.000  C
  N26      1.0000 0.76680  0.03930  0.10300  Biso   1.000  N
  N27      1.0000 0.05260  0.14530  0.00150  Biso   1.000  N
  H25      1.0000 0.97640  0.15270  0.97080  Biso   1.000  H
  H26      1.0000 0.11470  0.09800  0.98260  Biso   1.000  H
  H27      1.0000 0.02340  0.12090  0.04500  Biso   1.000  H
  N28      1.0000 0.24950  0.42970  0.03460  Biso   1.000  N
  C36      1.0000 0.24590  0.51570  0.99300  Biso   1.000  C
  H28      1.0000 0.19200  0.51200  0.94900  Biso   1.000  H
  C37      1.0000 0.31480  0.61030  0.00890  Biso   1.000  C
  H29      1.0000 0.30740  0.66860  0.97620  Biso   1.000  H
  C38      1.0000 0.39010  0.61980  0.06880  Biso   1.000  C
  H30      1.0000 0.44260  0.68310  0.07860  Biso   1.000  H
  C39      1.0000 0.39240  0.53290  0.11990  Biso   1.000  C
  H31      1.0000 0.43750  0.53800  0.16630  Biso   1.000  H
  C40      1.0000 0.32240  0.43990  0.09570  Biso   1.000  C
  H32      1.0000 0.32850  0.37900  0.12620  Biso   1.000  H
