data_TIZVED01_charged
_audit_creation_date              2014-07-02
_audit_creation_method            'Materials Studio'
_symmetry_space_group_name_H-M    'P1'
_symmetry_Int_Tables_number       1
_symmetry_cell_setting            triclinic
loop_
_symmetry_equiv_pos_as_xyz
  x,y,z
_cell_length_a                    9.5990
_cell_length_b                    13.3670
_cell_length_c                    14.4683
_cell_angle_alpha                 95.0699
_cell_angle_beta                  109.3740
_cell_angle_gamma                 74.5500
loop_
_atom_site_label
_atom_site_type_symbol
_atom_site_fract_x
_atom_site_fract_y
_atom_site_fract_z
_atom_site_U_iso_or_equiv
_atom_site_adp_type
_atom_site_occupancy
Cu1    Cu    0.18429   0.98150   0.22678   0.01267  Uiso   1.00
Cu2    Cu    0.95751   0.48150   0.77322   0.01267  Uiso   1.00
H1     H     0.57870   0.67390   0.15060   0.01267  Uiso   1.00
H2     H     0.56930   0.82200   0.86400   0.01267  Uiso   1.00
H3     H     0.74720   0.51200   0.15240   0.01267  Uiso   1.00
H4     H     0.82250   0.54370   0.08660   0.01267  Uiso   1.00
H5     H     0.74960   0.46760   0.03460   0.01267  Uiso   1.00
H6     H     0.42770   0.97730   0.92060   0.01267  Uiso   1.00
H7     H     0.30030   0.92340   0.86220   0.01267  Uiso   1.00
H8     H     0.31170   0.96220   0.96820   0.01267  Uiso   1.00
H9     H     0.22680   0.84730   0.55680   0.01267  Uiso   1.00
H10    H     0.90220   0.63390   0.44580   0.01267  Uiso   1.00
H11    H     0.30300   0.75010   0.72940   0.01267  Uiso   1.00
H12    H     0.16170   0.73070   0.74740   0.01267  Uiso   1.00
H13    H     0.16250   0.84190   0.72520   0.01267  Uiso   1.00
H14    H     0.86820   0.77390   0.26000   0.01267  Uiso   1.00
H15    H     0.86960   0.66040   0.27620   0.01267  Uiso   1.00
H16    H     0.00960   0.68430   0.26040   0.01267  Uiso   1.00
H17    H     0.42810   0.17390   0.84940   0.01267  Uiso   1.00
H18    H     0.70530   0.32200   0.13600   0.01267  Uiso   1.00
H19    H     0.59480   0.01200   0.84760   0.01267  Uiso   1.00
H20    H     0.73590   0.04370   0.91340   0.01267  Uiso   1.00
H21    H     0.71500   0.96760   0.96540   0.01267  Uiso   1.00
H22    H     0.50710   0.47730   0.07940   0.01267  Uiso   1.00
H23    H     0.43810   0.42340   0.13780   0.01267  Uiso   1.00
H24    H     0.34350   0.46220   0.03180   0.01267  Uiso   1.00
H25    H     0.67000   0.34730   0.44320   0.01267  Uiso   1.00
H26    H     0.45640   0.13390   0.55420   0.01267  Uiso   1.00
H27    H     0.57360   0.25010   0.27060   0.01267  Uiso   1.00
H28    H     0.41430   0.23070   0.25260   0.01267  Uiso   1.00
H29    H     0.43730   0.34190   0.27480   0.01267  Uiso   1.00
H30    H     0.60820   0.27390   0.74000   0.01267  Uiso   1.00
H31    H     0.59340   0.16040   0.72380   0.01267  Uiso   1.00
H32    H     0.74920   0.18430   0.73960   0.01267  Uiso   1.00
C1     C     0.38400   0.85400   0.11000   0.01267  Uiso   1.00
C2     C     0.48200   0.78800   0.05200   0.01267  Uiso   1.00
C3     C     0.57670   0.69800   0.09340   0.01267  Uiso   1.00
C4     C     0.66910   0.63100   0.04220   0.01267  Uiso   1.00
C5     C     0.66230   0.66800   0.95260   0.01267  Uiso   1.00
C6     C     0.56740   0.77000   0.91680   0.01267  Uiso   1.00
C7     C     0.47320   0.82720   0.96640   0.01267  Uiso   1.00
C8     C     0.74980   0.61000   0.89960   0.01267  Uiso   1.00
C9     C     0.77040   0.52900   0.08080   0.01267  Uiso   1.00
C10    C     0.37210   0.93400   0.92620   0.01267  Uiso   1.00
C11    C     0.13490   0.84000   0.37180   0.01267  Uiso   1.00
C12    C     0.09500   0.78850   0.44000   0.01267  Uiso   1.00
C13    C     0.16430   0.80200   0.54060   0.01267  Uiso   1.00
C14    C     0.13350   0.75280   0.60900   0.01267  Uiso   1.00
C15    C     0.02570   0.69100   0.56940   0.01267  Uiso   1.00
C16    C     0.96810   0.67300   0.47020   0.01267  Uiso   1.00
C17    C     0.00640   0.72400   0.40680   0.01267  Uiso   1.00
C18    C     0.99710   0.62900   0.63820   0.01267  Uiso   1.00
C19    C     0.18770   0.76900   0.71140   0.01267  Uiso   1.00
C20    C     0.92770   0.70300   0.29140   0.01267  Uiso   1.00
C21    C     0.27400   0.35400   0.89000   0.01267  Uiso   1.00
C22    C     0.43000   0.28800   0.94800   0.01267  Uiso   1.00
C23    C     0.48330   0.19800   0.90660   0.01267  Uiso   1.00
C24    C     0.62690   0.13100   0.95780   0.01267  Uiso   1.00
C25    C     0.70970   0.16800   0.04740   0.01267  Uiso   1.00
C26    C     0.65060   0.27000   0.08320   0.01267  Uiso   1.00
C27    C     0.50680   0.32720   0.03360   0.01267  Uiso   1.00
C28    C     0.85020   0.11000   0.10040   0.01267  Uiso   1.00
C29    C     0.68960   0.02900   0.91920   0.01267  Uiso   1.00
C30    C     0.44590   0.43400   0.07380   0.01267  Uiso   1.00
C31    C     0.76310   0.34000   0.62820   0.01267  Uiso   1.00
C32    C     0.65500   0.28850   0.56000   0.01267  Uiso   1.00
C33    C     0.62370   0.30200   0.45940   0.01267  Uiso   1.00
C34    C     0.52450   0.25280   0.39100   0.01267  Uiso   1.00
C35    C     0.45630   0.19100   0.43060   0.01267  Uiso   1.00
C36    C     0.49790   0.17300   0.52980   0.01267  Uiso   1.00
C37    C     0.59960   0.22400   0.59320   0.01267  Uiso   1.00
C38    C     0.35890   0.12900   0.36180   0.01267  Uiso   1.00
C39    C     0.47630   0.26900   0.28860   0.01267  Uiso   1.00
C40    C     0.63630   0.20300   0.70860   0.01267  Uiso   1.00
N1     N     0.31470   0.89660   0.15140   0.01267  Uiso   1.00
N2     N     0.83190   0.55660   0.85580   0.01267  Uiso   1.00
N3     N     0.15690   0.88700   0.31580   0.01267  Uiso   1.00
N4     N     0.97300   0.58360   0.68600   0.01267  Uiso   1.00
N5     N     0.16330   0.39660   0.84860   0.01267  Uiso   1.00
N6     N     0.97610   0.05660   0.14420   0.01267  Uiso   1.00
N7     N     0.84110   0.38700   0.68420   0.01267  Uiso   1.00
N8     N     0.28700   0.08360   0.31400   0.01267  Uiso   1.00
B1     B     0.26190   0.06100   0.65380   0.01267  Uiso   1.00
F1     F     0.38990   0.99600   0.69780   0.01267  Uiso   1.00
F2     F     0.23830   0.04860   0.55460   0.01267  Uiso   1.00
F3     F     0.29600   0.15240   0.68200   0.01267  Uiso   1.00
F4     F     0.15850   0.03840   0.68100   0.01267  Uiso   1.00
B2     B     0.60810   0.56100   0.34620   0.01267  Uiso   1.00
F5     F     0.69210   0.49600   0.30220   0.01267  Uiso   1.00
F6     F     0.68370   0.54860   0.44540   0.01267  Uiso   1.00
F7     F     0.61400   0.65240   0.31800   0.01267  Uiso   1.00
F8     F     0.47750   0.53840   0.31900   0.01267  Uiso   1.00
