data_TIZVIH_charged
_audit_creation_date              2014-07-02
_audit_creation_method            'Materials Studio'
_symmetry_space_group_name_H-M    'P1'
_symmetry_Int_Tables_number       1
_symmetry_cell_setting            triclinic
loop_
_symmetry_equiv_pos_as_xyz
  x,y,z
_cell_length_a                    9.5900
_cell_length_b                    13.4160
_cell_length_c                    14.5286
_cell_angle_alpha                 95.1557
_cell_angle_beta                  109.2710
_cell_angle_gamma                 74.2001
loop_
_atom_site_label
_atom_site_type_symbol
_atom_site_fract_x
_atom_site_fract_y
_atom_site_fract_z
_atom_site_U_iso_or_equiv
_atom_site_adp_type
_atom_site_occupancy
Cu1    Cu    0.29087   0.22540   0.22894   0.01267  Uiso   1.00
Cu2    Cu    0.06193   0.72540   0.77106   0.01267  Uiso   1.00
H1     H     0.68520   0.91920   0.15040   0.01267  Uiso   1.00
H2     H     0.68980   0.03360   0.87280   0.01267  Uiso   1.00
H3     H     0.86920   0.76230   0.13920   0.01267  Uiso   1.00
H4     H     0.97740   0.77120   0.08280   0.01267  Uiso   1.00
H5     H     0.84220   0.72180   0.03280   0.01267  Uiso   1.00
H6     H     0.36670   0.17210   0.91420   0.01267  Uiso   1.00
H7     H     0.48810   0.22940   0.97460   0.01267  Uiso   1.00
H8     H     0.48020   0.19460   0.86860   0.01267  Uiso   1.00
H9     H     0.34150   0.09680   0.56320   0.01267  Uiso   1.00
H10    H     0.00160   0.87040   0.44060   0.01267  Uiso   1.00
H11    H     0.36830   0.05180   0.73080   0.01267  Uiso   1.00
H12    H     0.35250   0.94230   0.74380   0.01267  Uiso   1.00
H13    H     0.21840   0.03900   0.74140   0.01267  Uiso   1.00
H14    H     0.07040   0.98190   0.25600   0.01267  Uiso   1.00
H15    H     0.93050   0.96560   0.27800   0.01267  Uiso   1.00
H16    H     0.07150   0.87290   0.28440   0.01267  Uiso   1.00
H17    H     0.53480   0.41920   0.84960   0.01267  Uiso   1.00
H18    H     0.81700   0.53360   0.12720   0.01267  Uiso   1.00
H19    H     0.73000   0.26230   0.86080   0.01267  Uiso   1.00
H20    H     0.89460   0.27120   0.91720   0.01267  Uiso   1.00
H21    H     0.80940   0.22180   0.96720   0.01267  Uiso   1.00
H22    H     0.45250   0.67210   0.08580   0.01267  Uiso   1.00
H23    H     0.51350   0.72940   0.02540   0.01267  Uiso   1.00
H24    H     0.61160   0.69460   0.13140   0.01267  Uiso   1.00
H25    H     0.77830   0.59680   0.43680   0.01267  Uiso   1.00
H26    H     0.56100   0.37040   0.55940   0.01267  Uiso   1.00
H27    H     0.63750   0.55180   0.26920   0.01267  Uiso   1.00
H28    H     0.60870   0.44230   0.25620   0.01267  Uiso   1.00
H29    H     0.47700   0.53900   0.25860   0.01267  Uiso   1.00
H30    H     0.81440   0.48190   0.74400   0.01267  Uiso   1.00
H31    H     0.65250   0.46560   0.72200   0.01267  Uiso   1.00
H32    H     0.78710   0.37290   0.71560   0.01267  Uiso   1.00
C1     C     0.48940   0.09600   0.10880   0.01267  Uiso   1.00
C2     C     0.58250   0.03430   0.05300   0.01267  Uiso   1.00
C3     C     0.68350   0.93900   0.09100   0.01267  Uiso   1.00
C4     C     0.77790   0.87400   0.04180   0.01267  Uiso   1.00
C5     C     0.76380   0.91400   0.95160   0.01267  Uiso   1.00
C6     C     0.67210   0.01300   0.91620   0.01267  Uiso   1.00
C7     C     0.58170   0.07150   0.96740   0.01267  Uiso   1.00
C8     C     0.85680   0.85310   0.89760   0.01267  Uiso   1.00
C9     C     0.87810   0.77200   0.07620   0.01267  Uiso   1.00
C10    C     0.47700   0.17700   0.92600   0.01267  Uiso   1.00
C11    C     0.23770   0.08700   0.37340   0.01267  Uiso   1.00
C12    C     0.20060   0.03300   0.43920   0.01267  Uiso   1.00
C13    C     0.26710   0.04800   0.54020   0.01267  Uiso   1.00
C14    C     0.23670   0.99680   0.60740   0.01267  Uiso   1.00
C15    C     0.13160   0.93600   0.56720   0.01267  Uiso   1.00
C16    C     0.07370   0.91940   0.47140   0.01267  Uiso   1.00
C17    C     0.11010   0.96800   0.40220   0.01267  Uiso   1.00
C18    C     0.09590   0.87600   0.63580   0.01267  Uiso   1.00
C19    C     0.29280   0.01400   0.71560   0.01267  Uiso   1.00
C20    C     0.03840   0.95100   0.29480   0.01267  Uiso   1.00
C21    C     0.38060   0.59600   0.89120   0.01267  Uiso   1.00
C22    C     0.52950   0.53430   0.94700   0.01267  Uiso   1.00
C23    C     0.59250   0.43900   0.90900   0.01267  Uiso   1.00
C24    C     0.73610   0.37400   0.95820   0.01267  Uiso   1.00
C25    C     0.81220   0.41400   0.04840   0.01267  Uiso   1.00
C26    C     0.75590   0.51300   0.08380   0.01267  Uiso   1.00
C27    C     0.61430   0.57150   0.03260   0.01267  Uiso   1.00
C28    C     0.95920   0.35310   0.10240   0.01267  Uiso   1.00
C29    C     0.80190   0.27200   0.92380   0.01267  Uiso   1.00
C30    C     0.55100   0.67700   0.07400   0.01267  Uiso   1.00
C31    C     0.86430   0.58700   0.62660   0.01267  Uiso   1.00
C32    C     0.76140   0.53300   0.56080   0.01267  Uiso   1.00
C33    C     0.72690   0.54800   0.45980   0.01267  Uiso   1.00
C34    C     0.62930   0.49680   0.39260   0.01267  Uiso   1.00
C35    C     0.56440   0.43600   0.43280   0.01267  Uiso   1.00
C36    C     0.60230   0.41940   0.52860   0.01267  Uiso   1.00
C37    C     0.70790   0.46800   0.59780   0.01267  Uiso   1.00
C38    C     0.46010   0.37600   0.36420   0.01267  Uiso   1.00
C39    C     0.57720   0.51400   0.28440   0.01267  Uiso   1.00
C40    C     0.74360   0.45100   0.70520   0.01267  Uiso   1.00
N1     N     0.41760   0.14190   0.15120   0.01267  Uiso   1.00
N2     N     0.93290   0.80190   0.85180   0.01267  Uiso   1.00
N3     N     0.26490   0.12910   0.31980   0.01267  Uiso   1.00
N4     N     0.07810   0.82670   0.68620   0.01267  Uiso   1.00
N5     N     0.26640   0.64190   0.84880   0.01267  Uiso   1.00
N6     N     0.08110   0.30190   0.14820   0.01267  Uiso   1.00
N7     N     0.94510   0.62910   0.68020   0.01267  Uiso   1.00
N8     N     0.39190   0.32670   0.31380   0.01267  Uiso   1.00
Cl1    Cl    0.70760   0.80900   0.34600   0.01267  Uiso   1.00
O1     O     0.77960   0.79570   0.44720   0.01267  Uiso   1.00
O2     O     0.70950   0.90800   0.31900   0.01267  Uiso   1.00
O3     O     0.80150   0.73700   0.29900   0.01267  Uiso   1.00
O4     O     0.57000   0.78500   0.31600   0.01267  Uiso   1.00
Cl2    Cl    0.36160   0.30900   0.65400   0.01267  Uiso   1.00
O5     O     0.33240   0.29570   0.55280   0.01267  Uiso   1.00
O6     O     0.39050   0.40800   0.68100   0.01267  Uiso   1.00
O7     O     0.50250   0.23700   0.70100   0.01267  Uiso   1.00
O8     O     0.25400   0.28500   0.68400   0.01267  Uiso   1.00
