data_image0
_cell_length_a       6.4633
_cell_length_b       17.072
_cell_length_c       23.816
_cell_angle_alpha    90
_cell_angle_beta     90.602
_cell_angle_gamma    90

_symmetry_space_group_name_H-M    "P 1"
_symmetry_int_tables_number       1

loop_
  _symmetry_equiv_pos_as_xyz
  'x, y, z'

loop_
  _atom_site_label
  _atom_site_occupancy
  _atom_site_fract_x
  _atom_site_fract_y
  _atom_site_fract_z
  _atom_site_thermal_displace_type
  _atom_site_B_iso_or_equiv
  _atom_site_type_symbol
  Eu1      1.0000 0.26189  0.06280  0.02277  Biso   1.000  Eu
  C1       1.0000 0.23490  0.94080  0.93130  Biso   1.000  C
  C2       1.0000 0.27170  0.89440  0.88250  Biso   1.000  C
  C3       1.0000 0.46770  0.85700  0.87250  Biso   1.000  C
  C4       1.0000 0.48630  0.81280  0.82310  Biso   1.000  C
  H1       1.0000 0.61240  0.78880  0.81580  Biso   1.000  H
  C5       1.0000 0.32650  0.80330  0.78470  Biso   1.000  C
  C6       1.0000 0.13660  0.83940  0.79440  Biso   1.000  C
  H2       1.0000 0.02710  0.83300  0.76910  Biso   1.000  H
  C7       1.0000 0.11270  0.88500  0.84220  Biso   1.000  C
  H3       1.0000 0.98720  0.91030  0.84770  Biso   1.000  H
  C8       1.0000 0.35620  0.75130  0.73480  Biso   1.000  C
  C9       1.0000 0.19660  0.70610  0.71480  Biso   1.000  C
  H4       1.0000 0.06840  0.70900  0.73210  Biso   1.000  H
  C10      1.0000 0.22160  0.65570  0.66920  Biso   1.000  C
  C11      1.0000 0.41210  0.65260  0.64200  Biso   1.000  C
  C12      1.0000 0.57240  0.70110  0.66200  Biso   1.000  C
  H5       1.0000 0.69970  0.70070  0.64420  Biso   1.000  H
  C13      1.0000 0.54330  0.74920  0.70770  Biso   1.000  C
  H6       1.0000 0.65150  0.78060  0.72040  Biso   1.000  H
  C14      1.0000 0.44640  0.60090  0.59350  Biso   1.000  C
  O1       1.0000 0.06310  0.97660  0.94010  Biso   1.000  O
  O2       1.0000 0.37590  0.95090  0.96920  Biso   1.000  O
  O3       1.0000 0.60110  0.61260  0.56280  Biso   1.000  O
  O4       1.0000 0.31560  0.54540  0.58540  Biso   1.000  O
  O5       1.0000 0.62670  0.86290  0.90690  Biso   1.000  O
  O6       1.0000 0.05650  0.61160  0.65390  Biso   1.000  O
  H7       1.0000 0.09060  0.58070  0.62930  Biso   1.000  H
  Eu2      1.0000 0.73811  0.56280  0.47723  Biso   1.000  Eu
  C15      1.0000 0.76510  0.44080  0.56870  Biso   1.000  C
  C16      1.0000 0.72830  0.39440  0.61750  Biso   1.000  C
  C17      1.0000 0.53230  0.35700  0.62750  Biso   1.000  C
  C18      1.0000 0.51370  0.31280  0.67690  Biso   1.000  C
  H8       1.0000 0.38760  0.28880  0.68420  Biso   1.000  H
  C19      1.0000 0.67350  0.30330  0.71530  Biso   1.000  C
  C20      1.0000 0.86340  0.33940  0.70560  Biso   1.000  C
  H9       1.0000 0.97290  0.33300  0.73090  Biso   1.000  H
  C21      1.0000 0.88730  0.38500  0.65780  Biso   1.000  C
  H10      1.0000 0.01280  0.41030  0.65230  Biso   1.000  H
  C22      1.0000 0.64380  0.25130  0.76520  Biso   1.000  C
  C23      1.0000 0.80340  0.20610  0.78520  Biso   1.000  C
  H11      1.0000 0.93160  0.20900  0.76790  Biso   1.000  H
  C24      1.0000 0.77840  0.15570  0.83080  Biso   1.000  C
  C25      1.0000 0.58790  0.15260  0.85800  Biso   1.000  C
  C26      1.0000 0.42760  0.20110  0.83800  Biso   1.000  C
  H12      1.0000 0.30030  0.20070  0.85580  Biso   1.000  H
  C27      1.0000 0.45670  0.24920  0.79230  Biso   1.000  C
  H13      1.0000 0.34850  0.28060  0.77960  Biso   1.000  H
  C28      1.0000 0.55360  0.10090  0.90650  Biso   1.000  C
  O7       1.0000 0.93690  0.47660  0.55990  Biso   1.000  O
  O8       1.0000 0.62410  0.45090  0.53080  Biso   1.000  O
  O9       1.0000 0.39890  0.11260  0.93720  Biso   1.000  O
  O10      1.0000 0.68440  0.04540  0.91460  Biso   1.000  O
  O11      1.0000 0.37330  0.36290  0.59310  Biso   1.000  O
  O12      1.0000 0.94350  0.11160  0.84610  Biso   1.000  O
  H14      1.0000 0.90940  0.08070  0.87070  Biso   1.000  H
  Eu3      1.0000 0.73811  0.93720  0.97723  Biso   1.000  Eu
  C29      1.0000 0.76510  0.05920  0.06870  Biso   1.000  C
  C30      1.0000 0.72830  0.10560  0.11750  Biso   1.000  C
  C31      1.0000 0.53230  0.14300  0.12750  Biso   1.000  C
  C32      1.0000 0.51370  0.18720  0.17690  Biso   1.000  C
  H15      1.0000 0.38760  0.21120  0.18420  Biso   1.000  H
  C33      1.0000 0.67350  0.19670  0.21530  Biso   1.000  C
  C34      1.0000 0.86340  0.16060  0.20560  Biso   1.000  C
  H16      1.0000 0.97290  0.16700  0.23090  Biso   1.000  H
  C35      1.0000 0.88730  0.11500  0.15780  Biso   1.000  C
  H17      1.0000 0.01280  0.08970  0.15230  Biso   1.000  H
  C36      1.0000 0.64380  0.24870  0.26520  Biso   1.000  C
  C37      1.0000 0.80340  0.29390  0.28520  Biso   1.000  C
  H18      1.0000 0.93160  0.29100  0.26790  Biso   1.000  H
  C38      1.0000 0.77840  0.34430  0.33080  Biso   1.000  C
  C39      1.0000 0.58790  0.34740  0.35800  Biso   1.000  C
  C40      1.0000 0.42760  0.29890  0.33800  Biso   1.000  C
  H19      1.0000 0.30030  0.29930  0.35580  Biso   1.000  H
  C41      1.0000 0.45670  0.25080  0.29230  Biso   1.000  C
  H20      1.0000 0.34850  0.21940  0.27960  Biso   1.000  H
  C42      1.0000 0.55360  0.39910  0.40650  Biso   1.000  C
  O13      1.0000 0.93690  0.02340  0.05990  Biso   1.000  O
  O14      1.0000 0.62410  0.04910  0.03080  Biso   1.000  O
  O15      1.0000 0.39890  0.38740  0.43720  Biso   1.000  O
  O16      1.0000 0.68440  0.45460  0.41460  Biso   1.000  O
  O17      1.0000 0.37330  0.13710  0.09310  Biso   1.000  O
  O18      1.0000 0.94350  0.38840  0.34610  Biso   1.000  O
  H21      1.0000 0.90940  0.41930  0.37070  Biso   1.000  H
  Eu4      1.0000 0.26189  0.43720  0.52277  Biso   1.000  Eu
  C43      1.0000 0.23490  0.55920  0.43130  Biso   1.000  C
  C44      1.0000 0.27170  0.60560  0.38250  Biso   1.000  C
  C45      1.0000 0.46770  0.64300  0.37250  Biso   1.000  C
  C46      1.0000 0.48630  0.68720  0.32310  Biso   1.000  C
  H22      1.0000 0.61240  0.71120  0.31580  Biso   1.000  H
  C47      1.0000 0.32650  0.69670  0.28470  Biso   1.000  C
  C48      1.0000 0.13660  0.66060  0.29440  Biso   1.000  C
  H23      1.0000 0.02710  0.66700  0.26910  Biso   1.000  H
  C49      1.0000 0.11270  0.61500  0.34220  Biso   1.000  C
  H24      1.0000 0.98720  0.58970  0.34770  Biso   1.000  H
  C50      1.0000 0.35620  0.74870  0.23480  Biso   1.000  C
  C51      1.0000 0.19660  0.79390  0.21480  Biso   1.000  C
  H25      1.0000 0.06840  0.79100  0.23210  Biso   1.000  H
  C52      1.0000 0.22160  0.84430  0.16920  Biso   1.000  C
  C53      1.0000 0.41210  0.84740  0.14200  Biso   1.000  C
  C54      1.0000 0.57240  0.79890  0.16200  Biso   1.000  C
  H26      1.0000 0.69970  0.79930  0.14420  Biso   1.000  H
  C55      1.0000 0.54330  0.75080  0.20770  Biso   1.000  C
  H27      1.0000 0.65150  0.71940  0.22040  Biso   1.000  H
  C56      1.0000 0.44640  0.89910  0.09350  Biso   1.000  C
  O19      1.0000 0.06310  0.52340  0.44010  Biso   1.000  O
  O20      1.0000 0.37590  0.54910  0.46920  Biso   1.000  O
  O21      1.0000 0.60110  0.88740  0.06280  Biso   1.000  O
  O22      1.0000 0.31560  0.95460  0.08540  Biso   1.000  O
  O23      1.0000 0.62670  0.63710  0.40690  Biso   1.000  O
  O24      1.0000 0.05650  0.88840  0.15390  Biso   1.000  O
  H28      1.0000 0.09060  0.91930  0.12930  Biso   1.000  H
