data_image0
_cell_length_a       18.666
_cell_length_b       13.998
_cell_length_c       27.179
_cell_angle_alpha    90
_cell_angle_beta     131.032
_cell_angle_gamma    90

_symmetry_space_group_name_H-M    "P 1"
_symmetry_int_tables_number       1

loop_
  _symmetry_equiv_pos_as_xyz
  'x, y, z'

loop_
  _atom_site_label
  _atom_site_occupancy
  _atom_site_fract_x
  _atom_site_fract_y
  _atom_site_fract_z
  _atom_site_thermal_displace_type
  _atom_site_B_iso_or_equiv
  _atom_site_type_symbol
  C1       1.0000 0.40150  0.94540  0.92750  Biso   1.000  C
  H1       1.0000 0.39900  0.97980  0.95560  Biso   1.000  H
  C2       1.0000 0.39750  0.99430  0.88310  Biso   1.000  C
  H2       1.0000 0.38980  0.06020  0.88030  Biso   1.000  H
  C3       1.0000 0.40430  0.94920  0.84290  Biso   1.000  C
  C4       1.0000 0.41690  0.85430  0.85090  Biso   1.000  C
  H3       1.0000 0.42530  0.81980  0.82580  Biso   1.000  H
  C5       1.0000 0.41770  0.80660  0.89620  Biso   1.000  C
  H4       1.0000 0.42480  0.74060  0.89980  Biso   1.000  H
  C6       1.0000 0.39560  0.00100  0.79020  Biso   1.000  C
  C7       1.0000 0.39810  0.09730  0.78800  Biso   1.000  C
  H5       1.0000 0.40770  0.13320  0.82060  Biso   1.000  H
  C8       1.0000 0.38650  0.14450  0.73740  Biso   1.000  C
  C9       1.0000 0.37880  0.08910  0.69290  Biso   1.000  C
  H6       1.0000 0.37230  0.11810  0.65930  Biso   1.000  H
  C10      1.0000 0.37270  0.93140  0.64910  Biso   1.000  C
  C11      1.0000 0.36910  0.97220  0.60060  Biso   1.000  C
  H7       1.0000 0.36580  0.03830  0.59580  Biso   1.000  H
  C12      1.0000 0.37030  0.91530  0.55950  Biso   1.000  C
  H8       1.0000 0.36630  0.94470  0.52700  Biso   1.000  H
  C13      1.0000 0.37510  0.83350  0.65100  Biso   1.000  C
  H9       1.0000 0.37380  0.80150  0.68040  Biso   1.000  H
  C14      1.0000 0.37960  0.78170  0.60960  Biso   1.000  C
  H10      1.0000 0.38480  0.71560  0.61390  Biso   1.000  H
  C15      1.0000 0.38480  0.24970  0.73170  Biso   1.000  C
  C16      1.0000 0.38060  0.31030  0.77130  Biso   1.000  C
  H11      1.0000 0.37990  0.28440  0.80250  Biso   1.000  H
  C17      1.0000 0.37780  0.40790  0.76370  Biso   1.000  C
  H12      1.0000 0.37670  0.44620  0.79120  Biso   1.000  H
  C18      1.0000 0.38180  0.39580  0.68430  Biso   1.000  C
  H13      1.0000 0.38380  0.42470  0.65430  Biso   1.000  H
  C19      1.0000 0.38510  0.29710  0.68710  Biso   1.000  C
  H14      1.0000 0.38750  0.26250  0.65900  Biso   1.000  H
  C20      1.0000 0.57820  0.68670  0.07760  Biso   1.000  C
  C21      1.0000 0.67210  0.63170  0.12100  Biso   1.000  C
  C22      1.0000 0.75430  0.67580  0.17370  Biso   1.000  C
  H15      1.0000 0.75250  0.74000  0.18160  Biso   1.000  H
  C23      1.0000 0.83910  0.62690  0.21490  Biso   1.000  C
  C24      1.0000 0.84210  0.53330  0.20070  Biso   1.000  C
  H16      1.0000 0.89910  0.49980  0.22810  Biso   1.000  H
  C25      1.0000 0.76250  0.48810  0.14680  Biso   1.000  C
  C26      1.0000 0.67660  0.53820  0.10660  Biso   1.000  C
  H17      1.0000 0.62220  0.50860  0.07000  Biso   1.000  H
  C27      1.0000 0.93080  0.67420  0.27120  Biso   1.000  C
  C28      1.0000 0.76940  0.38780  0.13070  Biso   1.000  C
  C29      1.0000 0.12240  0.71710  0.97910  Biso   1.000  C
  H18      1.0000 0.12570  0.78300  0.98440  Biso   1.000  H
  C30      1.0000 0.12620  0.66220  0.02200  Biso   1.000  C
  H19      1.0000 0.13240  0.69110  0.05550  Biso   1.000  H
  C31      1.0000 0.12070  0.56450  0.01630  Biso   1.000  C
  C32      1.0000 0.10950  0.52800  0.96370  Biso   1.000  C
  H20      1.0000 0.10330  0.46250  0.95640  Biso   1.000  H
  C33      1.0000 0.10740  0.58850  0.92190  Biso   1.000  C
  H21      1.0000 0.10100  0.56180  0.88780  Biso   1.000  H
  C34      1.0000 0.12380  0.50690  0.06250  Biso   1.000  C
  C35      1.0000 0.13010  0.54550  0.10980  Biso   1.000  C
  H22      1.0000 0.13290  0.61160  0.11440  Biso   1.000  H
  C36      1.0000 0.13250  0.48960  0.15120  Biso   1.000  C
  C37      1.0000 0.13090  0.39310  0.14790  Biso   1.000  C
  H23      1.0000 0.13370  0.35650  0.17770  Biso   1.000  H
  C38      1.0000 0.12510  0.35000  0.10010  Biso   1.000  C
  C39      1.0000 0.13700  0.53900  0.20180  Biso   1.000  C
  C40      1.0000 0.16250  0.63470  0.21830  Biso   1.000  C
  H24      1.0000 0.17910  0.66990  0.19810  Biso   1.000  H
  C41      1.0000 0.16330  0.67780  0.26450  Biso   1.000  C
  H25      1.0000 0.18470  0.74060  0.27580  Biso   1.000  H
  C42      1.0000 0.11440  0.54550  0.27920  Biso   1.000  C
  H26      1.0000 0.09740  0.51270  0.30000  Biso   1.000  H
  C43      1.0000 0.11500  0.49500  0.23580  Biso   1.000  C
  H27      1.0000 0.10040  0.43020  0.22940  Biso   1.000  H
  C44      1.0000 0.11970  0.24260  0.09310  Biso   1.000  C
  C45      1.0000 0.13860  0.18560  0.14230  Biso   1.000  C
  H28      1.0000 0.15340  0.21360  0.17900  Biso   1.000  H
  C46      1.0000 0.13520  0.08670  0.13660  Biso   1.000  C
  H29      1.0000 0.14790  0.04850  0.16950  Biso   1.000  H
  N1       1.0000 0.11300  0.04480  0.08160  Biso   1.000  N
  C47      1.0000 0.09410  0.10180  0.03240  Biso   1.000  C
  H30      1.0000 0.07930  0.07380  0.99560  Biso   1.000  H
  C48      1.0000 0.09750  0.20080  0.03810  Biso   1.000  C
  H31      1.0000 0.08480  0.23890  0.00520  Biso   1.000  H
  C49      1.0000 0.38050  0.99470  0.69660  Biso   1.000  C
  Cd1      1.0000 0.39886  0.76300  0.00104  Biso   1.000  Cd
  Cd2      1.0000 0.11916  0.77715  0.86077  Biso   1.000  Cd
  N2       1.0000 0.40870  0.85160  0.93360  Biso   1.000  N
  N3       1.0000 0.37680  0.82210  0.56420  Biso   1.000  N
  N4       1.0000 0.11430  0.68220  0.92900  Biso   1.000  N
  N5       1.0000 0.13620  0.63700  0.29350  Biso   1.000  N
  N6       1.0000 0.37640  0.45060  0.71930  Biso   1.000  N
  N7       1.0000 0.38640  0.94720  0.74370  Biso   1.000  N
  N8       1.0000 0.12170  0.40770  0.05650  Biso   1.000  N
  O1       1.0000 0.50930  0.64500  0.02700  Biso   1.000  O
  O2       1.0000 0.57290  0.76820  0.09350  Biso   1.000  O
  O3       1.0000 0.85060  0.35180  0.16870  Biso   1.000  O
  O4       1.0000 0.69800  0.34850  0.08190  Biso   1.000  O
  O5       1.0000 0.94020  0.76170  0.27210  Biso   1.000  O
  O6       1.0000 0.99700  0.62060  0.31630  Biso   1.000  O
  C50      1.0000 0.59850  0.44540  0.57250  Biso   1.000  C
  H32      1.0000 0.60100  0.47980  0.54440  Biso   1.000  H
  C51      1.0000 0.60250  0.49430  0.61690  Biso   1.000  C
  H33      1.0000 0.61020  0.56020  0.61970  Biso   1.000  H
  C52      1.0000 0.59570  0.44920  0.65710  Biso   1.000  C
  C53      1.0000 0.58310  0.35430  0.64910  Biso   1.000  C
  H34      1.0000 0.57470  0.31980  0.67420  Biso   1.000  H
  C54      1.0000 0.58230  0.30660  0.60380  Biso   1.000  C
  H35      1.0000 0.57520  0.24060  0.60020  Biso   1.000  H
  C55      1.0000 0.60440  0.50100  0.70980  Biso   1.000  C
  C56      1.0000 0.60190  0.59730  0.71200  Biso   1.000  C
  H36      1.0000 0.59230  0.63320  0.67940  Biso   1.000  H
  C57      1.0000 0.61350  0.64450  0.76260  Biso   1.000  C
  C58      1.0000 0.62120  0.58910  0.80710  Biso   1.000  C
  H37      1.0000 0.62770  0.61810  0.84070  Biso   1.000  H
  C59      1.0000 0.62730  0.43140  0.85090  Biso   1.000  C
  C60      1.0000 0.63090  0.47220  0.89940  Biso   1.000  C
  H38      1.0000 0.63420  0.53830  0.90420  Biso   1.000  H
  C61      1.0000 0.62970  0.41530  0.94050  Biso   1.000  C
  H39      1.0000 0.63370  0.44470  0.97300  Biso   1.000  H
  C62      1.0000 0.62490  0.33350  0.84900  Biso   1.000  C
  H40      1.0000 0.62620  0.30150  0.81960  Biso   1.000  H
  C63      1.0000 0.62040  0.28170  0.89040  Biso   1.000  C
  H41      1.0000 0.61520  0.21560  0.88610  Biso   1.000  H
  C64      1.0000 0.61520  0.74970  0.76830  Biso   1.000  C
  C65      1.0000 0.61940  0.81030  0.72870  Biso   1.000  C
  H42      1.0000 0.62010  0.78440  0.69750  Biso   1.000  H
  C66      1.0000 0.62220  0.90790  0.73630  Biso   1.000  C
  H43      1.0000 0.62330  0.94620  0.70880  Biso   1.000  H
  C67      1.0000 0.61820  0.89580  0.81570  Biso   1.000  C
  H44      1.0000 0.61620  0.92470  0.84570  Biso   1.000  H
  C68      1.0000 0.61490  0.79710  0.81290  Biso   1.000  C
  H45      1.0000 0.61250  0.76250  0.84100  Biso   1.000  H
  C69      1.0000 0.42180  0.18670  0.42240  Biso   1.000  C
  C70      1.0000 0.32790  0.13170  0.37900  Biso   1.000  C
  C71      1.0000 0.24570  0.17580  0.32630  Biso   1.000  C
  H46      1.0000 0.24750  0.24000  0.31840  Biso   1.000  H
  C72      1.0000 0.16090  0.12690  0.28510  Biso   1.000  C
  C73      1.0000 0.15790  0.03330  0.29930  Biso   1.000  C
  H47      1.0000 0.10090  0.99980  0.27190  Biso   1.000  H
  C74      1.0000 0.23750  0.98810  0.35320  Biso   1.000  C
  C75      1.0000 0.32340  0.03820  0.39340  Biso   1.000  C
  H48      1.0000 0.37780  0.00860  0.43000  Biso   1.000  H
  C76      1.0000 0.06920  0.17420  0.22880  Biso   1.000  C
  C77      1.0000 0.23060  0.88780  0.36930  Biso   1.000  C
  C78      1.0000 0.87760  0.21710  0.52090  Biso   1.000  C
  H49      1.0000 0.87430  0.28300  0.51560  Biso   1.000  H
  C79      1.0000 0.87380  0.16220  0.47800  Biso   1.000  C
  H50      1.0000 0.86760  0.19110  0.44450  Biso   1.000  H
  C80      1.0000 0.87930  0.06450  0.48370  Biso   1.000  C
  C81      1.0000 0.89050  0.02800  0.53630  Biso   1.000  C
  H51      1.0000 0.89670  0.96250  0.54360  Biso   1.000  H
  C82      1.0000 0.89260  0.08850  0.57810  Biso   1.000  C
  H52      1.0000 0.89900  0.06180  0.61220  Biso   1.000  H
  C83      1.0000 0.87620  0.00690  0.43750  Biso   1.000  C
  C84      1.0000 0.86990  0.04550  0.39020  Biso   1.000  C
  H53      1.0000 0.86710  0.11160  0.38560  Biso   1.000  H
  C85      1.0000 0.86750  0.98960  0.34880  Biso   1.000  C
  C86      1.0000 0.86910  0.89310  0.35210  Biso   1.000  C
  H54      1.0000 0.86630  0.85650  0.32230  Biso   1.000  H
  C87      1.0000 0.87490  0.85000  0.39990  Biso   1.000  C
  C88      1.0000 0.86300  0.03900  0.29820  Biso   1.000  C
  C89      1.0000 0.83750  0.13470  0.28170  Biso   1.000  C
  H55      1.0000 0.82090  0.16990  0.30190  Biso   1.000  H
  C90      1.0000 0.83670  0.17780  0.23550  Biso   1.000  C
  H56      1.0000 0.81530  0.24060  0.22420  Biso   1.000  H
  C91      1.0000 0.88560  0.04550  0.22080  Biso   1.000  C
  H57      1.0000 0.90260  0.01270  0.20000  Biso   1.000  H
  C92      1.0000 0.88500  0.99500  0.26420  Biso   1.000  C
  H58      1.0000 0.89960  0.93020  0.27060  Biso   1.000  H
  C93      1.0000 0.88030  0.74260  0.40690  Biso   1.000  C
  C94      1.0000 0.86140  0.68560  0.35770  Biso   1.000  C
  H59      1.0000 0.84660  0.71360  0.32100  Biso   1.000  H
  C95      1.0000 0.86480  0.58670  0.36340  Biso   1.000  C
  H60      1.0000 0.85210  0.54850  0.33050  Biso   1.000  H
  N9       1.0000 0.88700  0.54480  0.41840  Biso   1.000  N
  C96      1.0000 0.90590  0.60180  0.46760  Biso   1.000  C
  H61      1.0000 0.92070  0.57380  0.50440  Biso   1.000  H
  C97      1.0000 0.90250  0.70080  0.46190  Biso   1.000  C
  H62      1.0000 0.91520  0.73890  0.49480  Biso   1.000  H
  C98      1.0000 0.61950  0.49470  0.80340  Biso   1.000  C
  Cd3      1.0000 0.60114  0.26300  0.49896  Biso   1.000  Cd
  Cd4      1.0000 0.88084  0.27715  0.63923  Biso   1.000  Cd
  N10      1.0000 0.59130  0.35160  0.56640  Biso   1.000  N
  N11      1.0000 0.62320  0.32210  0.93580  Biso   1.000  N
  N12      1.0000 0.88570  0.18220  0.57100  Biso   1.000  N
  N13      1.0000 0.86380  0.13700  0.20650  Biso   1.000  N
  N14      1.0000 0.62360  0.95060  0.78070  Biso   1.000  N
  N15      1.0000 0.61360  0.44720  0.75630  Biso   1.000  N
  N16      1.0000 0.87830  0.90770  0.44350  Biso   1.000  N
  O7       1.0000 0.49070  0.14500  0.47300  Biso   1.000  O
  O8       1.0000 0.42710  0.26820  0.40650  Biso   1.000  O
  O9       1.0000 0.14940  0.85180  0.33130  Biso   1.000  O
  O10      1.0000 0.30200  0.84850  0.41810  Biso   1.000  O
  O11      1.0000 0.05980  0.26170  0.22790  Biso   1.000  O
  O12      1.0000 0.00300  0.12060  0.18370  Biso   1.000  O
  C99      1.0000 0.59850  0.05460  0.07250  Biso   1.000  C
  H63      1.0000 0.60100  0.02020  0.04440  Biso   1.000  H
  C100     1.0000 0.60250  0.00570  0.11690  Biso   1.000  C
  H64      1.0000 0.61020  0.93980  0.11970  Biso   1.000  H
  C101     1.0000 0.59570  0.05080  0.15710  Biso   1.000  C
  C102     1.0000 0.58310  0.14570  0.14910  Biso   1.000  C
  H65      1.0000 0.57470  0.18020  0.17420  Biso   1.000  H
  C103     1.0000 0.58230  0.19340  0.10380  Biso   1.000  C
  H66      1.0000 0.57520  0.25940  0.10020  Biso   1.000  H
  C104     1.0000 0.60440  0.99900  0.20980  Biso   1.000  C
  C105     1.0000 0.60190  0.90270  0.21200  Biso   1.000  C
  H67      1.0000 0.59230  0.86680  0.17940  Biso   1.000  H
  C106     1.0000 0.61350  0.85550  0.26260  Biso   1.000  C
  C107     1.0000 0.62120  0.91090  0.30710  Biso   1.000  C
  H68      1.0000 0.62770  0.88190  0.34070  Biso   1.000  H
  C108     1.0000 0.62730  0.06860  0.35090  Biso   1.000  C
  C109     1.0000 0.63090  0.02780  0.39940  Biso   1.000  C
  H69      1.0000 0.63420  0.96170  0.40420  Biso   1.000  H
  C110     1.0000 0.62970  0.08470  0.44050  Biso   1.000  C
  H70      1.0000 0.63370  0.05530  0.47300  Biso   1.000  H
  C111     1.0000 0.62490  0.16650  0.34900  Biso   1.000  C
  H71      1.0000 0.62620  0.19850  0.31960  Biso   1.000  H
  C112     1.0000 0.62040  0.21830  0.39040  Biso   1.000  C
  H72      1.0000 0.61520  0.28440  0.38610  Biso   1.000  H
  C113     1.0000 0.61520  0.75030  0.26830  Biso   1.000  C
  C114     1.0000 0.61940  0.68970  0.22870  Biso   1.000  C
  H73      1.0000 0.62010  0.71560  0.19750  Biso   1.000  H
  C115     1.0000 0.62220  0.59210  0.23630  Biso   1.000  C
  H74      1.0000 0.62330  0.55380  0.20880  Biso   1.000  H
  C116     1.0000 0.61820  0.60420  0.31570  Biso   1.000  C
  H75      1.0000 0.61620  0.57530  0.34570  Biso   1.000  H
  C117     1.0000 0.61490  0.70290  0.31290  Biso   1.000  C
  H76      1.0000 0.61250  0.73750  0.34100  Biso   1.000  H
  C118     1.0000 0.42180  0.31330  0.92240  Biso   1.000  C
  C119     1.0000 0.32790  0.36830  0.87900  Biso   1.000  C
  C120     1.0000 0.24570  0.32420  0.82630  Biso   1.000  C
  H77      1.0000 0.24750  0.26000  0.81840  Biso   1.000  H
  C121     1.0000 0.16090  0.37310  0.78510  Biso   1.000  C
  C122     1.0000 0.15790  0.46670  0.79930  Biso   1.000  C
  H78      1.0000 0.10090  0.50020  0.77190  Biso   1.000  H
  C123     1.0000 0.23750  0.51190  0.85320  Biso   1.000  C
  C124     1.0000 0.32340  0.46180  0.89340  Biso   1.000  C
  H79      1.0000 0.37780  0.49140  0.93000  Biso   1.000  H
  C125     1.0000 0.06920  0.32580  0.72880  Biso   1.000  C
  C126     1.0000 0.23060  0.61220  0.86930  Biso   1.000  C
  C127     1.0000 0.87760  0.28290  0.02090  Biso   1.000  C
  H80      1.0000 0.87430  0.21700  0.01560  Biso   1.000  H
  C128     1.0000 0.87380  0.33780  0.97800  Biso   1.000  C
  H81      1.0000 0.86760  0.30890  0.94450  Biso   1.000  H
  C129     1.0000 0.87930  0.43550  0.98370  Biso   1.000  C
  C130     1.0000 0.89050  0.47200  0.03630  Biso   1.000  C
  H82      1.0000 0.89670  0.53750  0.04360  Biso   1.000  H
  C131     1.0000 0.89260  0.41150  0.07810  Biso   1.000  C
  H83      1.0000 0.89900  0.43820  0.11220  Biso   1.000  H
  C132     1.0000 0.87620  0.49310  0.93750  Biso   1.000  C
  C133     1.0000 0.86990  0.45450  0.89020  Biso   1.000  C
  H84      1.0000 0.86710  0.38840  0.88560  Biso   1.000  H
  C134     1.0000 0.86750  0.51040  0.84880  Biso   1.000  C
  C135     1.0000 0.86910  0.60690  0.85210  Biso   1.000  C
  H85      1.0000 0.86630  0.64350  0.82230  Biso   1.000  H
  C136     1.0000 0.87490  0.65000  0.89990  Biso   1.000  C
  C137     1.0000 0.86300  0.46100  0.79820  Biso   1.000  C
  C138     1.0000 0.83750  0.36530  0.78170  Biso   1.000  C
  H86      1.0000 0.82090  0.33010  0.80190  Biso   1.000  H
  C139     1.0000 0.83670  0.32220  0.73550  Biso   1.000  C
  H87      1.0000 0.81530  0.25940  0.72420  Biso   1.000  H
  C140     1.0000 0.88560  0.45450  0.72080  Biso   1.000  C
  H88      1.0000 0.90260  0.48730  0.70000  Biso   1.000  H
  C141     1.0000 0.88500  0.50500  0.76420  Biso   1.000  C
  H89      1.0000 0.89960  0.56980  0.77060  Biso   1.000  H
  C142     1.0000 0.88030  0.75740  0.90690  Biso   1.000  C
  C143     1.0000 0.86140  0.81440  0.85770  Biso   1.000  C
  H90      1.0000 0.84660  0.78640  0.82100  Biso   1.000  H
  C144     1.0000 0.86480  0.91330  0.86340  Biso   1.000  C
  H91      1.0000 0.85210  0.95150  0.83050  Biso   1.000  H
  N17      1.0000 0.88700  0.95520  0.91840  Biso   1.000  N
  C145     1.0000 0.90590  0.89820  0.96760  Biso   1.000  C
  H92      1.0000 0.92070  0.92620  0.00440  Biso   1.000  H
  C146     1.0000 0.90250  0.79920  0.96190  Biso   1.000  C
  H93      1.0000 0.91520  0.76110  0.99480  Biso   1.000  H
  C147     1.0000 0.61950  0.00530  0.30340  Biso   1.000  C
  Cd5      1.0000 0.60114  0.23700  0.99896  Biso   1.000  Cd
  Cd6      1.0000 0.88084  0.22285  0.13923  Biso   1.000  Cd
  N18      1.0000 0.59130  0.14840  0.06640  Biso   1.000  N
  N19      1.0000 0.62320  0.17790  0.43580  Biso   1.000  N
  N20      1.0000 0.88570  0.31780  0.07100  Biso   1.000  N
  N21      1.0000 0.86380  0.36300  0.70650  Biso   1.000  N
  N22      1.0000 0.62360  0.54940  0.28070  Biso   1.000  N
  N23      1.0000 0.61360  0.05280  0.25630  Biso   1.000  N
  N24      1.0000 0.87830  0.59230  0.94350  Biso   1.000  N
  O13      1.0000 0.49070  0.35500  0.97300  Biso   1.000  O
  O14      1.0000 0.42710  0.23180  0.90650  Biso   1.000  O
  O15      1.0000 0.14940  0.64820  0.83130  Biso   1.000  O
  O16      1.0000 0.30200  0.65150  0.91810  Biso   1.000  O
  O17      1.0000 0.05980  0.23830  0.72790  Biso   1.000  O
  O18      1.0000 0.00300  0.37940  0.68370  Biso   1.000  O
  C148     1.0000 0.40150  0.55460  0.42750  Biso   1.000  C
  H94      1.0000 0.39900  0.52020  0.45560  Biso   1.000  H
  C149     1.0000 0.39750  0.50570  0.38310  Biso   1.000  C
  H95      1.0000 0.38980  0.43980  0.38030  Biso   1.000  H
  C150     1.0000 0.40430  0.55080  0.34290  Biso   1.000  C
  C151     1.0000 0.41690  0.64570  0.35090  Biso   1.000  C
  H96      1.0000 0.42530  0.68020  0.32580  Biso   1.000  H
  C152     1.0000 0.41770  0.69340  0.39620  Biso   1.000  C
  H97      1.0000 0.42480  0.75940  0.39980  Biso   1.000  H
  C153     1.0000 0.39560  0.49900  0.29020  Biso   1.000  C
  C154     1.0000 0.39810  0.40270  0.28800  Biso   1.000  C
  H98      1.0000 0.40770  0.36680  0.32060  Biso   1.000  H
  C155     1.0000 0.38650  0.35550  0.23740  Biso   1.000  C
  C156     1.0000 0.37880  0.41090  0.19290  Biso   1.000  C
  H99      1.0000 0.37230  0.38190  0.15930  Biso   1.000  H
  C157     1.0000 0.37270  0.56860  0.14910  Biso   1.000  C
  C158     1.0000 0.36910  0.52780  0.10060  Biso   1.000  C
  H100     1.0000 0.36580  0.46170  0.09580  Biso   1.000  H
  C159     1.0000 0.37030  0.58470  0.05950  Biso   1.000  C
  H101     1.0000 0.36630  0.55530  0.02700  Biso   1.000  H
  C160     1.0000 0.37510  0.66650  0.15100  Biso   1.000  C
  H102     1.0000 0.37380  0.69850  0.18040  Biso   1.000  H
  C161     1.0000 0.37960  0.71830  0.10960  Biso   1.000  C
  H103     1.0000 0.38480  0.78440  0.11390  Biso   1.000  H
  C162     1.0000 0.38480  0.25030  0.23170  Biso   1.000  C
  C163     1.0000 0.38060  0.18970  0.27130  Biso   1.000  C
  H104     1.0000 0.37990  0.21560  0.30250  Biso   1.000  H
  C164     1.0000 0.37780  0.09210  0.26370  Biso   1.000  C
  H105     1.0000 0.37670  0.05380  0.29120  Biso   1.000  H
  C165     1.0000 0.38180  0.10420  0.18430  Biso   1.000  C
  H106     1.0000 0.38380  0.07530  0.15430  Biso   1.000  H
  C166     1.0000 0.38510  0.20290  0.18710  Biso   1.000  C
  H107     1.0000 0.38750  0.23750  0.15900  Biso   1.000  H
  C167     1.0000 0.57820  0.81330  0.57760  Biso   1.000  C
  C168     1.0000 0.67210  0.86830  0.62100  Biso   1.000  C
  C169     1.0000 0.75430  0.82420  0.67370  Biso   1.000  C
  H108     1.0000 0.75250  0.76000  0.68160  Biso   1.000  H
  C170     1.0000 0.83910  0.87310  0.71490  Biso   1.000  C
  C171     1.0000 0.84210  0.96670  0.70070  Biso   1.000  C
  H109     1.0000 0.89910  0.00020  0.72810  Biso   1.000  H
  C172     1.0000 0.76250  0.01190  0.64680  Biso   1.000  C
  C173     1.0000 0.67660  0.96180  0.60660  Biso   1.000  C
  H110     1.0000 0.62220  0.99140  0.57000  Biso   1.000  H
  C174     1.0000 0.93080  0.82580  0.77120  Biso   1.000  C
  C175     1.0000 0.76940  0.11220  0.63070  Biso   1.000  C
  C176     1.0000 0.12240  0.78290  0.47910  Biso   1.000  C
  H111     1.0000 0.12570  0.71700  0.48440  Biso   1.000  H
  C177     1.0000 0.12620  0.83780  0.52200  Biso   1.000  C
  H112     1.0000 0.13240  0.80890  0.55550  Biso   1.000  H
  C178     1.0000 0.12070  0.93550  0.51630  Biso   1.000  C
  C179     1.0000 0.10950  0.97200  0.46370  Biso   1.000  C
  H113     1.0000 0.10330  0.03750  0.45640  Biso   1.000  H
  C180     1.0000 0.10740  0.91150  0.42190  Biso   1.000  C
  H114     1.0000 0.10100  0.93820  0.38780  Biso   1.000  H
  C181     1.0000 0.12380  0.99310  0.56250  Biso   1.000  C
  C182     1.0000 0.13010  0.95450  0.60980  Biso   1.000  C
  H115     1.0000 0.13290  0.88840  0.61440  Biso   1.000  H
  C183     1.0000 0.13250  0.01040  0.65120  Biso   1.000  C
  C184     1.0000 0.13090  0.10690  0.64790  Biso   1.000  C
  H116     1.0000 0.13370  0.14350  0.67770  Biso   1.000  H
  C185     1.0000 0.12510  0.15000  0.60010  Biso   1.000  C
  C186     1.0000 0.13700  0.96100  0.70180  Biso   1.000  C
  C187     1.0000 0.16250  0.86530  0.71830  Biso   1.000  C
  H117     1.0000 0.17910  0.83010  0.69810  Biso   1.000  H
  C188     1.0000 0.16330  0.82220  0.76450  Biso   1.000  C
  H118     1.0000 0.18470  0.75940  0.77580  Biso   1.000  H
  C189     1.0000 0.11440  0.95450  0.77920  Biso   1.000  C
  H119     1.0000 0.09740  0.98730  0.80000  Biso   1.000  H
  C190     1.0000 0.11500  0.00500  0.73580  Biso   1.000  C
  H120     1.0000 0.10040  0.06980  0.72940  Biso   1.000  H
  C191     1.0000 0.11970  0.25740  0.59310  Biso   1.000  C
  C192     1.0000 0.13860  0.31440  0.64230  Biso   1.000  C
  H121     1.0000 0.15340  0.28640  0.67900  Biso   1.000  H
  C193     1.0000 0.13520  0.41330  0.63660  Biso   1.000  C
  H122     1.0000 0.14790  0.45150  0.66950  Biso   1.000  H
  N25      1.0000 0.11300  0.45520  0.58160  Biso   1.000  N
  C194     1.0000 0.09410  0.39820  0.53240  Biso   1.000  C
  H123     1.0000 0.07930  0.42620  0.49560  Biso   1.000  H
  C195     1.0000 0.09750  0.29920  0.53810  Biso   1.000  C
  H124     1.0000 0.08480  0.26110  0.50520  Biso   1.000  H
  C196     1.0000 0.38050  0.50530  0.19660  Biso   1.000  C
  Cd7      1.0000 0.39886  0.73700  0.50104  Biso   1.000  Cd
  Cd8      1.0000 0.11916  0.72285  0.36077  Biso   1.000  Cd
  N26      1.0000 0.40870  0.64840  0.43360  Biso   1.000  N
  N27      1.0000 0.37680  0.67790  0.06420  Biso   1.000  N
  N28      1.0000 0.11430  0.81780  0.42900  Biso   1.000  N
  N29      1.0000 0.13620  0.86300  0.79350  Biso   1.000  N
  N30      1.0000 0.37640  0.04940  0.21930  Biso   1.000  N
  N31      1.0000 0.38640  0.55280  0.24370  Biso   1.000  N
  N32      1.0000 0.12170  0.09230  0.55650  Biso   1.000  N
  O19      1.0000 0.50930  0.85500  0.52700  Biso   1.000  O
  O20      1.0000 0.57290  0.73180  0.59350  Biso   1.000  O
  O21      1.0000 0.85060  0.14820  0.66870  Biso   1.000  O
  O22      1.0000 0.69800  0.15150  0.58190  Biso   1.000  O
  O23      1.0000 0.94020  0.73830  0.77210  Biso   1.000  O
  O24      1.0000 0.99700  0.87940  0.81630  Biso   1.000  O
