data_image0
_cell_length_a       9.8792
_cell_length_b       12.0798
_cell_length_c       12.2591
_cell_angle_alpha    109.808
_cell_angle_beta     100.045
_cell_angle_gamma    102.515

_symmetry_space_group_name_H-M    "P 1"
_symmetry_int_tables_number       1

loop_
  _symmetry_equiv_pos_as_xyz
  'x, y, z'

loop_
  _atom_site_label
  _atom_site_occupancy
  _atom_site_fract_x
  _atom_site_fract_y
  _atom_site_fract_z
  _atom_site_thermal_displace_type
  _atom_site_B_iso_or_equiv
  _atom_site_type_symbol
  U1       1.0000 0.89620  0.17411  0.52161  Biso   1.000  U
  U2       1.0000 0.13682  0.33724  0.98842  Biso   1.000  U
  P1       1.0000 0.74280  0.33790  0.36620  Biso   1.000  P
  P2       1.0000 0.01710  0.54250  0.20850  Biso   1.000  P
  P3       1.0000 0.03550  0.04740  0.72830  Biso   1.000  P
  P4       1.0000 0.72280  0.75850  0.77940  Biso   1.000  P
  O1       1.0000 0.64660  0.23060  0.25110  Biso   1.000  O
  H1       1.0000 0.56220  0.22900  0.24570  Biso   1.000  H
  O2       1.0000 0.65860  0.38720  0.45250  Biso   1.000  O
  O3       1.0000 0.86250  0.29650  0.42160  Biso   1.000  O
  O4       1.0000 0.12890  0.50560  0.14290  Biso   1.000  O
  O5       1.0000 0.88730  0.54880  0.12440  Biso   1.000  O
  O6       1.0000 0.09370  0.66730  0.30910  Biso   1.000  O
  O7       1.0000 0.13310  0.16960  0.82590  Biso   1.000  O
  O8       1.0000 0.92140  0.06550  0.63960  Biso   1.000  O
  O9       1.0000 0.13270  0.98050  0.66390  Biso   1.000  O
  O10      1.0000 0.62040  0.83080  0.82260  Biso   1.000  O
  O11      1.0000 0.64360  0.62800  0.68860  Biso   1.000  O
  O12      1.0000 0.82810  0.75860  0.88650  Biso   1.000  O
  C1       1.0000 0.82950  0.45670  0.32560  Biso   1.000  C
  H2       1.0000 0.75740  0.47080  0.27140  Biso   1.000  H
  H3       1.0000 0.87030  0.53200  0.39750  Biso   1.000  H
  C2       1.0000 0.94980  0.43140  0.26460  Biso   1.000  C
  H4       1.0000 0.91280  0.35100  0.19870  Biso   1.000  H
  H5       1.0000 0.02850  0.42880  0.32250  Biso   1.000  H
  C3       1.0000 0.94340  0.95580  0.79890  Biso   1.000  C
  H6       1.0000 0.01420  0.93670  0.84930  Biso   1.000  H
  H7       1.0000 0.89580  0.00450  0.85070  Biso   1.000  H
  C4       1.0000 0.83390  0.83770  0.71070  Biso   1.000  C
  H8       1.0000 0.88350  0.78350  0.66780  Biso   1.000  H
  H9       1.0000 0.77250  0.85570  0.65210  Biso   1.000  H
  U3       1.0000 0.10380  0.82589  0.47839  Biso   1.000  U
  U4       1.0000 0.86318  0.66276  0.01158  Biso   1.000  U
  P5       1.0000 0.25720  0.66210  0.63380  Biso   1.000  P
  P6       1.0000 0.98290  0.45750  0.79150  Biso   1.000  P
  P7       1.0000 0.96450  0.95260  0.27170  Biso   1.000  P
  P8       1.0000 0.27720  0.24150  0.22060  Biso   1.000  P
  O13      1.0000 0.35340  0.76940  0.74890  Biso   1.000  O
  H10      1.0000 0.43780  0.77100  0.75430  Biso   1.000  H
  O14      1.0000 0.34140  0.61280  0.54750  Biso   1.000  O
  O15      1.0000 0.13750  0.70350  0.57840  Biso   1.000  O
  O16      1.0000 0.87110  0.49440  0.85710  Biso   1.000  O
  O17      1.0000 0.11270  0.45120  0.87560  Biso   1.000  O
  O18      1.0000 0.90630  0.33270  0.69090  Biso   1.000  O
  O19      1.0000 0.86690  0.83040  0.17410  Biso   1.000  O
  O20      1.0000 0.07860  0.93450  0.36040  Biso   1.000  O
  O21      1.0000 0.86730  0.01950  0.33610  Biso   1.000  O
  O22      1.0000 0.37960  0.16920  0.17740  Biso   1.000  O
  O23      1.0000 0.35640  0.37200  0.31140  Biso   1.000  O
  O24      1.0000 0.17190  0.24140  0.11350  Biso   1.000  O
  C5       1.0000 0.17050  0.54330  0.67440  Biso   1.000  C
  H11      1.0000 0.24260  0.52920  0.72860  Biso   1.000  H
  H12      1.0000 0.12970  0.46800  0.60250  Biso   1.000  H
  C6       1.0000 0.05020  0.56860  0.73540  Biso   1.000  C
  H13      1.0000 0.08720  0.64900  0.80130  Biso   1.000  H
  H14      1.0000 0.97150  0.57120  0.67750  Biso   1.000  H
  C7       1.0000 0.05660  0.04420  0.20110  Biso   1.000  C
  H15      1.0000 0.98580  0.06330  0.15070  Biso   1.000  H
  H16      1.0000 0.10420  0.99550  0.14930  Biso   1.000  H
  C8       1.0000 0.16610  0.16230  0.28930  Biso   1.000  C
  H17      1.0000 0.11650  0.21650  0.33220  Biso   1.000  H
  H18      1.0000 0.22750  0.14430  0.34790  Biso   1.000  H
  U5       1.0000 0.50000  0.50000  0.50000  Biso   1.000  U
