data_image0
_cell_length_a       16.2387
_cell_length_b       18.6701
_cell_length_c       21.6565
_cell_angle_alpha    90
_cell_angle_beta     106.138
_cell_angle_gamma    90

_symmetry_space_group_name_H-M    "P 1"
_symmetry_int_tables_number       1

loop_
  _symmetry_equiv_pos_as_xyz
  'x, y, z'

loop_
  _atom_site_label
  _atom_site_occupancy
  _atom_site_fract_x
  _atom_site_fract_y
  _atom_site_fract_z
  _atom_site_thermal_displace_type
  _atom_site_B_iso_or_equiv
  _atom_site_type_symbol
  C1       1.0000 0.59780  0.06670  0.27381  Biso   1.000  C
  C2       1.0000 0.68100  0.09390  0.31488  Biso   1.000  C
  C3       1.0000 0.75690  0.06180  0.31252  Biso   1.000  C
  H1       1.0000 0.75490  0.02100  0.28760  Biso   1.000  H
  C4       1.0000 0.83480  0.08890  0.34621  Biso   1.000  C
  H2       1.0000 0.88480  0.06590  0.34410  Biso   1.000  H
  C5       1.0000 0.84040  0.15031  0.38344  Biso   1.000  C
  C6       1.0000 0.76480  0.18052  0.38850  Biso   1.000  C
  H3       1.0000 0.76670  0.21990  0.41510  Biso   1.000  H
  C7       1.0000 0.68660  0.15270  0.35436  Biso   1.000  C
  H4       1.0000 0.63650  0.17420  0.35810  Biso   1.000  H
  C8       1.0000 0.99110  0.16910  0.38692  Biso   1.000  C
  C9       1.0000 0.98310  0.18410  0.32403  Biso   1.000  C
  H5       1.0000 0.93190  0.20270  0.29830  Biso   1.000  H
  C10      1.0000 0.05070  0.17200  0.29840  Biso   1.000  C
  H6       1.0000 0.04390  0.18180  0.25520  Biso   1.000  H
  C11      1.0000 0.12750  0.14590  0.33511  Biso   1.000  C
  C12      1.0000 0.13540  0.13520  0.39898  Biso   1.000  C
  H7       1.0000 0.18790  0.12040  0.42580  Biso   1.000  H
  C13      1.0000 0.06840  0.14550  0.42424  Biso   1.000  C
  H8       1.0000 0.07540  0.13630  0.46760  Biso   1.000  H
  C14      1.0000 0.19800  0.12770  0.30697  Biso   1.000  C
  C15      1.0000 0.18380  0.10800  0.24473  Biso   1.000  C
  H9       1.0000 0.12840  0.10920  0.21740  Biso   1.000  H
  C16      1.0000 0.25020  0.08610  0.22134  Biso   1.000  C
  H10      1.0000 0.23730  0.07220  0.17850  Biso   1.000  H
  C17      1.0000 0.34630  0.10940  0.31401  Biso   1.000  C
  H11      1.0000 0.40310  0.11280  0.33850  Biso   1.000  H
  C18      1.0000 0.28260  0.13160  0.34128  Biso   1.000  C
  H12      1.0000 0.29750  0.14920  0.38310  Biso   1.000  H
  C19      1.0000 0.93380  0.22987  0.46573  Biso   1.000  C
  C20      1.0000 0.98350  0.29012  0.46495  Biso   1.000  C
  H13      1.0000 0.00940  0.29640  0.43200  Biso   1.000  H
  C21      1.0000 0.99450  0.34055  0.51287  Biso   1.000  C
  H14      1.0000 0.02860  0.38040  0.51250  Biso   1.000  H
  C22      1.0000 0.95517  0.33267  0.56188  Biso   1.000  C
  C23      1.0000 0.90730  0.27151  0.56234  Biso   1.000  C
  H15      1.0000 0.88170  0.26480  0.59540  Biso   1.000  H
  C24      1.0000 0.89660  0.22082  0.51528  Biso   1.000  C
  H16      1.0000 0.86430  0.18010  0.51660  Biso   1.000  H
  C25      1.0000 0.96160  0.39048  0.61006  Biso   1.000  C
  C26      1.0000 0.84700  0.56244  0.60946  Biso   1.000  C
  C27      1.0000 0.76671  0.59862  0.57190  Biso   1.000  C
  C28      1.0000 0.76700  0.66610  0.54640  Biso   1.000  C
  H17      1.0000 0.81910  0.68890  0.55010  Biso   1.000  H
  C29      1.0000 0.69160  0.70080  0.51535  Biso   1.000  C
  H18      1.0000 0.69320  0.74710  0.49990  Biso   1.000  H
  C30      1.0000 0.61320  0.66626  0.50725  Biso   1.000  C
  C31      1.0000 0.61300  0.59770  0.53154  Biso   1.000  C
  H19      1.0000 0.56120  0.57360  0.52570  Biso   1.000  H
  C32      1.0000 0.68810  0.56480  0.56417  Biso   1.000  C
  H20      1.0000 0.68640  0.51930  0.58130  Biso   1.000  H
  C33      1.0000 0.46220  0.68360  0.50066  Biso   1.000  C
  C34      1.0000 0.46950  0.68900  0.56537  Biso   1.000  C
  H21      1.0000 0.51910  0.70770  0.59320  Biso   1.000  H
  C35      1.0000 0.40290  0.66660  0.58872  Biso   1.000  C
  H22      1.0000 0.40920  0.66920  0.63270  Biso   1.000  H
  C36      1.0000 0.32710  0.64041  0.54865  Biso   1.000  C
  C37      1.0000 0.31940  0.63860  0.48277  Biso   1.000  C
  H23      1.0000 0.26830  0.62300  0.45450  Biso   1.000  H
  C38      1.0000 0.38620  0.65960  0.45889  Biso   1.000  C
  H24      1.0000 0.38020  0.65770  0.41490  Biso   1.000  H
  C39      1.0000 0.25730  0.61448  0.57452  Biso   1.000  C
  C40      1.0000 0.24840  0.63730  0.63306  Biso   1.000  C
  H25      1.0000 0.28810  0.66920  0.65770  Biso   1.000  H
  C41      1.0000 0.18190  0.61348  0.65536  Biso   1.000  C
  H26      1.0000 0.17760  0.63050  0.69470  Biso   1.000  H
  C42      1.0000 0.19770  0.56480  0.54266  Biso   1.000  C
  H27      1.0000 0.20130  0.54600  0.50370  Biso   1.000  H
  C43      1.0000 0.13330  0.54283  0.56789  Biso   1.000  C
  H28      1.0000 0.09440  0.50910  0.54510  Biso   1.000  H
  C44      1.0000 0.52440  0.74850  0.42507  Biso   1.000  C
  C45      1.0000 0.57140  0.74190  0.38121  Biso   1.000  C
  H29      1.0000 0.61050  0.70470  0.38540  Biso   1.000  H
  C46      1.0000 0.56100  0.78981  0.33126  Biso   1.000  C
  H30      1.0000 0.59400  0.78450  0.30260  Biso   1.000  H
  C47      1.0000 0.50290  0.84548  0.32264  Biso   1.000  C
  C48      1.0000 0.45550  0.85110  0.36662  Biso   1.000  C
  H31      1.0000 0.41550  0.88780  0.36200  Biso   1.000  H
  C49      1.0000 0.46600  0.80420  0.41662  Biso   1.000  C
  H32      1.0000 0.43330  0.80970  0.44540  Biso   1.000  H
  C50      1.0000 0.49310  0.89797  0.26964  Biso   1.000  C
  Co1      1.0000 0.02315  0.53723  0.65882  Biso   1.000  Co
  Co2      1.0000 0.92695  0.45554  0.72033  Biso   1.000  Co
  N1       1.0000 0.33030  0.08377  0.25541  Biso   1.000  N
  N2       1.0000 0.12314  0.56698  0.62309  Biso   1.000  N
  N3       1.0000 0.92114  0.18015  0.41445  Biso   1.000  N
  N4       1.0000 0.53435  0.70052  0.47727  Biso   1.000  N
  O1       1.0000 0.92621  0.37984  0.65436  Biso   1.000  O
  O2       1.0000 0.99981  0.44712  0.60294  Biso   1.000  O
  O3       1.0000 0.52965  0.08808  0.28488  Biso   1.000  O
  O4       1.0000 0.60095  0.02472  0.22946  Biso   1.000  O
  O5       1.0000 0.84016  0.51123  0.64525  Biso   1.000  O
  O6       1.0000 0.91773  0.58561  0.60332  Biso   1.000  O
  O7       1.0000 0.44484  0.95086  0.26959  Biso   1.000  O
  O8       1.0000 0.53389  0.88734  0.22878  Biso   1.000  O
  C51      1.0000 0.09780  0.43330  0.77381  Biso   1.000  C
  C52      1.0000 0.18100  0.40610  0.81488  Biso   1.000  C
  C53      1.0000 0.25690  0.43820  0.81252  Biso   1.000  C
  H33      1.0000 0.25490  0.47900  0.78760  Biso   1.000  H
  C54      1.0000 0.33480  0.41110  0.84621  Biso   1.000  C
  H34      1.0000 0.38480  0.43410  0.84410  Biso   1.000  H
  C55      1.0000 0.34040  0.34969  0.88344  Biso   1.000  C
  C56      1.0000 0.26480  0.31948  0.88850  Biso   1.000  C
  H35      1.0000 0.26670  0.28010  0.91510  Biso   1.000  H
  C57      1.0000 0.18660  0.34730  0.85436  Biso   1.000  C
  H36      1.0000 0.13650  0.32580  0.85810  Biso   1.000  H
  C58      1.0000 0.49110  0.33090  0.88692  Biso   1.000  C
  C59      1.0000 0.48310  0.31590  0.82403  Biso   1.000  C
  H37      1.0000 0.43190  0.29730  0.79830  Biso   1.000  H
  C60      1.0000 0.55070  0.32800  0.79840  Biso   1.000  C
  H38      1.0000 0.54390  0.31820  0.75520  Biso   1.000  H
  C61      1.0000 0.62750  0.35410  0.83511  Biso   1.000  C
  C62      1.0000 0.63540  0.36480  0.89898  Biso   1.000  C
  H39      1.0000 0.68790  0.37960  0.92580  Biso   1.000  H
  C63      1.0000 0.56840  0.35450  0.92424  Biso   1.000  C
  H40      1.0000 0.57540  0.36370  0.96760  Biso   1.000  H
  C64      1.0000 0.69800  0.37230  0.80697  Biso   1.000  C
  C65      1.0000 0.68380  0.39200  0.74473  Biso   1.000  C
  H41      1.0000 0.62840  0.39080  0.71740  Biso   1.000  H
  C66      1.0000 0.75020  0.41390  0.72134  Biso   1.000  C
  H42      1.0000 0.73730  0.42780  0.67850  Biso   1.000  H
  C67      1.0000 0.84630  0.39060  0.81401  Biso   1.000  C
  H43      1.0000 0.90310  0.38720  0.83850  Biso   1.000  H
  C68      1.0000 0.78260  0.36840  0.84128  Biso   1.000  C
  H44      1.0000 0.79750  0.35080  0.88310  Biso   1.000  H
  C69      1.0000 0.43380  0.27013  0.96573  Biso   1.000  C
  C70      1.0000 0.48350  0.20988  0.96495  Biso   1.000  C
  H45      1.0000 0.50940  0.20360  0.93200  Biso   1.000  H
  C71      1.0000 0.49450  0.15945  0.01287  Biso   1.000  C
  H46      1.0000 0.52860  0.11960  0.01250  Biso   1.000  H
  C72      1.0000 0.45517  0.16733  0.06188  Biso   1.000  C
  C73      1.0000 0.40730  0.22849  0.06234  Biso   1.000  C
  H47      1.0000 0.38170  0.23520  0.09540  Biso   1.000  H
  C74      1.0000 0.39660  0.27918  0.01528  Biso   1.000  C
  H48      1.0000 0.36430  0.31990  0.01660  Biso   1.000  H
  C75      1.0000 0.46160  0.10952  0.11006  Biso   1.000  C
  C76      1.0000 0.34700  0.93756  0.10946  Biso   1.000  C
  C77      1.0000 0.26671  0.90138  0.07190  Biso   1.000  C
  C78      1.0000 0.26700  0.83390  0.04640  Biso   1.000  C
  H49      1.0000 0.31910  0.81110  0.05010  Biso   1.000  H
  C79      1.0000 0.19160  0.79920  0.01535  Biso   1.000  C
  H50      1.0000 0.19320  0.75290  0.99990  Biso   1.000  H
  C80      1.0000 0.11320  0.83374  0.00725  Biso   1.000  C
  C81      1.0000 0.11300  0.90230  0.03154  Biso   1.000  C
  H51      1.0000 0.06120  0.92640  0.02570  Biso   1.000  H
  C82      1.0000 0.18810  0.93520  0.06417  Biso   1.000  C
  H52      1.0000 0.18640  0.98070  0.08130  Biso   1.000  H
  C83      1.0000 0.96220  0.81640  0.00066  Biso   1.000  C
  C84      1.0000 0.96950  0.81100  0.06537  Biso   1.000  C
  H53      1.0000 0.01910  0.79230  0.09320  Biso   1.000  H
  C85      1.0000 0.90290  0.83340  0.08872  Biso   1.000  C
  H54      1.0000 0.90920  0.83080  0.13270  Biso   1.000  H
  C86      1.0000 0.82710  0.85959  0.04865  Biso   1.000  C
  C87      1.0000 0.81940  0.86140  0.98277  Biso   1.000  C
  H55      1.0000 0.76830  0.87700  0.95450  Biso   1.000  H
  C88      1.0000 0.88620  0.84040  0.95889  Biso   1.000  C
  H56      1.0000 0.88020  0.84230  0.91490  Biso   1.000  H
  C89      1.0000 0.75730  0.88552  0.07452  Biso   1.000  C
  C90      1.0000 0.74840  0.86270  0.13306  Biso   1.000  C
  H57      1.0000 0.78810  0.83080  0.15770  Biso   1.000  H
  C91      1.0000 0.68190  0.88652  0.15536  Biso   1.000  C
  H58      1.0000 0.67760  0.86950  0.19470  Biso   1.000  H
  C92      1.0000 0.69770  0.93520  0.04266  Biso   1.000  C
  H59      1.0000 0.70130  0.95400  0.00370  Biso   1.000  H
  C93      1.0000 0.63330  0.95717  0.06789  Biso   1.000  C
  H60      1.0000 0.59440  0.99090  0.04510  Biso   1.000  H
  C94      1.0000 0.02440  0.75150  0.92507  Biso   1.000  C
  C95      1.0000 0.07140  0.75810  0.88121  Biso   1.000  C
  H61      1.0000 0.11050  0.79530  0.88540  Biso   1.000  H
  C96      1.0000 0.06100  0.71019  0.83126  Biso   1.000  C
  H62      1.0000 0.09400  0.71550  0.80260  Biso   1.000  H
  C97      1.0000 0.00290  0.65452  0.82264  Biso   1.000  C
  C98      1.0000 0.95550  0.64890  0.86662  Biso   1.000  C
  H63      1.0000 0.91550  0.61220  0.86200  Biso   1.000  H
  C99      1.0000 0.96600  0.69580  0.91662  Biso   1.000  C
  H64      1.0000 0.93330  0.69030  0.94540  Biso   1.000  H
  C100     1.0000 0.99310  0.60203  0.76964  Biso   1.000  C
  Co3      1.0000 0.52315  0.96277  0.15882  Biso   1.000  Co
  Co4      1.0000 0.42695  0.04446  0.22033  Biso   1.000  Co
  N5       1.0000 0.83030  0.41623  0.75541  Biso   1.000  N
  N6       1.0000 0.62314  0.93302  0.12309  Biso   1.000  N
  N7       1.0000 0.42114  0.31985  0.91445  Biso   1.000  N
  N8       1.0000 0.03435  0.79948  0.97727  Biso   1.000  N
  O9       1.0000 0.42621  0.12016  0.15436  Biso   1.000  O
  O10      1.0000 0.49981  0.05288  0.10294  Biso   1.000  O
  O11      1.0000 0.02965  0.41192  0.78488  Biso   1.000  O
  O12      1.0000 0.10095  0.47528  0.72946  Biso   1.000  O
  O13      1.0000 0.34016  0.98877  0.14525  Biso   1.000  O
  O14      1.0000 0.41773  0.91439  0.10332  Biso   1.000  O
  O15      1.0000 0.94484  0.54914  0.76959  Biso   1.000  O
  O16      1.0000 0.03389  0.61266  0.72878  Biso   1.000  O
  C101     1.0000 0.90220  0.56670  0.22619  Biso   1.000  C
  C102     1.0000 0.81900  0.59390  0.18512  Biso   1.000  C
  C103     1.0000 0.74310  0.56180  0.18748  Biso   1.000  C
  H65      1.0000 0.74510  0.52100  0.21240  Biso   1.000  H
  C104     1.0000 0.66520  0.58890  0.15379  Biso   1.000  C
  H66      1.0000 0.61520  0.56590  0.15590  Biso   1.000  H
  C105     1.0000 0.65960  0.65031  0.11656  Biso   1.000  C
  C106     1.0000 0.73520  0.68052  0.11150  Biso   1.000  C
  H67      1.0000 0.73330  0.71990  0.08490  Biso   1.000  H
  C107     1.0000 0.81340  0.65270  0.14564  Biso   1.000  C
  H68      1.0000 0.86350  0.67420  0.14190  Biso   1.000  H
  C108     1.0000 0.50890  0.66910  0.11308  Biso   1.000  C
  C109     1.0000 0.51690  0.68410  0.17597  Biso   1.000  C
  H69      1.0000 0.56810  0.70270  0.20170  Biso   1.000  H
  C110     1.0000 0.44930  0.67200  0.20160  Biso   1.000  C
  H70      1.0000 0.45610  0.68180  0.24480  Biso   1.000  H
  C111     1.0000 0.37250  0.64590  0.16489  Biso   1.000  C
  C112     1.0000 0.36460  0.63520  0.10102  Biso   1.000  C
  H71      1.0000 0.31210  0.62040  0.07420  Biso   1.000  H
  C113     1.0000 0.43160  0.64550  0.07576  Biso   1.000  C
  H72      1.0000 0.42460  0.63630  0.03240  Biso   1.000  H
  C114     1.0000 0.30200  0.62770  0.19303  Biso   1.000  C
  C115     1.0000 0.31620  0.60800  0.25527  Biso   1.000  C
  H73      1.0000 0.37160  0.60920  0.28260  Biso   1.000  H
  C116     1.0000 0.24980  0.58610  0.27866  Biso   1.000  C
  H74      1.0000 0.26270  0.57220  0.32150  Biso   1.000  H
  C117     1.0000 0.15370  0.60940  0.18599  Biso   1.000  C
  H75      1.0000 0.09690  0.61280  0.16150  Biso   1.000  H
  C118     1.0000 0.21740  0.63160  0.15872  Biso   1.000  C
  H76      1.0000 0.20250  0.64920  0.11690  Biso   1.000  H
  C119     1.0000 0.56620  0.72987  0.03427  Biso   1.000  C
  C120     1.0000 0.51650  0.79012  0.03505  Biso   1.000  C
  H77      1.0000 0.49060  0.79640  0.06800  Biso   1.000  H
  C121     1.0000 0.50550  0.84055  0.98713  Biso   1.000  C
  H78      1.0000 0.47140  0.88040  0.98750  Biso   1.000  H
  C122     1.0000 0.54483  0.83267  0.93812  Biso   1.000  C
  C123     1.0000 0.59270  0.77151  0.93766  Biso   1.000  C
  H79      1.0000 0.61830  0.76480  0.90460  Biso   1.000  H
  C124     1.0000 0.60340  0.72082  0.98472  Biso   1.000  C
  H80      1.0000 0.63570  0.68010  0.98340  Biso   1.000  H
  C125     1.0000 0.53840  0.89048  0.88994  Biso   1.000  C
  C126     1.0000 0.65300  0.06244  0.89054  Biso   1.000  C
  C127     1.0000 0.73329  0.09862  0.92810  Biso   1.000  C
  C128     1.0000 0.73300  0.16610  0.95360  Biso   1.000  C
  H81      1.0000 0.68090  0.18890  0.94990  Biso   1.000  H
  C129     1.0000 0.80840  0.20080  0.98465  Biso   1.000  C
  H82      1.0000 0.80680  0.24710  0.00010  Biso   1.000  H
  C130     1.0000 0.88680  0.16626  0.99275  Biso   1.000  C
  C131     1.0000 0.88700  0.09770  0.96846  Biso   1.000  C
  H83      1.0000 0.93880  0.07360  0.97430  Biso   1.000  H
  C132     1.0000 0.81190  0.06480  0.93583  Biso   1.000  C
  H84      1.0000 0.81360  0.01930  0.91870  Biso   1.000  H
  C133     1.0000 0.03780  0.18360  0.99934  Biso   1.000  C
  C134     1.0000 0.03050  0.18900  0.93463  Biso   1.000  C
  H85      1.0000 0.98090  0.20770  0.90680  Biso   1.000  H
  C135     1.0000 0.09710  0.16660  0.91128  Biso   1.000  C
  H86      1.0000 0.09080  0.16920  0.86730  Biso   1.000  H
  C136     1.0000 0.17290  0.14041  0.95135  Biso   1.000  C
  C137     1.0000 0.18060  0.13860  0.01723  Biso   1.000  C
  H87      1.0000 0.23170  0.12300  0.04550  Biso   1.000  H
  C138     1.0000 0.11380  0.15960  0.04111  Biso   1.000  C
  H88      1.0000 0.11980  0.15770  0.08510  Biso   1.000  H
  C139     1.0000 0.24270  0.11448  0.92548  Biso   1.000  C
  C140     1.0000 0.25160  0.13730  0.86694  Biso   1.000  C
  H89      1.0000 0.21190  0.16920  0.84230  Biso   1.000  H
  C141     1.0000 0.31810  0.11348  0.84464  Biso   1.000  C
  H90      1.0000 0.32240  0.13050  0.80530  Biso   1.000  H
  C142     1.0000 0.30230  0.06480  0.95734  Biso   1.000  C
  H91      1.0000 0.29870  0.04600  0.99630  Biso   1.000  H
  C143     1.0000 0.36670  0.04283  0.93211  Biso   1.000  C
  H92      1.0000 0.40560  0.00910  0.95490  Biso   1.000  H
  C144     1.0000 0.97560  0.24850  0.07493  Biso   1.000  C
  C145     1.0000 0.92860  0.24190  0.11879  Biso   1.000  C
  H93      1.0000 0.88950  0.20470  0.11460  Biso   1.000  H
  C146     1.0000 0.93900  0.28981  0.16874  Biso   1.000  C
  H94      1.0000 0.90600  0.28450  0.19740  Biso   1.000  H
  C147     1.0000 0.99710  0.34548  0.17736  Biso   1.000  C
  C148     1.0000 0.04450  0.35110  0.13338  Biso   1.000  C
  H95      1.0000 0.08450  0.38780  0.13800  Biso   1.000  H
  C149     1.0000 0.03400  0.30420  0.08338  Biso   1.000  C
  H96      1.0000 0.06670  0.30970  0.05460  Biso   1.000  H
  C150     1.0000 0.00690  0.39797  0.23036  Biso   1.000  C
  Co5      1.0000 0.47685  0.03723  0.84118  Biso   1.000  Co
  Co6      1.0000 0.57305  0.95554  0.77967  Biso   1.000  Co
  N9       1.0000 0.16970  0.58377  0.24459  Biso   1.000  N
  N10      1.0000 0.37686  0.06698  0.87691  Biso   1.000  N
  N11      1.0000 0.57886  0.68015  0.08555  Biso   1.000  N
  N12      1.0000 0.96565  0.20052  0.02273  Biso   1.000  N
  O17      1.0000 0.57379  0.87984  0.84564  Biso   1.000  O
  O18      1.0000 0.50019  0.94712  0.89706  Biso   1.000  O
  O19      1.0000 0.97035  0.58808  0.21512  Biso   1.000  O
  O20      1.0000 0.89905  0.52472  0.27054  Biso   1.000  O
  O21      1.0000 0.65984  0.01123  0.85475  Biso   1.000  O
  O22      1.0000 0.58227  0.08561  0.89668  Biso   1.000  O
  O23      1.0000 0.05516  0.45086  0.23041  Biso   1.000  O
  O24      1.0000 0.96611  0.38734  0.27122  Biso   1.000  O
  C151     1.0000 0.40220  0.93330  0.72619  Biso   1.000  C
  C152     1.0000 0.31900  0.90610  0.68512  Biso   1.000  C
  C153     1.0000 0.24310  0.93820  0.68748  Biso   1.000  C
  H97      1.0000 0.24510  0.97900  0.71240  Biso   1.000  H
  C154     1.0000 0.16520  0.91110  0.65379  Biso   1.000  C
  H98      1.0000 0.11520  0.93410  0.65590  Biso   1.000  H
  C155     1.0000 0.15960  0.84969  0.61656  Biso   1.000  C
  C156     1.0000 0.23520  0.81948  0.61150  Biso   1.000  C
  H99      1.0000 0.23330  0.78010  0.58490  Biso   1.000  H
  C157     1.0000 0.31340  0.84730  0.64564  Biso   1.000  C
  H100     1.0000 0.36350  0.82580  0.64190  Biso   1.000  H
  C158     1.0000 0.00890  0.83090  0.61308  Biso   1.000  C
  C159     1.0000 0.01690  0.81590  0.67597  Biso   1.000  C
  H101     1.0000 0.06810  0.79730  0.70170  Biso   1.000  H
  C160     1.0000 0.94930  0.82800  0.70160  Biso   1.000  C
  H102     1.0000 0.95610  0.81820  0.74480  Biso   1.000  H
  C161     1.0000 0.87250  0.85410  0.66489  Biso   1.000  C
  C162     1.0000 0.86460  0.86480  0.60102  Biso   1.000  C
  H103     1.0000 0.81210  0.87960  0.57420  Biso   1.000  H
  C163     1.0000 0.93160  0.85450  0.57576  Biso   1.000  C
  H104     1.0000 0.92460  0.86370  0.53240  Biso   1.000  H
  C164     1.0000 0.80200  0.87230  0.69303  Biso   1.000  C
  C165     1.0000 0.81620  0.89200  0.75527  Biso   1.000  C
  H105     1.0000 0.87160  0.89080  0.78260  Biso   1.000  H
  C166     1.0000 0.74980  0.91390  0.77866  Biso   1.000  C
  H106     1.0000 0.76270  0.92780  0.82150  Biso   1.000  H
  C167     1.0000 0.65370  0.89060  0.68599  Biso   1.000  C
  H107     1.0000 0.59690  0.88720  0.66150  Biso   1.000  H
  C168     1.0000 0.71740  0.86840  0.65872  Biso   1.000  C
  H108     1.0000 0.70250  0.85080  0.61690  Biso   1.000  H
  C169     1.0000 0.06620  0.77013  0.53427  Biso   1.000  C
  C170     1.0000 0.01650  0.70988  0.53505  Biso   1.000  C
  H109     1.0000 0.99060  0.70360  0.56800  Biso   1.000  H
  C171     1.0000 0.00550  0.65945  0.48713  Biso   1.000  C
  H110     1.0000 0.97140  0.61960  0.48750  Biso   1.000  H
  C172     1.0000 0.04483  0.66733  0.43812  Biso   1.000  C
  C173     1.0000 0.09270  0.72849  0.43766  Biso   1.000  C
  H111     1.0000 0.11830  0.73520  0.40460  Biso   1.000  H
  C174     1.0000 0.10340  0.77918  0.48472  Biso   1.000  C
  H112     1.0000 0.13570  0.81990  0.48340  Biso   1.000  H
  C175     1.0000 0.03840  0.60952  0.38994  Biso   1.000  C
  C176     1.0000 0.15300  0.43756  0.39054  Biso   1.000  C
  C177     1.0000 0.23329  0.40138  0.42810  Biso   1.000  C
  C178     1.0000 0.23300  0.33390  0.45360  Biso   1.000  C
  H113     1.0000 0.18090  0.31110  0.44990  Biso   1.000  H
  C179     1.0000 0.30840  0.29920  0.48465  Biso   1.000  C
  H114     1.0000 0.30680  0.25290  0.50010  Biso   1.000  H
  C180     1.0000 0.38680  0.33374  0.49275  Biso   1.000  C
  C181     1.0000 0.38700  0.40230  0.46846  Biso   1.000  C
  H115     1.0000 0.43880  0.42640  0.47430  Biso   1.000  H
  C182     1.0000 0.31190  0.43520  0.43583  Biso   1.000  C
  H116     1.0000 0.31360  0.48070  0.41870  Biso   1.000  H
  C183     1.0000 0.53780  0.31640  0.49934  Biso   1.000  C
  C184     1.0000 0.53050  0.31100  0.43463  Biso   1.000  C
  H117     1.0000 0.48090  0.29230  0.40680  Biso   1.000  H
  C185     1.0000 0.59710  0.33340  0.41128  Biso   1.000  C
  H118     1.0000 0.59080  0.33080  0.36730  Biso   1.000  H
  C186     1.0000 0.67290  0.35959  0.45135  Biso   1.000  C
  C187     1.0000 0.68060  0.36140  0.51723  Biso   1.000  C
  H119     1.0000 0.73170  0.37700  0.54550  Biso   1.000  H
  C188     1.0000 0.61380  0.34040  0.54111  Biso   1.000  C
  H120     1.0000 0.61980  0.34230  0.58510  Biso   1.000  H
  C189     1.0000 0.74270  0.38552  0.42548  Biso   1.000  C
  C190     1.0000 0.75160  0.36270  0.36694  Biso   1.000  C
  H121     1.0000 0.71190  0.33080  0.34230  Biso   1.000  H
  C191     1.0000 0.81810  0.38652  0.34464  Biso   1.000  C
  H122     1.0000 0.82240  0.36950  0.30530  Biso   1.000  H
  C192     1.0000 0.80230  0.43520  0.45734  Biso   1.000  C
  H123     1.0000 0.79870  0.45400  0.49630  Biso   1.000  H
  C193     1.0000 0.86670  0.45717  0.43211  Biso   1.000  C
  H124     1.0000 0.90560  0.49090  0.45490  Biso   1.000  H
  C194     1.0000 0.47560  0.25150  0.57493  Biso   1.000  C
  C195     1.0000 0.42860  0.25810  0.61879  Biso   1.000  C
  H125     1.0000 0.38950  0.29530  0.61460  Biso   1.000  H
  C196     1.0000 0.43900  0.21019  0.66874  Biso   1.000  C
  H126     1.0000 0.40600  0.21550  0.69740  Biso   1.000  H
  C197     1.0000 0.49710  0.15452  0.67736  Biso   1.000  C
  C198     1.0000 0.54450  0.14890  0.63338  Biso   1.000  C
  H127     1.0000 0.58450  0.11220  0.63800  Biso   1.000  H
  C199     1.0000 0.53400  0.19580  0.58338  Biso   1.000  C
  H128     1.0000 0.56670  0.19030  0.55460  Biso   1.000  H
  C200     1.0000 0.50690  0.10203  0.73036  Biso   1.000  C
  Co7      1.0000 0.97685  0.46277  0.34118  Biso   1.000  Co
  Co8      1.0000 0.07305  0.54446  0.27967  Biso   1.000  Co
  N13      1.0000 0.66970  0.91623  0.74459  Biso   1.000  N
  N14      1.0000 0.87686  0.43302  0.37691  Biso   1.000  N
  N15      1.0000 0.07886  0.81985  0.58555  Biso   1.000  N
  N16      1.0000 0.46565  0.29948  0.52273  Biso   1.000  N
  O25      1.0000 0.07379  0.62016  0.34564  Biso   1.000  O
  O26      1.0000 0.00019  0.55288  0.39706  Biso   1.000  O
  O27      1.0000 0.47035  0.91192  0.71512  Biso   1.000  O
  O28      1.0000 0.39905  0.97528  0.77054  Biso   1.000  O
  O29      1.0000 0.15984  0.48877  0.35475  Biso   1.000  O
  O30      1.0000 0.08227  0.41439  0.39668  Biso   1.000  O
  O31      1.0000 0.55516  0.04914  0.73041  Biso   1.000  O
  O32      1.0000 0.46611  0.11266  0.77122  Biso   1.000  O
