data_image0
_cell_length_a       20.0553
_cell_length_b       11.1462
_cell_length_c       19.5354
_cell_angle_alpha    90
_cell_angle_beta     108.352
_cell_angle_gamma    90

_symmetry_space_group_name_H-M    "P 1"
_symmetry_int_tables_number       1

loop_
  _symmetry_equiv_pos_as_xyz
  'x, y, z'

loop_
  _atom_site_label
  _atom_site_occupancy
  _atom_site_fract_x
  _atom_site_fract_y
  _atom_site_fract_z
  _atom_site_thermal_displace_type
  _atom_site_B_iso_or_equiv
  _atom_site_type_symbol
  Zn1      1.0000 0.41162  0.70846  0.23228  Biso   1.000  Zn
  Zn2      1.0000 0.27567  0.71259  0.09805  Biso   1.000  Zn
  Zn3      1.0000 0.27852  0.56653  0.23845  Biso   1.000  Zn
  Zn4      1.0000 0.27547  0.85268  0.23969  Biso   1.000  Zn
  C1       1.0000 0.41080  0.55740  0.35680  Biso   1.000  C
  C2       1.0000 0.40880  0.37640  0.59150  Biso   1.000  C
  C3       1.0000 0.44840  0.52530  0.43380  Biso   1.000  C
  C4       1.0000 0.41360  0.46280  0.47440  Biso   1.000  C
  H1       1.0000 0.36820  0.43490  0.45230  Biso   1.000  H
  C5       1.0000 0.44630  0.44160  0.54750  Biso   1.000  C
  C6       1.0000 0.51450  0.48330  0.57910  Biso   1.000  C
  H2       1.0000 0.53670  0.46980  0.62800  Biso   1.000  H
  C7       1.0000 0.55000  0.54390  0.53990  Biso   1.000  C
  H3       1.0000 0.59570  0.57070  0.56190  Biso   1.000  H
  C8       1.0000 0.51590  0.56520  0.46530  Biso   1.000  C
  H4       1.0000 0.53920  0.60590  0.43800  Biso   1.000  H
  C9       1.0000 0.25800  0.43260  0.11030  Biso   1.000  C
  C10      1.0000 0.25150  0.98460  0.11120  Biso   1.000  C
  C11      1.0000 0.24290  0.31630  0.06970  Biso   1.000  C
  C12      1.0000 0.25020  0.20850  0.10670  Biso   1.000  C
  H5       1.0000 0.26340  0.20870  0.15680  Biso   1.000  H
  C13      1.0000 0.23780  0.10010  0.06950  Biso   1.000  C
  C14      1.0000 0.21720  0.09930  0.99510  Biso   1.000  C
  H6       1.0000 0.20910  0.02700  0.97000  Biso   1.000  H
  C15      1.0000 0.20880  0.20810  0.95780  Biso   1.000  C
  H7       1.0000 0.19380  0.20830  0.90770  Biso   1.000  H
  C16      1.0000 0.22260  0.31610  0.99540  Biso   1.000  C
  H8       1.0000 0.21820  0.38810  0.97030  Biso   1.000  H
  C17      1.0000 0.15180  0.68580  0.23980  Biso   1.000  C
  C18      1.0000 0.93880  0.44510  0.24010  Biso   1.000  C
  C19      1.0000 0.07520  0.67780  0.23270  Biso   1.000  C
  C20      1.0000 0.04390  0.56680  0.23570  Biso   1.000  C
  H9       1.0000 0.07000  0.49660  0.24020  Biso   1.000  H
  C21      1.0000 0.97300  0.56190  0.23180  Biso   1.000  C
  C22      1.0000 0.93520  0.66780  0.22480  Biso   1.000  C
  H10      1.0000 0.88870  0.66550  0.22450  Biso   1.000  H
  C23      1.0000 0.96570  0.77690  0.21810  Biso   1.000  C
  H11      1.0000 0.93930  0.84710  0.21090  Biso   1.000  H
  C24      1.0000 0.03480  0.78020  0.22220  Biso   1.000  C
  H12      1.0000 0.05520  0.85350  0.21770  Biso   1.000  H
  O1       1.0000 0.44330  0.61730  0.32400  Biso   1.000  O
  O2       1.0000 0.34870  0.52200  0.33100  Biso   1.000  O
  O3       1.0000 0.35780  0.31330  0.56080  Biso   1.000  O
  O4       1.0000 0.43580  0.39060  0.65960  Biso   1.000  O
  O5       1.0000 0.25660  0.52680  0.07720  Biso   1.000  O
  O6       1.0000 0.27010  0.42500  0.17870  Biso   1.000  O
  O7       1.0000 0.27610  0.89880  0.08530  Biso   1.000  O
  O8       1.0000 0.23870  0.98310  0.17100  Biso   1.000  O
  O9       1.0000 0.18560  0.58850  0.24860  Biso   1.000  O
  O10      1.0000 0.17710  0.78750  0.23750  Biso   1.000  O
  O11      1.0000 0.30940  0.71100  0.20350  Biso   1.000  O
  O12      1.0000 0.88180  0.45030  0.25280  Biso   1.000  O
  O13      1.0000 0.96970  0.35090  0.23290  Biso   1.000  O
  Zn5      1.0000 0.91162  0.20846  0.23228  Biso   1.000  Zn
  Zn6      1.0000 0.77567  0.21259  0.09805  Biso   1.000  Zn
  Zn7      1.0000 0.77852  0.06653  0.23845  Biso   1.000  Zn
  Zn8      1.0000 0.77547  0.35268  0.23969  Biso   1.000  Zn
  C25      1.0000 0.91080  0.05740  0.35680  Biso   1.000  C
  C26      1.0000 0.90880  0.87640  0.59150  Biso   1.000  C
  C27      1.0000 0.94840  0.02530  0.43380  Biso   1.000  C
  C28      1.0000 0.91360  0.96280  0.47440  Biso   1.000  C
  H13      1.0000 0.86820  0.93490  0.45230  Biso   1.000  H
  C29      1.0000 0.94630  0.94160  0.54750  Biso   1.000  C
  C30      1.0000 0.01450  0.98330  0.57910  Biso   1.000  C
  H14      1.0000 0.03670  0.96980  0.62800  Biso   1.000  H
  C31      1.0000 0.05000  0.04390  0.53990  Biso   1.000  C
  H15      1.0000 0.09570  0.07070  0.56190  Biso   1.000  H
  C32      1.0000 0.01590  0.06520  0.46530  Biso   1.000  C
  H16      1.0000 0.03920  0.10590  0.43800  Biso   1.000  H
  C33      1.0000 0.75800  0.93260  0.11030  Biso   1.000  C
  C34      1.0000 0.75150  0.48460  0.11120  Biso   1.000  C
  C35      1.0000 0.74290  0.81630  0.06970  Biso   1.000  C
  C36      1.0000 0.75020  0.70850  0.10670  Biso   1.000  C
  H17      1.0000 0.76340  0.70870  0.15680  Biso   1.000  H
  C37      1.0000 0.73780  0.60010  0.06950  Biso   1.000  C
  C38      1.0000 0.71720  0.59930  0.99510  Biso   1.000  C
  H18      1.0000 0.70910  0.52700  0.97000  Biso   1.000  H
  C39      1.0000 0.70880  0.70810  0.95780  Biso   1.000  C
  H19      1.0000 0.69380  0.70830  0.90770  Biso   1.000  H
  C40      1.0000 0.72260  0.81610  0.99540  Biso   1.000  C
  H20      1.0000 0.71820  0.88810  0.97030  Biso   1.000  H
  C41      1.0000 0.65180  0.18580  0.23980  Biso   1.000  C
  C42      1.0000 0.43880  0.94510  0.24010  Biso   1.000  C
  C43      1.0000 0.57520  0.17780  0.23270  Biso   1.000  C
  C44      1.0000 0.54390  0.06680  0.23570  Biso   1.000  C
  H21      1.0000 0.57000  0.99660  0.24020  Biso   1.000  H
  C45      1.0000 0.47300  0.06190  0.23180  Biso   1.000  C
  C46      1.0000 0.43520  0.16780  0.22480  Biso   1.000  C
  H22      1.0000 0.38870  0.16550  0.22450  Biso   1.000  H
  C47      1.0000 0.46570  0.27690  0.21810  Biso   1.000  C
  H23      1.0000 0.43930  0.34710  0.21090  Biso   1.000  H
  C48      1.0000 0.53480  0.28020  0.22220  Biso   1.000  C
  H24      1.0000 0.55520  0.35350  0.21770  Biso   1.000  H
  O14      1.0000 0.94330  0.11730  0.32400  Biso   1.000  O
  O15      1.0000 0.84870  0.02200  0.33100  Biso   1.000  O
  O16      1.0000 0.85780  0.81330  0.56080  Biso   1.000  O
  O17      1.0000 0.93580  0.89060  0.65960  Biso   1.000  O
  O18      1.0000 0.75660  0.02680  0.07720  Biso   1.000  O
  O19      1.0000 0.77010  0.92500  0.17870  Biso   1.000  O
  O20      1.0000 0.77610  0.39880  0.08530  Biso   1.000  O
  O21      1.0000 0.73870  0.48310  0.17100  Biso   1.000  O
  O22      1.0000 0.68560  0.08850  0.24860  Biso   1.000  O
  O23      1.0000 0.67710  0.28750  0.23750  Biso   1.000  O
  O24      1.0000 0.80940  0.21100  0.20350  Biso   1.000  O
  O25      1.0000 0.38180  0.95030  0.25280  Biso   1.000  O
  O26      1.0000 0.46970  0.85090  0.23290  Biso   1.000  O
  Zn9      1.0000 0.41162  0.29154  0.73228  Biso   1.000  Zn
  Zn10     1.0000 0.27567  0.28741  0.59805  Biso   1.000  Zn
  Zn11     1.0000 0.27852  0.43347  0.73845  Biso   1.000  Zn
  Zn12     1.0000 0.27547  0.14732  0.73969  Biso   1.000  Zn
  C49      1.0000 0.41080  0.44260  0.85680  Biso   1.000  C
  C50      1.0000 0.40880  0.62360  0.09150  Biso   1.000  C
  C51      1.0000 0.44840  0.47470  0.93380  Biso   1.000  C
  C52      1.0000 0.41360  0.53720  0.97440  Biso   1.000  C
  H25      1.0000 0.36820  0.56510  0.95230  Biso   1.000  H
  C53      1.0000 0.44630  0.55840  0.04750  Biso   1.000  C
  C54      1.0000 0.51450  0.51670  0.07910  Biso   1.000  C
  H26      1.0000 0.53670  0.53020  0.12800  Biso   1.000  H
  C55      1.0000 0.55000  0.45610  0.03990  Biso   1.000  C
  H27      1.0000 0.59570  0.42930  0.06190  Biso   1.000  H
  C56      1.0000 0.51590  0.43480  0.96530  Biso   1.000  C
  H28      1.0000 0.53920  0.39410  0.93800  Biso   1.000  H
  C57      1.0000 0.25800  0.56740  0.61030  Biso   1.000  C
  C58      1.0000 0.25150  0.01540  0.61120  Biso   1.000  C
  C59      1.0000 0.24290  0.68370  0.56970  Biso   1.000  C
  C60      1.0000 0.25020  0.79150  0.60670  Biso   1.000  C
  H29      1.0000 0.26340  0.79130  0.65680  Biso   1.000  H
  C61      1.0000 0.23780  0.89990  0.56950  Biso   1.000  C
  C62      1.0000 0.21720  0.90070  0.49510  Biso   1.000  C
  H30      1.0000 0.20910  0.97300  0.47000  Biso   1.000  H
  C63      1.0000 0.20880  0.79190  0.45780  Biso   1.000  C
  H31      1.0000 0.19380  0.79170  0.40770  Biso   1.000  H
  C64      1.0000 0.22260  0.68390  0.49540  Biso   1.000  C
  H32      1.0000 0.21820  0.61190  0.47030  Biso   1.000  H
  C65      1.0000 0.15180  0.31420  0.73980  Biso   1.000  C
  C66      1.0000 0.93880  0.55490  0.74010  Biso   1.000  C
  C67      1.0000 0.07520  0.32220  0.73270  Biso   1.000  C
  C68      1.0000 0.04390  0.43320  0.73570  Biso   1.000  C
  H33      1.0000 0.07000  0.50340  0.74020  Biso   1.000  H
  C69      1.0000 0.97300  0.43810  0.73180  Biso   1.000  C
  C70      1.0000 0.93520  0.33220  0.72480  Biso   1.000  C
  H34      1.0000 0.88870  0.33450  0.72450  Biso   1.000  H
  C71      1.0000 0.96570  0.22310  0.71810  Biso   1.000  C
  H35      1.0000 0.93930  0.15290  0.71090  Biso   1.000  H
  C72      1.0000 0.03480  0.21980  0.72220  Biso   1.000  C
  H36      1.0000 0.05520  0.14650  0.71770  Biso   1.000  H
  O27      1.0000 0.44330  0.38270  0.82400  Biso   1.000  O
  O28      1.0000 0.34870  0.47800  0.83100  Biso   1.000  O
  O29      1.0000 0.35780  0.68670  0.06080  Biso   1.000  O
  O30      1.0000 0.43580  0.60940  0.15960  Biso   1.000  O
  O31      1.0000 0.25660  0.47320  0.57720  Biso   1.000  O
  O32      1.0000 0.27010  0.57500  0.67870  Biso   1.000  O
  O33      1.0000 0.27610  0.10120  0.58530  Biso   1.000  O
  O34      1.0000 0.23870  0.01690  0.67100  Biso   1.000  O
  O35      1.0000 0.18560  0.41150  0.74860  Biso   1.000  O
  O36      1.0000 0.17710  0.21250  0.73750  Biso   1.000  O
  O37      1.0000 0.30940  0.28900  0.70350  Biso   1.000  O
  O38      1.0000 0.88180  0.54970  0.75280  Biso   1.000  O
  O39      1.0000 0.96970  0.64910  0.73290  Biso   1.000  O
  Zn13     1.0000 0.91162  0.79154  0.73228  Biso   1.000  Zn
  Zn14     1.0000 0.77567  0.78741  0.59805  Biso   1.000  Zn
  Zn15     1.0000 0.77852  0.93347  0.73845  Biso   1.000  Zn
  Zn16     1.0000 0.77547  0.64732  0.73969  Biso   1.000  Zn
  C73      1.0000 0.91080  0.94260  0.85680  Biso   1.000  C
  C74      1.0000 0.90880  0.12360  0.09150  Biso   1.000  C
  C75      1.0000 0.94840  0.97470  0.93380  Biso   1.000  C
  C76      1.0000 0.91360  0.03720  0.97440  Biso   1.000  C
  H37      1.0000 0.86820  0.06510  0.95230  Biso   1.000  H
  C77      1.0000 0.94630  0.05840  0.04750  Biso   1.000  C
  C78      1.0000 0.01450  0.01670  0.07910  Biso   1.000  C
  H38      1.0000 0.03670  0.03020  0.12800  Biso   1.000  H
  C79      1.0000 0.05000  0.95610  0.03990  Biso   1.000  C
  H39      1.0000 0.09570  0.92930  0.06190  Biso   1.000  H
  C80      1.0000 0.01590  0.93480  0.96530  Biso   1.000  C
  H40      1.0000 0.03920  0.89410  0.93800  Biso   1.000  H
  C81      1.0000 0.75800  0.06740  0.61030  Biso   1.000  C
  C82      1.0000 0.75150  0.51540  0.61120  Biso   1.000  C
  C83      1.0000 0.74290  0.18370  0.56970  Biso   1.000  C
  C84      1.0000 0.75020  0.29150  0.60670  Biso   1.000  C
  H41      1.0000 0.76340  0.29130  0.65680  Biso   1.000  H
  C85      1.0000 0.73780  0.39990  0.56950  Biso   1.000  C
  C86      1.0000 0.71720  0.40070  0.49510  Biso   1.000  C
  H42      1.0000 0.70910  0.47300  0.47000  Biso   1.000  H
  C87      1.0000 0.70880  0.29190  0.45780  Biso   1.000  C
  H43      1.0000 0.69380  0.29170  0.40770  Biso   1.000  H
  C88      1.0000 0.72260  0.18390  0.49540  Biso   1.000  C
  H44      1.0000 0.71820  0.11190  0.47030  Biso   1.000  H
  C89      1.0000 0.65180  0.81420  0.73980  Biso   1.000  C
  C90      1.0000 0.43880  0.05490  0.74010  Biso   1.000  C
  C91      1.0000 0.57520  0.82220  0.73270  Biso   1.000  C
  C92      1.0000 0.54390  0.93320  0.73570  Biso   1.000  C
  H45      1.0000 0.57000  0.00340  0.74020  Biso   1.000  H
  C93      1.0000 0.47300  0.93810  0.73180  Biso   1.000  C
  C94      1.0000 0.43520  0.83220  0.72480  Biso   1.000  C
  H46      1.0000 0.38870  0.83450  0.72450  Biso   1.000  H
  C95      1.0000 0.46570  0.72310  0.71810  Biso   1.000  C
  H47      1.0000 0.43930  0.65290  0.71090  Biso   1.000  H
  C96      1.0000 0.53480  0.71980  0.72220  Biso   1.000  C
  H48      1.0000 0.55520  0.64650  0.71770  Biso   1.000  H
  O40      1.0000 0.94330  0.88270  0.82400  Biso   1.000  O
  O41      1.0000 0.84870  0.97800  0.83100  Biso   1.000  O
  O42      1.0000 0.85780  0.18670  0.06080  Biso   1.000  O
  O43      1.0000 0.93580  0.10940  0.15960  Biso   1.000  O
  O44      1.0000 0.75660  0.97320  0.57720  Biso   1.000  O
  O45      1.0000 0.77010  0.07500  0.67870  Biso   1.000  O
  O46      1.0000 0.77610  0.60120  0.58530  Biso   1.000  O
  O47      1.0000 0.73870  0.51690  0.67100  Biso   1.000  O
  O48      1.0000 0.68560  0.91150  0.74860  Biso   1.000  O
  O49      1.0000 0.67710  0.71250  0.73750  Biso   1.000  O
  O50      1.0000 0.80940  0.78900  0.70350  Biso   1.000  O
  O51      1.0000 0.38180  0.04970  0.75280  Biso   1.000  O
  O52      1.0000 0.46970  0.14910  0.73290  Biso   1.000  O
