data_image0
_cell_length_a       12.375
_cell_length_b       23.376
_cell_length_c       8.5893
_cell_angle_alpha    90
_cell_angle_beta     104.46
_cell_angle_gamma    90

_symmetry_space_group_name_H-M    "P 1"
_symmetry_int_tables_number       1

loop_
  _symmetry_equiv_pos_as_xyz
  'x, y, z'

loop_
  _atom_site_label
  _atom_site_occupancy
  _atom_site_fract_x
  _atom_site_fract_y
  _atom_site_fract_z
  _atom_site_thermal_displace_type
  _atom_site_B_iso_or_equiv
  _atom_site_type_symbol
  Cd1      1.0000 0.23929  0.21877  0.45246  Biso   1.000  Cd
  O1       1.0000 0.09410  0.93850  0.34620  Biso   1.000  O
  O2       1.0000 0.24840  0.78280  0.62890  Biso   1.000  O
  O3       1.0000 0.44320  0.94810  0.67320  Biso   1.000  O
  O4       1.0000 0.21640  0.14190  0.61670  Biso   1.000  O
  O5       1.0000 0.25560  0.11850  0.39390  Biso   1.000  O
  O6       1.0000 0.89570  0.78450  0.10880  Biso   1.000  O
  O7       1.0000 0.95140  0.70910  0.24380  Biso   1.000  O
  O8       1.0000 0.70690  0.77350  0.78540  Biso   1.000  O
  O9       1.0000 0.59440  0.76240  0.93740  Biso   1.000  O
  N1       1.0000 0.16690  0.86010  0.48640  Biso   1.000  N
  N2       1.0000 0.34540  0.86510  0.65480  Biso   1.000  N
  N3       1.0000 0.27040  0.94380  0.50390  Biso   1.000  N
  C1       1.0000 0.17070  0.91640  0.43840  Biso   1.000  C
  C2       1.0000 0.25340  0.83250  0.59290  Biso   1.000  C
  C3       1.0000 0.35690  0.92140  0.61140  Biso   1.000  C
  C4       1.0000 0.06270  0.82680  0.42380  Biso   1.000  C
  H1       1.0000 0.99990  0.85270  0.39070  Biso   1.000  H
  H2       1.0000 0.04910  0.80220  0.50780  Biso   1.000  H
  C5       1.0000 0.07390  0.79110  0.28270  Biso   1.000  C
  H3       1.0000 0.13350  0.76340  0.31780  Biso   1.000  H
  H4       1.0000 0.09310  0.81550  0.20230  Biso   1.000  H
  C6       1.0000 0.96610  0.76010  0.20990  Biso   1.000  C
  C7       1.0000 0.43720  0.83710  0.77330  Biso   1.000  C
  H5       1.0000 0.40740  0.80590  0.82410  Biso   1.000  H
  H6       1.0000 0.47090  0.86450  0.85620  Biso   1.000  H
  C8       1.0000 0.52420  0.81460  0.69700  Biso   1.000  C
  H7       1.0000 0.55900  0.84650  0.65550  Biso   1.000  H
  H8       1.0000 0.48900  0.79040  0.60690  Biso   1.000  H
  C9       1.0000 0.61340  0.78060  0.81280  Biso   1.000  C
  C10      1.0000 0.27970  0.00510  0.46500  Biso   1.000  C
  H9       1.0000 0.24260  0.01150  0.35280  Biso   1.000  H
  H10      1.0000 0.35780  0.01490  0.48050  Biso   1.000  H
  C11      1.0000 0.22870  0.04320  0.56790  Biso   1.000  C
  H11      1.0000 0.26810  0.03810  0.67980  Biso   1.000  H
  H12      1.0000 0.15160  0.03220  0.55630  Biso   1.000  H
  C12      1.0000 0.23330  0.10540  0.52340  Biso   1.000  C
  Cd2      1.0000 0.76071  0.71877  0.04754  Biso   1.000  Cd
  O10      1.0000 0.90590  0.43850  0.15380  Biso   1.000  O
  O11      1.0000 0.75160  0.28280  0.87110  Biso   1.000  O
  O12      1.0000 0.55680  0.44810  0.82680  Biso   1.000  O
  O13      1.0000 0.78360  0.64190  0.88330  Biso   1.000  O
  O14      1.0000 0.74440  0.61850  0.10610  Biso   1.000  O
  O15      1.0000 0.10430  0.28450  0.39120  Biso   1.000  O
  O16      1.0000 0.04860  0.20910  0.25620  Biso   1.000  O
  O17      1.0000 0.29310  0.27350  0.71460  Biso   1.000  O
  O18      1.0000 0.40560  0.26240  0.56260  Biso   1.000  O
  N4       1.0000 0.83310  0.36010  0.01360  Biso   1.000  N
  N5       1.0000 0.65460  0.36510  0.84520  Biso   1.000  N
  N6       1.0000 0.72960  0.44380  0.99610  Biso   1.000  N
  C13      1.0000 0.82930  0.41640  0.06160  Biso   1.000  C
  C14      1.0000 0.74660  0.33250  0.90710  Biso   1.000  C
  C15      1.0000 0.64310  0.42140  0.88860  Biso   1.000  C
  C16      1.0000 0.93730  0.32680  0.07620  Biso   1.000  C
  H13      1.0000 0.00010  0.35270  0.10930  Biso   1.000  H
  H14      1.0000 0.95090  0.30220  0.99220  Biso   1.000  H
  C17      1.0000 0.92610  0.29110  0.21730  Biso   1.000  C
  H15      1.0000 0.86650  0.26340  0.18220  Biso   1.000  H
  H16      1.0000 0.90690  0.31550  0.29770  Biso   1.000  H
  C18      1.0000 0.03390  0.26010  0.29010  Biso   1.000  C
  C19      1.0000 0.56280  0.33710  0.72670  Biso   1.000  C
  H17      1.0000 0.59260  0.30590  0.67590  Biso   1.000  H
  H18      1.0000 0.52910  0.36450  0.64380  Biso   1.000  H
  C20      1.0000 0.47580  0.31460  0.80300  Biso   1.000  C
  H19      1.0000 0.44100  0.34650  0.84450  Biso   1.000  H
  H20      1.0000 0.51100  0.29040  0.89310  Biso   1.000  H
  C21      1.0000 0.38660  0.28060  0.68720  Biso   1.000  C
  C22      1.0000 0.72030  0.50510  0.03500  Biso   1.000  C
  H21      1.0000 0.75740  0.51150  0.14720  Biso   1.000  H
  H22      1.0000 0.64220  0.51490  0.01950  Biso   1.000  H
  C23      1.0000 0.77130  0.54320  0.93210  Biso   1.000  C
  H23      1.0000 0.73190  0.53810  0.82020  Biso   1.000  H
  H24      1.0000 0.84840  0.53220  0.94370  Biso   1.000  H
  C24      1.0000 0.76670  0.60540  0.97660  Biso   1.000  C
  Cd3      1.0000 0.76071  0.78123  0.54754  Biso   1.000  Cd
  O19      1.0000 0.90590  0.06150  0.65380  Biso   1.000  O
  O20      1.0000 0.75160  0.21720  0.37110  Biso   1.000  O
  O21      1.0000 0.55680  0.05190  0.32680  Biso   1.000  O
  O22      1.0000 0.78360  0.85810  0.38330  Biso   1.000  O
  O23      1.0000 0.74440  0.88150  0.60610  Biso   1.000  O
  O24      1.0000 0.10430  0.21550  0.89120  Biso   1.000  O
  O25      1.0000 0.04860  0.29090  0.75620  Biso   1.000  O
  O26      1.0000 0.29310  0.22650  0.21460  Biso   1.000  O
  O27      1.0000 0.40560  0.23760  0.06260  Biso   1.000  O
  N7       1.0000 0.83310  0.13990  0.51360  Biso   1.000  N
  N8       1.0000 0.65460  0.13490  0.34520  Biso   1.000  N
  N9       1.0000 0.72960  0.05620  0.49610  Biso   1.000  N
  C25      1.0000 0.82930  0.08360  0.56160  Biso   1.000  C
  C26      1.0000 0.74660  0.16750  0.40710  Biso   1.000  C
  C27      1.0000 0.64310  0.07860  0.38860  Biso   1.000  C
  C28      1.0000 0.93730  0.17320  0.57620  Biso   1.000  C
  H25      1.0000 0.00010  0.14730  0.60930  Biso   1.000  H
  H26      1.0000 0.95090  0.19780  0.49220  Biso   1.000  H
  C29      1.0000 0.92610  0.20890  0.71730  Biso   1.000  C
  H27      1.0000 0.86650  0.23660  0.68220  Biso   1.000  H
  H28      1.0000 0.90690  0.18450  0.79770  Biso   1.000  H
  C30      1.0000 0.03390  0.23990  0.79010  Biso   1.000  C
  C31      1.0000 0.56280  0.16290  0.22670  Biso   1.000  C
  H29      1.0000 0.59260  0.19410  0.17590  Biso   1.000  H
  H30      1.0000 0.52910  0.13550  0.14380  Biso   1.000  H
  C32      1.0000 0.47580  0.18540  0.30300  Biso   1.000  C
  H31      1.0000 0.44100  0.15350  0.34450  Biso   1.000  H
  H32      1.0000 0.51100  0.20960  0.39310  Biso   1.000  H
  C33      1.0000 0.38660  0.21940  0.18720  Biso   1.000  C
  C34      1.0000 0.72030  0.99490  0.53500  Biso   1.000  C
  H33      1.0000 0.75740  0.98850  0.64720  Biso   1.000  H
  H34      1.0000 0.64220  0.98510  0.51950  Biso   1.000  H
  C35      1.0000 0.77130  0.95680  0.43210  Biso   1.000  C
  H35      1.0000 0.73190  0.96190  0.32020  Biso   1.000  H
  H36      1.0000 0.84840  0.96780  0.44370  Biso   1.000  H
  C36      1.0000 0.76670  0.89460  0.47660  Biso   1.000  C
  Cd4      1.0000 0.23929  0.28123  0.95246  Biso   1.000  Cd
  O28      1.0000 0.09410  0.56150  0.84620  Biso   1.000  O
  O29      1.0000 0.24840  0.71720  0.12890  Biso   1.000  O
  O30      1.0000 0.44320  0.55190  0.17320  Biso   1.000  O
  O31      1.0000 0.21640  0.35810  0.11670  Biso   1.000  O
  O32      1.0000 0.25560  0.38150  0.89390  Biso   1.000  O
  O33      1.0000 0.89570  0.71550  0.60880  Biso   1.000  O
  O34      1.0000 0.95140  0.79090  0.74380  Biso   1.000  O
  O35      1.0000 0.70690  0.72650  0.28540  Biso   1.000  O
  O36      1.0000 0.59440  0.73760  0.43740  Biso   1.000  O
  N10      1.0000 0.16690  0.63990  0.98640  Biso   1.000  N
  N11      1.0000 0.34540  0.63490  0.15480  Biso   1.000  N
  N12      1.0000 0.27040  0.55620  0.00390  Biso   1.000  N
  C37      1.0000 0.17070  0.58360  0.93840  Biso   1.000  C
  C38      1.0000 0.25340  0.66750  0.09290  Biso   1.000  C
  C39      1.0000 0.35690  0.57860  0.11140  Biso   1.000  C
  C40      1.0000 0.06270  0.67320  0.92380  Biso   1.000  C
  H37      1.0000 0.99990  0.64730  0.89070  Biso   1.000  H
  H38      1.0000 0.04910  0.69780  0.00780  Biso   1.000  H
  C41      1.0000 0.07390  0.70890  0.78270  Biso   1.000  C
  H39      1.0000 0.13350  0.73660  0.81780  Biso   1.000  H
  H40      1.0000 0.09310  0.68450  0.70230  Biso   1.000  H
  C42      1.0000 0.96610  0.73990  0.70990  Biso   1.000  C
  C43      1.0000 0.43720  0.66290  0.27330  Biso   1.000  C
  H41      1.0000 0.40740  0.69410  0.32410  Biso   1.000  H
  H42      1.0000 0.47090  0.63550  0.35620  Biso   1.000  H
  C44      1.0000 0.52420  0.68540  0.19700  Biso   1.000  C
  H43      1.0000 0.55900  0.65350  0.15550  Biso   1.000  H
  H44      1.0000 0.48900  0.70960  0.10690  Biso   1.000  H
  C45      1.0000 0.61340  0.71940  0.31280  Biso   1.000  C
  C46      1.0000 0.27970  0.49490  0.96500  Biso   1.000  C
  H45      1.0000 0.24260  0.48850  0.85280  Biso   1.000  H
  H46      1.0000 0.35780  0.48510  0.98050  Biso   1.000  H
  C47      1.0000 0.22870  0.45680  0.06790  Biso   1.000  C
  H47      1.0000 0.26810  0.46190  0.17980  Biso   1.000  H
  H48      1.0000 0.15160  0.46780  0.05630  Biso   1.000  H
  C48      1.0000 0.23330  0.39460  0.02340  Biso   1.000  C
