data_image0
_cell_length_a       18.241
_cell_length_b       18.241
_cell_length_c       18.241
_cell_angle_alpha    90
_cell_angle_beta     90
_cell_angle_gamma    90

_symmetry_space_group_name_H-M    "P 1"
_symmetry_int_tables_number       1

loop_
  _symmetry_equiv_pos_as_xyz
  'x, y, z'

loop_
  _atom_site_label
  _atom_site_occupancy
  _atom_site_fract_x
  _atom_site_fract_y
  _atom_site_fract_z
  _atom_site_thermal_displace_type
  _atom_site_B_iso_or_equiv
  _atom_site_type_symbol
  C1       1.0000 0.28740  0.65610  0.12470  Biso   1.000  C
  C2       1.0000 0.31950  0.60010  0.08890  Biso   1.000  C
  H1       1.0000 0.24450  0.67710  0.10400  Biso   1.000  H
  H2       1.0000 0.29820  0.58170  0.04510  Biso   1.000  H
  C3       1.0000 0.21260  0.84390  0.12470  Biso   1.000  C
  C4       1.0000 0.18050  0.89990  0.08890  Biso   1.000  C
  H3       1.0000 0.25550  0.82290  0.10400  Biso   1.000  H
  H4       1.0000 0.20180  0.91830  0.04510  Biso   1.000  H
  C5       1.0000 0.21260  0.65610  0.37530  Biso   1.000  C
  C6       1.0000 0.18050  0.60010  0.41110  Biso   1.000  C
  H5       1.0000 0.25550  0.67710  0.39600  Biso   1.000  H
  H6       1.0000 0.20180  0.58170  0.45490  Biso   1.000  H
  C7       1.0000 0.28740  0.84390  0.37530  Biso   1.000  C
  C8       1.0000 0.31950  0.89990  0.41110  Biso   1.000  C
  H7       1.0000 0.24450  0.82290  0.39600  Biso   1.000  H
  H8       1.0000 0.29820  0.91830  0.45490  Biso   1.000  H
  C9       1.0000 0.12470  0.28740  0.65610  Biso   1.000  C
  C10      1.0000 0.08890  0.31950  0.60010  Biso   1.000  C
  H9       1.0000 0.10400  0.24450  0.67710  Biso   1.000  H
  H10      1.0000 0.04510  0.29820  0.58170  Biso   1.000  H
  C11      1.0000 0.12470  0.21260  0.84390  Biso   1.000  C
  C12      1.0000 0.08890  0.18050  0.89990  Biso   1.000  C
  H11      1.0000 0.10400  0.25550  0.82290  Biso   1.000  H
  H12      1.0000 0.04510  0.20180  0.91830  Biso   1.000  H
  C13      1.0000 0.37530  0.21260  0.65610  Biso   1.000  C
  C14      1.0000 0.41110  0.18050  0.60010  Biso   1.000  C
  H13      1.0000 0.39600  0.25550  0.67710  Biso   1.000  H
  H14      1.0000 0.45490  0.20180  0.58170  Biso   1.000  H
  C15      1.0000 0.37530  0.28740  0.84390  Biso   1.000  C
  C16      1.0000 0.41110  0.31950  0.89990  Biso   1.000  C
  H15      1.0000 0.39600  0.24450  0.82290  Biso   1.000  H
  H16      1.0000 0.45490  0.29820  0.91830  Biso   1.000  H
  C17      1.0000 0.65610  0.12470  0.28740  Biso   1.000  C
  C18      1.0000 0.60010  0.08890  0.31950  Biso   1.000  C
  H17      1.0000 0.67710  0.10400  0.24450  Biso   1.000  H
  H18      1.0000 0.58170  0.04510  0.29820  Biso   1.000  H
  C19      1.0000 0.84390  0.12470  0.21260  Biso   1.000  C
  C20      1.0000 0.89990  0.08890  0.18050  Biso   1.000  C
  H19      1.0000 0.82290  0.10400  0.25550  Biso   1.000  H
  H20      1.0000 0.91830  0.04510  0.20180  Biso   1.000  H
  C21      1.0000 0.65610  0.37530  0.21260  Biso   1.000  C
  C22      1.0000 0.60010  0.41110  0.18050  Biso   1.000  C
  H21      1.0000 0.67710  0.39600  0.25550  Biso   1.000  H
  H22      1.0000 0.58170  0.45490  0.20180  Biso   1.000  H
  C23      1.0000 0.84390  0.37530  0.28740  Biso   1.000  C
  C24      1.0000 0.89990  0.41110  0.31950  Biso   1.000  C
  H23      1.0000 0.82290  0.39600  0.24450  Biso   1.000  H
  H24      1.0000 0.91830  0.45490  0.29820  Biso   1.000  H
  C25      1.0000 0.84390  0.21260  0.12470  Biso   1.000  C
  C26      1.0000 0.89990  0.18050  0.08890  Biso   1.000  C
  H25      1.0000 0.82290  0.25550  0.10400  Biso   1.000  H
  H26      1.0000 0.91830  0.20180  0.04510  Biso   1.000  H
  C27      1.0000 0.65610  0.28740  0.12470  Biso   1.000  C
  C28      1.0000 0.60010  0.31950  0.08890  Biso   1.000  C
  H27      1.0000 0.67710  0.24450  0.10400  Biso   1.000  H
  H28      1.0000 0.58170  0.29820  0.04510  Biso   1.000  H
  C29      1.0000 0.84390  0.28740  0.37530  Biso   1.000  C
  C30      1.0000 0.89990  0.31950  0.41110  Biso   1.000  C
  H29      1.0000 0.82290  0.24450  0.39600  Biso   1.000  H
  H30      1.0000 0.91830  0.29820  0.45490  Biso   1.000  H
  C31      1.0000 0.65610  0.21260  0.37530  Biso   1.000  C
  C32      1.0000 0.60010  0.18050  0.41110  Biso   1.000  C
  H31      1.0000 0.67710  0.25550  0.39600  Biso   1.000  H
  H32      1.0000 0.58170  0.20180  0.45490  Biso   1.000  H
  C33      1.0000 0.21260  0.37530  0.65610  Biso   1.000  C
  C34      1.0000 0.18050  0.41110  0.60010  Biso   1.000  C
  H33      1.0000 0.25550  0.39600  0.67710  Biso   1.000  H
  H34      1.0000 0.20180  0.45490  0.58170  Biso   1.000  H
  C35      1.0000 0.28740  0.37530  0.84390  Biso   1.000  C
  C36      1.0000 0.31950  0.41110  0.89990  Biso   1.000  C
  H35      1.0000 0.24450  0.39600  0.82290  Biso   1.000  H
  H36      1.0000 0.29820  0.45490  0.91830  Biso   1.000  H
  C37      1.0000 0.28740  0.12470  0.65610  Biso   1.000  C
  C38      1.0000 0.31950  0.08890  0.60010  Biso   1.000  C
  H37      1.0000 0.24450  0.10400  0.67710  Biso   1.000  H
  H38      1.0000 0.29820  0.04510  0.58170  Biso   1.000  H
  C39      1.0000 0.21260  0.12470  0.84390  Biso   1.000  C
  C40      1.0000 0.18050  0.08890  0.89990  Biso   1.000  C
  H39      1.0000 0.25550  0.10400  0.82290  Biso   1.000  H
  H40      1.0000 0.20180  0.04510  0.91830  Biso   1.000  H
  C41      1.0000 0.37530  0.84390  0.28740  Biso   1.000  C
  C42      1.0000 0.41110  0.89990  0.31950  Biso   1.000  C
  H41      1.0000 0.39600  0.82290  0.24450  Biso   1.000  H
  H42      1.0000 0.45490  0.91830  0.29820  Biso   1.000  H
  C43      1.0000 0.37530  0.65610  0.21260  Biso   1.000  C
  C44      1.0000 0.41110  0.60010  0.18050  Biso   1.000  C
  H43      1.0000 0.39600  0.67710  0.25550  Biso   1.000  H
  H44      1.0000 0.45490  0.58170  0.20180  Biso   1.000  H
  C45      1.0000 0.12470  0.84390  0.21260  Biso   1.000  C
  C46      1.0000 0.08890  0.89990  0.18050  Biso   1.000  C
  H45      1.0000 0.10400  0.82290  0.25550  Biso   1.000  H
  H46      1.0000 0.04510  0.91830  0.20180  Biso   1.000  H
  C47      1.0000 0.12470  0.65610  0.28740  Biso   1.000  C
  C48      1.0000 0.08890  0.60010  0.31950  Biso   1.000  C
  H47      1.0000 0.10400  0.67710  0.24450  Biso   1.000  H
  H48      1.0000 0.04510  0.58170  0.29820  Biso   1.000  H
  C49      1.0000 0.38400  0.56890  0.11600  Biso   1.000  C
  N1       1.0000 0.31250  0.68390  0.18750  Biso   1.000  N
  C50      1.0000 0.41880  0.50530  0.08120  Biso   1.000  C
  C51      1.0000 0.11600  0.93110  0.11600  Biso   1.000  C
  N2       1.0000 0.18750  0.81610  0.18750  Biso   1.000  N
  C52      1.0000 0.08120  0.99470  0.08120  Biso   1.000  C
  C53      1.0000 0.11600  0.56890  0.38400  Biso   1.000  C
  N3       1.0000 0.18750  0.68390  0.31250  Biso   1.000  N
  C54      1.0000 0.08120  0.50530  0.41880  Biso   1.000  C
  C55      1.0000 0.38400  0.93110  0.38400  Biso   1.000  C
  N4       1.0000 0.31250  0.81610  0.31250  Biso   1.000  N
  C56      1.0000 0.41880  0.99470  0.41880  Biso   1.000  C
  C57      1.0000 0.11600  0.38400  0.56890  Biso   1.000  C
  N5       1.0000 0.18750  0.31250  0.68390  Biso   1.000  N
  C58      1.0000 0.08120  0.41880  0.50530  Biso   1.000  C
  C59      1.0000 0.11600  0.11600  0.93110  Biso   1.000  C
  N6       1.0000 0.18750  0.18750  0.81610  Biso   1.000  N
  C60      1.0000 0.08120  0.08120  0.99470  Biso   1.000  C
  C61      1.0000 0.38400  0.11600  0.56890  Biso   1.000  C
  N7       1.0000 0.31250  0.18750  0.68390  Biso   1.000  N
  C62      1.0000 0.41880  0.08120  0.50530  Biso   1.000  C
  C63      1.0000 0.38400  0.38400  0.93110  Biso   1.000  C
  N8       1.0000 0.31250  0.31250  0.81610  Biso   1.000  N
  C64      1.0000 0.41880  0.41880  0.99470  Biso   1.000  C
  C65      1.0000 0.56890  0.11600  0.38400  Biso   1.000  C
  N9       1.0000 0.68390  0.18750  0.31250  Biso   1.000  N
  C66      1.0000 0.50530  0.08120  0.41880  Biso   1.000  C
  C67      1.0000 0.93110  0.11600  0.11600  Biso   1.000  C
  N10      1.0000 0.81610  0.18750  0.18750  Biso   1.000  N
  C68      1.0000 0.99470  0.08120  0.08120  Biso   1.000  C
  C69      1.0000 0.56890  0.38400  0.11600  Biso   1.000  C
  N11      1.0000 0.68390  0.31250  0.18750  Biso   1.000  N
  C70      1.0000 0.50530  0.41880  0.08120  Biso   1.000  C
  C71      1.0000 0.93110  0.38400  0.38400  Biso   1.000  C
  N12      1.0000 0.81610  0.31250  0.31250  Biso   1.000  N
  C72      1.0000 0.99470  0.41880  0.41880  Biso   1.000  C
  N13      1.0000 0.38740  0.47890  0.02110  Biso   1.000  N
  N14      1.0000 0.11260  0.02110  0.02110  Biso   1.000  N
  N15      1.0000 0.11260  0.47890  0.47890  Biso   1.000  N
  N16      1.0000 0.38740  0.02110  0.47890  Biso   1.000  N
  N17      1.0000 0.02110  0.38740  0.47890  Biso   1.000  N
  N18      1.0000 0.02110  0.11260  0.02110  Biso   1.000  N
  N19      1.0000 0.47890  0.11260  0.47890  Biso   1.000  N
  N20      1.0000 0.47890  0.38740  0.02110  Biso   1.000  N
  N21      1.0000 0.47890  0.02110  0.38740  Biso   1.000  N
  N22      1.0000 0.02110  0.02110  0.11260  Biso   1.000  N
  N23      1.0000 0.47890  0.47890  0.11260  Biso   1.000  N
  N24      1.0000 0.02110  0.47890  0.38740  Biso   1.000  N
  Cu1      1.0000 0.25000  0.75000  0.25000  Biso   1.000  Cu
  Cu2      1.0000 0.25000  0.25000  0.75000  Biso   1.000  Cu
  Cu3      1.0000 0.75000  0.25000  0.25000  Biso   1.000  Cu
  C73      1.0000 0.15610  0.78740  0.87530  Biso   1.000  C
  C74      1.0000 0.10010  0.81950  0.91110  Biso   1.000  C
  H49      1.0000 0.17710  0.74450  0.89600  Biso   1.000  H
  H50      1.0000 0.08170  0.79820  0.95490  Biso   1.000  H
  C75      1.0000 0.34390  0.71260  0.87530  Biso   1.000  C
  C76      1.0000 0.39990  0.68050  0.91110  Biso   1.000  C
  H51      1.0000 0.32290  0.75550  0.89600  Biso   1.000  H
  H52      1.0000 0.41830  0.70180  0.95490  Biso   1.000  H
  C77      1.0000 0.15610  0.71260  0.62470  Biso   1.000  C
  C78      1.0000 0.10010  0.68050  0.58890  Biso   1.000  C
  H53      1.0000 0.17710  0.75550  0.60400  Biso   1.000  H
  H54      1.0000 0.08170  0.70180  0.54510  Biso   1.000  H
  C79      1.0000 0.34390  0.78740  0.62470  Biso   1.000  C
  C80      1.0000 0.39990  0.81950  0.58890  Biso   1.000  C
  H55      1.0000 0.32290  0.74450  0.60400  Biso   1.000  H
  H56      1.0000 0.41830  0.79820  0.54510  Biso   1.000  H
  C81      1.0000 0.78740  0.62470  0.34390  Biso   1.000  C
  C82      1.0000 0.81950  0.58890  0.39990  Biso   1.000  C
  H57      1.0000 0.74450  0.60400  0.32290  Biso   1.000  H
  H58      1.0000 0.79820  0.54510  0.41830  Biso   1.000  H
  C83      1.0000 0.71260  0.62470  0.15610  Biso   1.000  C
  C84      1.0000 0.68050  0.58890  0.10010  Biso   1.000  C
  H59      1.0000 0.75550  0.60400  0.17710  Biso   1.000  H
  H60      1.0000 0.70180  0.54510  0.08170  Biso   1.000  H
  C85      1.0000 0.71260  0.87530  0.34390  Biso   1.000  C
  C86      1.0000 0.68050  0.91110  0.39990  Biso   1.000  C
  H61      1.0000 0.75550  0.89600  0.32290  Biso   1.000  H
  H62      1.0000 0.70180  0.95490  0.41830  Biso   1.000  H
  C87      1.0000 0.78740  0.87530  0.15610  Biso   1.000  C
  C88      1.0000 0.81950  0.91110  0.10010  Biso   1.000  C
  H63      1.0000 0.74450  0.89600  0.17710  Biso   1.000  H
  H64      1.0000 0.79820  0.95490  0.08170  Biso   1.000  H
  C89      1.0000 0.62470  0.15610  0.71260  Biso   1.000  C
  C90      1.0000 0.58890  0.10010  0.68050  Biso   1.000  C
  H65      1.0000 0.60400  0.17710  0.75550  Biso   1.000  H
  H66      1.0000 0.54510  0.08170  0.70180  Biso   1.000  H
  C91      1.0000 0.62470  0.34390  0.78740  Biso   1.000  C
  C92      1.0000 0.58890  0.39990  0.81950  Biso   1.000  C
  H67      1.0000 0.60400  0.32290  0.74450  Biso   1.000  H
  H68      1.0000 0.54510  0.41830  0.79820  Biso   1.000  H
  C93      1.0000 0.87530  0.15610  0.78740  Biso   1.000  C
  C94      1.0000 0.91110  0.10010  0.81950  Biso   1.000  C
  H69      1.0000 0.89600  0.17710  0.74450  Biso   1.000  H
  H70      1.0000 0.95490  0.08170  0.79820  Biso   1.000  H
  C95      1.0000 0.87530  0.34390  0.71260  Biso   1.000  C
  C96      1.0000 0.91110  0.39990  0.68050  Biso   1.000  C
  H71      1.0000 0.89600  0.32290  0.75550  Biso   1.000  H
  H72      1.0000 0.95490  0.41830  0.70180  Biso   1.000  H
  C97      1.0000 0.71260  0.34390  0.87530  Biso   1.000  C
  C98      1.0000 0.68050  0.39990  0.91110  Biso   1.000  C
  H73      1.0000 0.75550  0.32290  0.89600  Biso   1.000  H
  H74      1.0000 0.70180  0.41830  0.95490  Biso   1.000  H
  C99      1.0000 0.78740  0.15610  0.87530  Biso   1.000  C
  C100     1.0000 0.81950  0.10010  0.91110  Biso   1.000  C
  H75      1.0000 0.74450  0.17710  0.89600  Biso   1.000  H
  H76      1.0000 0.79820  0.08170  0.95490  Biso   1.000  H
  C101     1.0000 0.78740  0.34390  0.62470  Biso   1.000  C
  C102     1.0000 0.81950  0.39990  0.58890  Biso   1.000  C
  H77      1.0000 0.74450  0.32290  0.60400  Biso   1.000  H
  H78      1.0000 0.79820  0.41830  0.54510  Biso   1.000  H
  C103     1.0000 0.71260  0.15610  0.62470  Biso   1.000  C
  C104     1.0000 0.68050  0.10010  0.58890  Biso   1.000  C
  H79      1.0000 0.75550  0.17710  0.60400  Biso   1.000  H
  H80      1.0000 0.70180  0.08170  0.54510  Biso   1.000  H
  C105     1.0000 0.87530  0.71260  0.34390  Biso   1.000  C
  C106     1.0000 0.91110  0.68050  0.39990  Biso   1.000  C
  H81      1.0000 0.89600  0.75550  0.32290  Biso   1.000  H
  H82      1.0000 0.95490  0.70180  0.41830  Biso   1.000  H
  C107     1.0000 0.87530  0.78740  0.15610  Biso   1.000  C
  C108     1.0000 0.91110  0.81950  0.10010  Biso   1.000  C
  H83      1.0000 0.89600  0.74450  0.17710  Biso   1.000  H
  H84      1.0000 0.95490  0.79820  0.08170  Biso   1.000  H
  C109     1.0000 0.62470  0.78740  0.34390  Biso   1.000  C
  C110     1.0000 0.58890  0.81950  0.39990  Biso   1.000  C
  H85      1.0000 0.60400  0.74450  0.32290  Biso   1.000  H
  H86      1.0000 0.54510  0.79820  0.41830  Biso   1.000  H
  C111     1.0000 0.62470  0.71260  0.15610  Biso   1.000  C
  C112     1.0000 0.58890  0.68050  0.10010  Biso   1.000  C
  H87      1.0000 0.60400  0.75550  0.17710  Biso   1.000  H
  H88      1.0000 0.54510  0.70180  0.08170  Biso   1.000  H
  C113     1.0000 0.34390  0.87530  0.71260  Biso   1.000  C
  C114     1.0000 0.39990  0.91110  0.68050  Biso   1.000  C
  H89      1.0000 0.32290  0.89600  0.75550  Biso   1.000  H
  H90      1.0000 0.41830  0.95490  0.70180  Biso   1.000  H
  C115     1.0000 0.15610  0.87530  0.78740  Biso   1.000  C
  C116     1.0000 0.10010  0.91110  0.81950  Biso   1.000  C
  H91      1.0000 0.17710  0.89600  0.74450  Biso   1.000  H
  H92      1.0000 0.08170  0.95490  0.79820  Biso   1.000  H
  C117     1.0000 0.34390  0.62470  0.78740  Biso   1.000  C
  C118     1.0000 0.39990  0.58890  0.81950  Biso   1.000  C
  H93      1.0000 0.32290  0.60400  0.74450  Biso   1.000  H
  H94      1.0000 0.41830  0.54510  0.79820  Biso   1.000  H
  C119     1.0000 0.15610  0.62470  0.71260  Biso   1.000  C
  C120     1.0000 0.10010  0.58890  0.68050  Biso   1.000  C
  H95      1.0000 0.17710  0.60400  0.75550  Biso   1.000  H
  H96      1.0000 0.08170  0.54510  0.70180  Biso   1.000  H
  C121     1.0000 0.06890  0.88400  0.88400  Biso   1.000  C
  N25      1.0000 0.18390  0.81250  0.81250  Biso   1.000  N
  C122     1.0000 0.00530  0.91880  0.91880  Biso   1.000  C
  C123     1.0000 0.43110  0.61600  0.88400  Biso   1.000  C
  N26      1.0000 0.31610  0.68750  0.81250  Biso   1.000  N
  C124     1.0000 0.49470  0.58120  0.91880  Biso   1.000  C
  C125     1.0000 0.06890  0.61600  0.61600  Biso   1.000  C
  N27      1.0000 0.18390  0.68750  0.68750  Biso   1.000  N
  C126     1.0000 0.00530  0.58120  0.58120  Biso   1.000  C
  C127     1.0000 0.43110  0.88400  0.61600  Biso   1.000  C
  N28      1.0000 0.31610  0.81250  0.68750  Biso   1.000  N
  C128     1.0000 0.49470  0.91880  0.58120  Biso   1.000  C
  C129     1.0000 0.88400  0.61600  0.43110  Biso   1.000  C
  N29      1.0000 0.81250  0.68750  0.31610  Biso   1.000  N
  C130     1.0000 0.91880  0.58120  0.49470  Biso   1.000  C
  C131     1.0000 0.61600  0.61600  0.06890  Biso   1.000  C
  N30      1.0000 0.68750  0.68750  0.18390  Biso   1.000  N
  C132     1.0000 0.58120  0.58120  0.00530  Biso   1.000  C
  C133     1.0000 0.61600  0.88400  0.43110  Biso   1.000  C
  N31      1.0000 0.68750  0.81250  0.31610  Biso   1.000  N
  C134     1.0000 0.58120  0.91880  0.49470  Biso   1.000  C
  C135     1.0000 0.88400  0.88400  0.06890  Biso   1.000  C
  N32      1.0000 0.81250  0.81250  0.18390  Biso   1.000  N
  C136     1.0000 0.91880  0.91880  0.00530  Biso   1.000  C
  C137     1.0000 0.61600  0.06890  0.61600  Biso   1.000  C
  N33      1.0000 0.68750  0.18390  0.68750  Biso   1.000  N
  C138     1.0000 0.58120  0.00530  0.58120  Biso   1.000  C
  C139     1.0000 0.61600  0.43110  0.88400  Biso   1.000  C
  N34      1.0000 0.68750  0.31610  0.81250  Biso   1.000  N
  C140     1.0000 0.58120  0.49470  0.91880  Biso   1.000  C
  C141     1.0000 0.88400  0.06890  0.88400  Biso   1.000  C
  N35      1.0000 0.81250  0.18390  0.81250  Biso   1.000  N
  C142     1.0000 0.91880  0.00530  0.91880  Biso   1.000  C
  C143     1.0000 0.88400  0.43110  0.61600  Biso   1.000  C
  N36      1.0000 0.81250  0.31610  0.68750  Biso   1.000  N
  C144     1.0000 0.91880  0.49470  0.58120  Biso   1.000  C
  N37      1.0000 0.97890  0.88740  0.97890  Biso   1.000  N
  N38      1.0000 0.52110  0.61260  0.97890  Biso   1.000  N
  N39      1.0000 0.97890  0.61260  0.52110  Biso   1.000  N
  N40      1.0000 0.52110  0.88740  0.52110  Biso   1.000  N
  N41      1.0000 0.88740  0.52110  0.52110  Biso   1.000  N
  N42      1.0000 0.61260  0.52110  0.97890  Biso   1.000  N
  N43      1.0000 0.61260  0.97890  0.52110  Biso   1.000  N
  N44      1.0000 0.88740  0.97890  0.97890  Biso   1.000  N
  N45      1.0000 0.52110  0.97890  0.61260  Biso   1.000  N
  N46      1.0000 0.52110  0.52110  0.88740  Biso   1.000  N
  N47      1.0000 0.97890  0.97890  0.88740  Biso   1.000  N
  N48      1.0000 0.97890  0.52110  0.61260  Biso   1.000  N
  Cu4      1.0000 0.25000  0.75000  0.75000  Biso   1.000  Cu
  Cu5      1.0000 0.75000  0.75000  0.25000  Biso   1.000  Cu
  Cu6      1.0000 0.75000  0.25000  0.75000  Biso   1.000  Cu
