data_image0
_cell_length_a       17.28
_cell_length_b       14.802
_cell_length_c       14.365
_cell_angle_alpha    90
_cell_angle_beta     116.308
_cell_angle_gamma    90

_symmetry_space_group_name_H-M    "P 1"
_symmetry_int_tables_number       1

loop_
  _symmetry_equiv_pos_as_xyz
  'x, y, z'

loop_
  _atom_site_label
  _atom_site_occupancy
  _atom_site_fract_x
  _atom_site_fract_y
  _atom_site_fract_z
  _atom_site_thermal_displace_type
  _atom_site_B_iso_or_equiv
  _atom_site_type_symbol
  Co1      1.0000 0.19139  0.48307  0.15761  Biso   1.000  Co
  Co2      1.0000 0.20085  0.49848  0.41458  Biso   1.000  Co
  O1       1.0000 0.51360  0.41850  0.56060  Biso   1.000  O
  O2       1.0000 0.12650  0.48320  0.99470  Biso   1.000  O
  N1       1.0000 0.59700  0.42780  0.62030  Biso   1.000  N
  N2       1.0000 0.04170  0.47370  0.93980  Biso   1.000  N
  C1       1.0000 0.64670  0.35190  0.64660  Biso   1.000  C
  H1       1.0000 0.62180  0.29540  0.62390  Biso   1.000  H
  C2       1.0000 0.73500  0.35970  0.70770  Biso   1.000  C
  H2       1.0000 0.76960  0.30840  0.72330  Biso   1.000  H
  C3       1.0000 0.77310  0.44410  0.74620  Biso   1.000  C
  C4       1.0000 0.71740  0.51730  0.71810  Biso   1.000  C
  H3       1.0000 0.73980  0.57450  0.74120  Biso   1.000  H
  C5       1.0000 0.63100  0.50820  0.65760  Biso   1.000  C
  H4       1.0000 0.59550  0.55870  0.64220  Biso   1.000  H
  C6       1.0000 0.00780  0.39120  0.91450  Biso   1.000  C
  H5       1.0000 0.04390  0.34120  0.93860  Biso   1.000  H
  C7       1.0000 0.92140  0.37810  0.85390  Biso   1.000  C
  H6       1.0000 0.89870  0.32000  0.83920  Biso   1.000  H
  C8       1.0000 0.86690  0.45490  0.81370  Biso   1.000  C
  C9       1.0000 0.90470  0.53980  0.84120  Biso   1.000  C
  H7       1.0000 0.87120  0.59140  0.81590  Biso   1.000  H
  C10      1.0000 0.99120  0.54780  0.90540  Biso   1.000  C
  H8       1.0000 0.01540  0.60480  0.92560  Biso   1.000  H
  O3       1.0000 0.13980  0.60710  0.32360  Biso   1.000  O
  O4       1.0000 0.10760  0.58190  0.15740  Biso   1.000  O
  O5       1.0000 0.79470  0.91350  0.01100  Biso   1.000  O
  O6       1.0000 0.77240  0.88300  0.15000  Biso   1.000  O
  C11      1.0000 0.97460  0.91680  0.27630  Biso   1.000  C
  H9       1.0000 0.92820  0.95650  0.25460  Biso   1.000  H
  C12      1.0000 0.04960  0.93880  0.35950  Biso   1.000  C
  H10      1.0000 0.05390  0.99270  0.39470  Biso   1.000  H
  C13      1.0000 0.12040  0.88030  0.39230  Biso   1.000  C
  H11      1.0000 0.17200  0.89660  0.44840  Biso   1.000  H
  C14      1.0000 0.11530  0.79890  0.34330  Biso   1.000  C
  H12      1.0000 0.16270  0.76030  0.36750  Biso   1.000  H
  C15      1.0000 0.03640  0.77310  0.25420  Biso   1.000  C
  C16      1.0000 0.96520  0.83310  0.22060  Biso   1.000  C
  C17      1.0000 0.88730  0.81080  0.13280  Biso   1.000  C
  C18      1.0000 0.88320  0.73390  0.07810  Biso   1.000  C
  H13      1.0000 0.83270  0.71970  0.01940  Biso   1.000  H
  C19      1.0000 0.95410  0.67720  0.10980  Biso   1.000  C
  H14      1.0000 0.95030  0.62590  0.07040  Biso   1.000  H
  C20      1.0000 0.02910  0.69360  0.19670  Biso   1.000  C
  C21      1.0000 0.09890  0.62090  0.22890  Biso   1.000  C
  C22      1.0000 0.81160  0.87500  0.09510  Biso   1.000  C
  O7       1.0000 0.26640  0.39220  0.50660  Biso   1.000  O
  O8       1.0000 0.28120  0.41970  0.66690  Biso   1.000  O
  O9       1.0000 0.61050  0.08940  0.81840  Biso   1.000  O
  O10      1.0000 0.60870  0.11280  0.66540  Biso   1.000  O
  C23      1.0000 0.40570  0.06860  0.58930  Biso   1.000  C
  H15      1.0000 0.45160  0.02830  0.60920  Biso   1.000  H
  C24      1.0000 0.32450  0.04080  0.52180  Biso   1.000  C
  H16      1.0000 0.31500  0.98140  0.49820  Biso   1.000  H
  C25      1.0000 0.25550  0.10230  0.48830  Biso   1.000  C
  H17      1.0000 0.20100  0.08420  0.43980  Biso   1.000  H
  C26      1.0000 0.26760  0.18750  0.52590  Biso   1.000  C
  H18      1.0000 0.22100  0.22690  0.50380  Biso   1.000  H
  C27      1.0000 0.34850  0.21710  0.59640  Biso   1.000  C
  C28      1.0000 0.42070  0.15580  0.62850  Biso   1.000  C
  C29      1.0000 0.50420  0.18410  0.70360  Biso   1.000  C
  C30      1.0000 0.51569  0.26569  0.75349  Biso   1.000  C
  H19      1.0000 0.56890  0.28060  0.80760  Biso   1.000  H
  C31      1.0000 0.44479  0.32736  0.72116  Biso   1.000  C
  H20      1.0000 0.45280  0.38300  0.75420  Biso   1.000  H
  C32      1.0000 0.36570  0.30661  0.64309  Biso   1.000  C
  C33      1.0000 0.29887  0.37710  0.60317  Biso   1.000  C
  C34      1.0000 0.58147  0.12385  0.73145  Biso   1.000  C
  O11      1.0000 0.27541  0.47725  0.32516  Biso   1.000  O
  H21      1.0000 0.31970  0.52330  0.34380  Biso   1.000  H
  H22      1.0000 0.30370  0.41880  0.34270  Biso   1.000  H
  Co3      1.0000 0.69139  0.98307  0.15761  Biso   1.000  Co
  Co4      1.0000 0.70085  0.99848  0.41458  Biso   1.000  Co
  O12      1.0000 0.01360  0.91850  0.56060  Biso   1.000  O
  O13      1.0000 0.62650  0.98320  0.99470  Biso   1.000  O
  N3       1.0000 0.09700  0.92780  0.62030  Biso   1.000  N
  N4       1.0000 0.54170  0.97370  0.93980  Biso   1.000  N
  C35      1.0000 0.14670  0.85190  0.64660  Biso   1.000  C
  H23      1.0000 0.12180  0.79540  0.62390  Biso   1.000  H
  C36      1.0000 0.23500  0.85970  0.70770  Biso   1.000  C
  H24      1.0000 0.26960  0.80840  0.72330  Biso   1.000  H
  C37      1.0000 0.27310  0.94410  0.74620  Biso   1.000  C
  C38      1.0000 0.21740  0.01730  0.71810  Biso   1.000  C
  H25      1.0000 0.23980  0.07450  0.74120  Biso   1.000  H
  C39      1.0000 0.13100  0.00820  0.65760  Biso   1.000  C
  H26      1.0000 0.09550  0.05870  0.64220  Biso   1.000  H
  C40      1.0000 0.50780  0.89120  0.91450  Biso   1.000  C
  H27      1.0000 0.54390  0.84120  0.93860  Biso   1.000  H
  C41      1.0000 0.42140  0.87810  0.85390  Biso   1.000  C
  H28      1.0000 0.39870  0.82000  0.83920  Biso   1.000  H
  C42      1.0000 0.36690  0.95490  0.81370  Biso   1.000  C
  C43      1.0000 0.40470  0.03980  0.84120  Biso   1.000  C
  H29      1.0000 0.37120  0.09140  0.81590  Biso   1.000  H
  C44      1.0000 0.49120  0.04780  0.90540  Biso   1.000  C
  H30      1.0000 0.51540  0.10480  0.92560  Biso   1.000  H
  O14      1.0000 0.63980  0.10710  0.32360  Biso   1.000  O
  O15      1.0000 0.60760  0.08190  0.15740  Biso   1.000  O
  O16      1.0000 0.29470  0.41350  0.01100  Biso   1.000  O
  O17      1.0000 0.27240  0.38300  0.15000  Biso   1.000  O
  C45      1.0000 0.47460  0.41680  0.27630  Biso   1.000  C
  H31      1.0000 0.42820  0.45650  0.25460  Biso   1.000  H
  C46      1.0000 0.54960  0.43880  0.35950  Biso   1.000  C
  H32      1.0000 0.55390  0.49270  0.39470  Biso   1.000  H
  C47      1.0000 0.62040  0.38030  0.39230  Biso   1.000  C
  H33      1.0000 0.67200  0.39660  0.44840  Biso   1.000  H
  C48      1.0000 0.61530  0.29890  0.34330  Biso   1.000  C
  H34      1.0000 0.66270  0.26030  0.36750  Biso   1.000  H
  C49      1.0000 0.53640  0.27310  0.25420  Biso   1.000  C
  C50      1.0000 0.46520  0.33310  0.22060  Biso   1.000  C
  C51      1.0000 0.38730  0.31080  0.13280  Biso   1.000  C
  C52      1.0000 0.38320  0.23390  0.07810  Biso   1.000  C
  H35      1.0000 0.33270  0.21970  0.01940  Biso   1.000  H
  C53      1.0000 0.45410  0.17720  0.10980  Biso   1.000  C
  H36      1.0000 0.45030  0.12590  0.07040  Biso   1.000  H
  C54      1.0000 0.52910  0.19360  0.19670  Biso   1.000  C
  C55      1.0000 0.59890  0.12090  0.22890  Biso   1.000  C
  C56      1.0000 0.31160  0.37500  0.09510  Biso   1.000  C
  O18      1.0000 0.76640  0.89220  0.50660  Biso   1.000  O
  O19      1.0000 0.78120  0.91970  0.66690  Biso   1.000  O
  O20      1.0000 0.11050  0.58940  0.81840  Biso   1.000  O
  O21      1.0000 0.10870  0.61280  0.66540  Biso   1.000  O
  C57      1.0000 0.90570  0.56860  0.58930  Biso   1.000  C
  H37      1.0000 0.95160  0.52830  0.60920  Biso   1.000  H
  C58      1.0000 0.82450  0.54080  0.52180  Biso   1.000  C
  H38      1.0000 0.81500  0.48140  0.49820  Biso   1.000  H
  C59      1.0000 0.75550  0.60230  0.48830  Biso   1.000  C
  H39      1.0000 0.70100  0.58420  0.43980  Biso   1.000  H
  C60      1.0000 0.76760  0.68750  0.52590  Biso   1.000  C
  H40      1.0000 0.72100  0.72690  0.50380  Biso   1.000  H
  C61      1.0000 0.84850  0.71710  0.59640  Biso   1.000  C
  C62      1.0000 0.92070  0.65580  0.62850  Biso   1.000  C
  C63      1.0000 0.00420  0.68410  0.70360  Biso   1.000  C
  C64      1.0000 0.01569  0.76569  0.75349  Biso   1.000  C
  H41      1.0000 0.06890  0.78060  0.80760  Biso   1.000  H
  C65      1.0000 0.94479  0.82736  0.72116  Biso   1.000  C
  H42      1.0000 0.95280  0.88300  0.75420  Biso   1.000  H
  C66      1.0000 0.86570  0.80661  0.64309  Biso   1.000  C
  C67      1.0000 0.79887  0.87710  0.60317  Biso   1.000  C
  C68      1.0000 0.08147  0.62385  0.73145  Biso   1.000  C
  O22      1.0000 0.77541  0.97725  0.32516  Biso   1.000  O
  H43      1.0000 0.81970  0.02330  0.34380  Biso   1.000  H
  H44      1.0000 0.80370  0.91880  0.34270  Biso   1.000  H
  Co5      1.0000 0.19139  0.51693  0.65761  Biso   1.000  Co
  Co6      1.0000 0.20085  0.50152  0.91458  Biso   1.000  Co
  O23      1.0000 0.51360  0.58150  0.06060  Biso   1.000  O
  O24      1.0000 0.12650  0.51680  0.49470  Biso   1.000  O
  N5       1.0000 0.59700  0.57220  0.12030  Biso   1.000  N
  N6       1.0000 0.04170  0.52630  0.43980  Biso   1.000  N
  C69      1.0000 0.64670  0.64810  0.14660  Biso   1.000  C
  H45      1.0000 0.62180  0.70460  0.12390  Biso   1.000  H
  C70      1.0000 0.73500  0.64030  0.20770  Biso   1.000  C
  H46      1.0000 0.76960  0.69160  0.22330  Biso   1.000  H
  C71      1.0000 0.77310  0.55590  0.24620  Biso   1.000  C
  C72      1.0000 0.71740  0.48270  0.21810  Biso   1.000  C
  H47      1.0000 0.73980  0.42550  0.24120  Biso   1.000  H
  C73      1.0000 0.63100  0.49180  0.15760  Biso   1.000  C
  H48      1.0000 0.59550  0.44130  0.14220  Biso   1.000  H
  C74      1.0000 0.00780  0.60880  0.41450  Biso   1.000  C
  H49      1.0000 0.04390  0.65880  0.43860  Biso   1.000  H
  C75      1.0000 0.92140  0.62190  0.35390  Biso   1.000  C
  H50      1.0000 0.89870  0.68000  0.33920  Biso   1.000  H
  C76      1.0000 0.86690  0.54510  0.31370  Biso   1.000  C
  C77      1.0000 0.90470  0.46020  0.34120  Biso   1.000  C
  H51      1.0000 0.87120  0.40860  0.31590  Biso   1.000  H
  C78      1.0000 0.99120  0.45220  0.40540  Biso   1.000  C
  H52      1.0000 0.01540  0.39520  0.42560  Biso   1.000  H
  O25      1.0000 0.13980  0.39290  0.82360  Biso   1.000  O
  O26      1.0000 0.10760  0.41810  0.65740  Biso   1.000  O
  O27      1.0000 0.79470  0.08650  0.51100  Biso   1.000  O
  O28      1.0000 0.77240  0.11700  0.65000  Biso   1.000  O
  C79      1.0000 0.97460  0.08320  0.77630  Biso   1.000  C
  H53      1.0000 0.92820  0.04350  0.75460  Biso   1.000  H
  C80      1.0000 0.04960  0.06120  0.85950  Biso   1.000  C
  H54      1.0000 0.05390  0.00730  0.89470  Biso   1.000  H
  C81      1.0000 0.12040  0.11970  0.89230  Biso   1.000  C
  H55      1.0000 0.17200  0.10340  0.94840  Biso   1.000  H
  C82      1.0000 0.11530  0.20110  0.84330  Biso   1.000  C
  H56      1.0000 0.16270  0.23970  0.86750  Biso   1.000  H
  C83      1.0000 0.03640  0.22690  0.75420  Biso   1.000  C
  C84      1.0000 0.96520  0.16690  0.72060  Biso   1.000  C
  C85      1.0000 0.88730  0.18920  0.63280  Biso   1.000  C
  C86      1.0000 0.88320  0.26610  0.57810  Biso   1.000  C
  H57      1.0000 0.83270  0.28030  0.51940  Biso   1.000  H
  C87      1.0000 0.95410  0.32280  0.60980  Biso   1.000  C
  H58      1.0000 0.95030  0.37410  0.57040  Biso   1.000  H
  C88      1.0000 0.02910  0.30640  0.69670  Biso   1.000  C
  C89      1.0000 0.09890  0.37910  0.72890  Biso   1.000  C
  C90      1.0000 0.81160  0.12500  0.59510  Biso   1.000  C
  O29      1.0000 0.26640  0.60780  0.00660  Biso   1.000  O
  O30      1.0000 0.28120  0.58030  0.16690  Biso   1.000  O
  O31      1.0000 0.61050  0.91060  0.31840  Biso   1.000  O
  O32      1.0000 0.60870  0.88720  0.16540  Biso   1.000  O
  C91      1.0000 0.40570  0.93140  0.08930  Biso   1.000  C
  H59      1.0000 0.45160  0.97170  0.10920  Biso   1.000  H
  C92      1.0000 0.32450  0.95920  0.02180  Biso   1.000  C
  H60      1.0000 0.31500  0.01860  0.99820  Biso   1.000  H
  C93      1.0000 0.25550  0.89770  0.98830  Biso   1.000  C
  H61      1.0000 0.20100  0.91580  0.93980  Biso   1.000  H
  C94      1.0000 0.26760  0.81250  0.02590  Biso   1.000  C
  H62      1.0000 0.22100  0.77310  0.00380  Biso   1.000  H
  C95      1.0000 0.34850  0.78290  0.09640  Biso   1.000  C
  C96      1.0000 0.42070  0.84420  0.12850  Biso   1.000  C
  C97      1.0000 0.50420  0.81590  0.20360  Biso   1.000  C
  C98      1.0000 0.51569  0.73431  0.25349  Biso   1.000  C
  H63      1.0000 0.56890  0.71940  0.30760  Biso   1.000  H
  C99      1.0000 0.44479  0.67264  0.22116  Biso   1.000  C
  H64      1.0000 0.45280  0.61700  0.25420  Biso   1.000  H
  C100     1.0000 0.36570  0.69339  0.14309  Biso   1.000  C
  C101     1.0000 0.29887  0.62290  0.10317  Biso   1.000  C
  C102     1.0000 0.58147  0.87615  0.23145  Biso   1.000  C
  O33      1.0000 0.27541  0.52275  0.82516  Biso   1.000  O
  H65      1.0000 0.31970  0.47670  0.84380  Biso   1.000  H
  H66      1.0000 0.30370  0.58120  0.84270  Biso   1.000  H
  Co7      1.0000 0.69139  0.01693  0.65761  Biso   1.000  Co
  Co8      1.0000 0.70085  0.00152  0.91458  Biso   1.000  Co
  O34      1.0000 0.01360  0.08150  0.06060  Biso   1.000  O
  O35      1.0000 0.62650  0.01680  0.49470  Biso   1.000  O
  N7       1.0000 0.09700  0.07220  0.12030  Biso   1.000  N
  N8       1.0000 0.54170  0.02630  0.43980  Biso   1.000  N
  C103     1.0000 0.14670  0.14810  0.14660  Biso   1.000  C
  H67      1.0000 0.12180  0.20460  0.12390  Biso   1.000  H
  C104     1.0000 0.23500  0.14030  0.20770  Biso   1.000  C
  H68      1.0000 0.26960  0.19160  0.22330  Biso   1.000  H
  C105     1.0000 0.27310  0.05590  0.24620  Biso   1.000  C
  C106     1.0000 0.21740  0.98270  0.21810  Biso   1.000  C
  H69      1.0000 0.23980  0.92550  0.24120  Biso   1.000  H
  C107     1.0000 0.13100  0.99180  0.15760  Biso   1.000  C
  H70      1.0000 0.09550  0.94130  0.14220  Biso   1.000  H
  C108     1.0000 0.50780  0.10880  0.41450  Biso   1.000  C
  H71      1.0000 0.54390  0.15880  0.43860  Biso   1.000  H
  C109     1.0000 0.42140  0.12190  0.35390  Biso   1.000  C
  H72      1.0000 0.39870  0.18000  0.33920  Biso   1.000  H
  C110     1.0000 0.36690  0.04510  0.31370  Biso   1.000  C
  C111     1.0000 0.40470  0.96020  0.34120  Biso   1.000  C
  H73      1.0000 0.37120  0.90860  0.31590  Biso   1.000  H
  C112     1.0000 0.49120  0.95220  0.40540  Biso   1.000  C
  H74      1.0000 0.51540  0.89520  0.42560  Biso   1.000  H
  O36      1.0000 0.63980  0.89290  0.82360  Biso   1.000  O
  O37      1.0000 0.60760  0.91810  0.65740  Biso   1.000  O
  O38      1.0000 0.29470  0.58650  0.51100  Biso   1.000  O
  O39      1.0000 0.27240  0.61700  0.65000  Biso   1.000  O
  C113     1.0000 0.47460  0.58320  0.77630  Biso   1.000  C
  H75      1.0000 0.42820  0.54350  0.75460  Biso   1.000  H
  C114     1.0000 0.54960  0.56120  0.85950  Biso   1.000  C
  H76      1.0000 0.55390  0.50730  0.89470  Biso   1.000  H
  C115     1.0000 0.62040  0.61970  0.89230  Biso   1.000  C
  H77      1.0000 0.67200  0.60340  0.94840  Biso   1.000  H
  C116     1.0000 0.61530  0.70110  0.84330  Biso   1.000  C
  H78      1.0000 0.66270  0.73970  0.86750  Biso   1.000  H
  C117     1.0000 0.53640  0.72690  0.75420  Biso   1.000  C
  C118     1.0000 0.46520  0.66690  0.72060  Biso   1.000  C
  C119     1.0000 0.38730  0.68920  0.63280  Biso   1.000  C
  C120     1.0000 0.38320  0.76610  0.57810  Biso   1.000  C
  H79      1.0000 0.33270  0.78030  0.51940  Biso   1.000  H
  C121     1.0000 0.45410  0.82280  0.60980  Biso   1.000  C
  H80      1.0000 0.45030  0.87410  0.57040  Biso   1.000  H
  C122     1.0000 0.52910  0.80640  0.69670  Biso   1.000  C
  C123     1.0000 0.59890  0.87910  0.72890  Biso   1.000  C
  C124     1.0000 0.31160  0.62500  0.59510  Biso   1.000  C
  O40      1.0000 0.76640  0.10780  0.00660  Biso   1.000  O
  O41      1.0000 0.78120  0.08030  0.16690  Biso   1.000  O
  O42      1.0000 0.11050  0.41060  0.31840  Biso   1.000  O
  O43      1.0000 0.10870  0.38720  0.16540  Biso   1.000  O
  C125     1.0000 0.90570  0.43140  0.08930  Biso   1.000  C
  H81      1.0000 0.95160  0.47170  0.10920  Biso   1.000  H
  C126     1.0000 0.82450  0.45920  0.02180  Biso   1.000  C
  H82      1.0000 0.81500  0.51860  0.99820  Biso   1.000  H
  C127     1.0000 0.75550  0.39770  0.98830  Biso   1.000  C
  H83      1.0000 0.70100  0.41580  0.93980  Biso   1.000  H
  C128     1.0000 0.76760  0.31250  0.02590  Biso   1.000  C
  H84      1.0000 0.72100  0.27310  0.00380  Biso   1.000  H
  C129     1.0000 0.84850  0.28290  0.09640  Biso   1.000  C
  C130     1.0000 0.92070  0.34420  0.12850  Biso   1.000  C
  C131     1.0000 0.00420  0.31590  0.20360  Biso   1.000  C
  C132     1.0000 0.01569  0.23431  0.25349  Biso   1.000  C
  H85      1.0000 0.06890  0.21940  0.30760  Biso   1.000  H
  C133     1.0000 0.94479  0.17264  0.22116  Biso   1.000  C
  H86      1.0000 0.95280  0.11700  0.25420  Biso   1.000  H
  C134     1.0000 0.86570  0.19339  0.14309  Biso   1.000  C
  C135     1.0000 0.79887  0.12290  0.10317  Biso   1.000  C
  C136     1.0000 0.08147  0.37615  0.23145  Biso   1.000  C
  O44      1.0000 0.77541  0.02275  0.82516  Biso   1.000  O
  H87      1.0000 0.81970  0.97670  0.84380  Biso   1.000  H
  H88      1.0000 0.80370  0.08120  0.84270  Biso   1.000  H
