data_image0
_cell_length_a       10.1746
_cell_length_b       10.1746
_cell_length_c       29.5107
_cell_angle_alpha    90
_cell_angle_beta     90
_cell_angle_gamma    90

_symmetry_space_group_name_H-M    "P 1"
_symmetry_int_tables_number       1

loop_
  _symmetry_equiv_pos_as_xyz
  'x, y, z'

loop_
  _atom_site_label
  _atom_site_occupancy
  _atom_site_fract_x
  _atom_site_fract_y
  _atom_site_fract_z
  _atom_site_thermal_displace_type
  _atom_site_B_iso_or_equiv
  _atom_site_type_symbol
  S1       1.0000 0.34284  0.39974  0.94163  Biso   1.000  S
  S2       1.0000 0.07460  0.66758  0.91464  Biso   1.000  S
  C1       1.0000 0.06280  0.78380  0.87530  Biso   1.000  C
  C2       1.0000 0.21960  0.42890  0.97739  Biso   1.000  C
  N1       1.0000 0.13560  0.44840  0.00263  Biso   1.000  N
  N2       1.0000 0.05140  0.86680  0.84917  Biso   1.000  N
  S3       1.0000 0.84284  0.89974  0.44163  Biso   1.000  S
  S4       1.0000 0.57460  0.16758  0.41464  Biso   1.000  S
  C3       1.0000 0.56280  0.28380  0.37530  Biso   1.000  C
  C4       1.0000 0.71960  0.92890  0.47739  Biso   1.000  C
  N3       1.0000 0.63560  0.94840  0.50263  Biso   1.000  N
  N4       1.0000 0.55140  0.36680  0.34917  Biso   1.000  N
  S5       1.0000 0.65716  0.60026  0.94163  Biso   1.000  S
  S6       1.0000 0.92540  0.33242  0.91464  Biso   1.000  S
  C5       1.0000 0.93720  0.21620  0.87530  Biso   1.000  C
  C6       1.0000 0.78040  0.57110  0.97739  Biso   1.000  C
  N5       1.0000 0.86440  0.55160  0.00263  Biso   1.000  N
  N6       1.0000 0.94860  0.13320  0.84917  Biso   1.000  N
  S7       1.0000 0.15716  0.10026  0.44163  Biso   1.000  S
  S8       1.0000 0.42540  0.83242  0.41464  Biso   1.000  S
  C7       1.0000 0.43720  0.71620  0.37530  Biso   1.000  C
  C8       1.0000 0.28040  0.07110  0.47739  Biso   1.000  C
  N7       1.0000 0.36440  0.05160  0.50263  Biso   1.000  N
  N8       1.0000 0.44860  0.63320  0.34917  Biso   1.000  N
  S9       1.0000 0.39974  0.65716  0.05837  Biso   1.000  S
  S10      1.0000 0.66758  0.92540  0.08536  Biso   1.000  S
  C9       1.0000 0.78380  0.93720  0.12470  Biso   1.000  C
  C10      1.0000 0.42890  0.78040  0.02261  Biso   1.000  C
  N9       1.0000 0.44840  0.86440  0.99737  Biso   1.000  N
  N10      1.0000 0.86680  0.94860  0.15083  Biso   1.000  N
  S11      1.0000 0.89974  0.15716  0.55837  Biso   1.000  S
  S12      1.0000 0.16758  0.42540  0.58536  Biso   1.000  S
  C11      1.0000 0.28380  0.43720  0.62470  Biso   1.000  C
  C12      1.0000 0.92890  0.28040  0.52261  Biso   1.000  C
  N11      1.0000 0.94840  0.36440  0.49737  Biso   1.000  N
  N12      1.0000 0.36680  0.44860  0.65083  Biso   1.000  N
  S13      1.0000 0.60026  0.34284  0.05837  Biso   1.000  S
  S14      1.0000 0.33242  0.07460  0.08536  Biso   1.000  S
  C13      1.0000 0.21620  0.06280  0.12470  Biso   1.000  C
  C14      1.0000 0.57110  0.21960  0.02261  Biso   1.000  C
  N13      1.0000 0.55160  0.13560  0.99737  Biso   1.000  N
  N14      1.0000 0.13320  0.05140  0.15083  Biso   1.000  N
  S15      1.0000 0.10026  0.84284  0.55837  Biso   1.000  S
  S16      1.0000 0.83242  0.57460  0.58536  Biso   1.000  S
  C15      1.0000 0.71620  0.56280  0.62470  Biso   1.000  C
  C16      1.0000 0.07110  0.71960  0.52261  Biso   1.000  C
  N15      1.0000 0.05160  0.63560  0.49737  Biso   1.000  N
  N16      1.0000 0.63320  0.55140  0.65083  Biso   1.000  N
  S17      1.0000 0.15716  0.39974  0.80837  Biso   1.000  S
  S18      1.0000 0.42540  0.66758  0.83536  Biso   1.000  S
  C17      1.0000 0.43720  0.78380  0.87470  Biso   1.000  C
  C18      1.0000 0.28040  0.42890  0.77261  Biso   1.000  C
  N17      1.0000 0.36440  0.44840  0.74737  Biso   1.000  N
  N18      1.0000 0.44860  0.86680  0.90083  Biso   1.000  N
  S19      1.0000 0.65716  0.89974  0.30837  Biso   1.000  S
  S20      1.0000 0.92540  0.16758  0.33536  Biso   1.000  S
  C19      1.0000 0.93720  0.28380  0.37470  Biso   1.000  C
  C20      1.0000 0.78040  0.92890  0.27261  Biso   1.000  C
  N19      1.0000 0.86440  0.94840  0.24737  Biso   1.000  N
  N20      1.0000 0.94860  0.36680  0.40083  Biso   1.000  N
  S21      1.0000 0.84284  0.60026  0.80837  Biso   1.000  S
  S22      1.0000 0.57460  0.33242  0.83536  Biso   1.000  S
  C21      1.0000 0.56280  0.21620  0.87470  Biso   1.000  C
  C22      1.0000 0.71960  0.57110  0.77261  Biso   1.000  C
  N21      1.0000 0.63560  0.55160  0.74737  Biso   1.000  N
  N22      1.0000 0.55140  0.13320  0.90083  Biso   1.000  N
  S23      1.0000 0.34284  0.10026  0.30837  Biso   1.000  S
  S24      1.0000 0.07460  0.83242  0.33536  Biso   1.000  S
  C23      1.0000 0.06280  0.71620  0.37470  Biso   1.000  C
  C24      1.0000 0.21960  0.07110  0.27261  Biso   1.000  C
  N23      1.0000 0.13560  0.05160  0.24737  Biso   1.000  N
  N24      1.0000 0.05140  0.63320  0.40083  Biso   1.000  N
  S25      1.0000 0.10026  0.65716  0.69163  Biso   1.000  S
  S26      1.0000 0.83242  0.92540  0.66464  Biso   1.000  S
  C25      1.0000 0.71620  0.93720  0.62530  Biso   1.000  C
  C26      1.0000 0.07110  0.78040  0.72739  Biso   1.000  C
  N25      1.0000 0.05160  0.86440  0.75263  Biso   1.000  N
  N26      1.0000 0.63320  0.94860  0.59917  Biso   1.000  N
  S27      1.0000 0.60026  0.15716  0.19163  Biso   1.000  S
  S28      1.0000 0.33242  0.42540  0.16464  Biso   1.000  S
  C27      1.0000 0.21620  0.43720  0.12530  Biso   1.000  C
  C28      1.0000 0.57110  0.28040  0.22739  Biso   1.000  C
  N27      1.0000 0.55160  0.36440  0.25263  Biso   1.000  N
  N28      1.0000 0.13320  0.44860  0.09917  Biso   1.000  N
  S29      1.0000 0.89974  0.34284  0.69163  Biso   1.000  S
  S30      1.0000 0.16758  0.07460  0.66464  Biso   1.000  S
  C29      1.0000 0.28380  0.06280  0.62530  Biso   1.000  C
  C30      1.0000 0.92890  0.21960  0.72739  Biso   1.000  C
  N29      1.0000 0.94840  0.13560  0.75263  Biso   1.000  N
  N30      1.0000 0.36680  0.05140  0.59917  Biso   1.000  N
  S31      1.0000 0.39974  0.84284  0.19163  Biso   1.000  S
  S32      1.0000 0.66758  0.57460  0.16464  Biso   1.000  S
  C31      1.0000 0.78380  0.56280  0.12530  Biso   1.000  C
  C32      1.0000 0.42890  0.71960  0.22739  Biso   1.000  C
  N31      1.0000 0.44840  0.63560  0.25263  Biso   1.000  N
  N32      1.0000 0.86680  0.55140  0.09917  Biso   1.000  N
  Hg1      1.0000 0.25000  0.52953  0.87500  Biso   1.000  Hg
  Hg2      1.0000 0.75000  0.02953  0.37500  Biso   1.000  Hg
  Hg3      1.0000 0.75000  0.47047  0.87500  Biso   1.000  Hg
  Hg4      1.0000 0.25000  0.97047  0.37500  Biso   1.000  Hg
  Hg5      1.0000 0.52953  0.75000  0.12500  Biso   1.000  Hg
  Hg6      1.0000 0.47047  0.25000  0.12500  Biso   1.000  Hg
  Hg7      1.0000 0.97047  0.75000  0.62500  Biso   1.000  Hg
  Hg8      1.0000 0.02953  0.25000  0.62500  Biso   1.000  Hg
  Ni1      1.0000 0.00000  0.50000  0.05060  Biso   1.000  Ni
  Ni2      1.0000 0.50000  0.00000  0.55060  Biso   1.000  Ni
  Ni3      1.0000 0.50000  0.00000  0.94940  Biso   1.000  Ni
  Ni4      1.0000 0.00000  0.50000  0.44940  Biso   1.000  Ni
  Ni5      1.0000 0.50000  0.50000  0.69940  Biso   1.000  Ni
  Ni6      1.0000 0.00000  0.00000  0.19940  Biso   1.000  Ni
  Ni7      1.0000 0.00000  0.00000  0.80060  Biso   1.000  Ni
  Ni8      1.0000 0.50000  0.50000  0.30060  Biso   1.000  Ni
