data_image0
_cell_length_a       9.582
_cell_length_b       10.467
_cell_length_c       17.92
_cell_angle_alpha    74.753
_cell_angle_beta     77.643
_cell_angle_gamma    73.093

_symmetry_space_group_name_H-M    "P 1"
_symmetry_int_tables_number       1

loop_
  _symmetry_equiv_pos_as_xyz
  'x, y, z'

loop_
  _atom_site_label
  _atom_site_occupancy
  _atom_site_fract_x
  _atom_site_fract_y
  _atom_site_fract_z
  _atom_site_thermal_displace_type
  _atom_site_B_iso_or_equiv
  _atom_site_type_symbol
  N1       1.0000 0.09890  0.84970  0.84720  Biso   1.000  N
  N2       1.0000 0.73230  0.84900  0.08530  Biso   1.000  N
  N3       1.0000 0.29960  0.11370  0.36710  Biso   1.000  N
  O1       1.0000 0.05330  0.83990  0.92270  Biso   1.000  O
  O2       1.0000 0.16670  0.80880  0.57030  Biso   1.000  O
  O3       1.0000 0.38580  0.82760  0.58160  Biso   1.000  O
  O4       1.0000 0.86150  0.85890  0.09490  Biso   1.000  O
  O5       1.0000 0.20010  0.87490  0.07970  Biso   1.000  O
  O6       1.0000 0.33710  0.70830  0.01860  Biso   1.000  O
  O7       1.0000 0.31800  0.00880  0.42890  Biso   1.000  O
  O8       1.0000 0.16800  0.55390  0.17890  Biso   1.000  O
  O9       1.0000 0.29900  0.41120  0.09980  Biso   1.000  O
  C1       1.0000 0.23960  0.84850  0.81680  Biso   1.000  C
  H1       1.0000 0.30440  0.84970  0.84840  Biso   1.000  H
  C2       1.0000 0.28890  0.84550  0.73930  Biso   1.000  C
  H2       1.0000 0.38660  0.84590  0.71890  Biso   1.000  H
  C3       1.0000 0.19580  0.84200  0.69120  Biso   1.000  C
  C4       1.0000 0.05480  0.84250  0.72350  Biso   1.000  C
  H3       1.0000 0.99050  0.83660  0.69310  Biso   1.000  H
  C5       1.0000 0.00340  0.85150  0.80080  Biso   1.000  C
  H4       1.0000 0.90410  0.85880  0.82070  Biso   1.000  H
  C6       1.0000 0.25440  0.82290  0.60760  Biso   1.000  C
  C7       1.0000 0.61640  0.86550  0.14320  Biso   1.000  C
  H5       1.0000 0.62740  0.88490  0.18910  Biso   1.000  H
  C8       1.0000 0.48120  0.85350  0.13390  Biso   1.000  C
  H6       1.0000 0.40130  0.86630  0.17350  Biso   1.000  H
  C9       1.0000 0.46370  0.82240  0.06630  Biso   1.000  C
  C10      1.0000 0.58490  0.80670  0.00840  Biso   1.000  C
  H7       1.0000 0.57650  0.78700  0.96220  Biso   1.000  H
  C11      1.0000 0.71760  0.82000  0.01870  Biso   1.000  C
  H8       1.0000 0.79820  0.80900  0.97930  Biso   1.000  H
  C12      1.0000 0.32410  0.79790  0.05350  Biso   1.000  C
  C13      1.0000 0.23940  0.24230  0.37550  Biso   1.000  C
  H9       1.0000 0.21050  0.26150  0.42520  Biso   1.000  H
  C14      1.0000 0.22060  0.34500  0.31090  Biso   1.000  C
  H10      1.0000 0.17350  0.43370  0.31680  Biso   1.000  H
  C15      1.0000 0.27050  0.32000  0.23610  Biso   1.000  C
  C16      1.0000 0.35300  0.08090  0.29380  Biso   1.000  C
  H11      1.0000 0.39780  0.99120  0.28890  Biso   1.000  H
  C17      1.0000 0.33660  0.18600  0.22930  Biso   1.000  C
  H12      1.0000 0.37060  0.16700  0.17980  Biso   1.000  H
  C18      1.0000 0.24440  0.43810  0.16720  Biso   1.000  C
  N4       1.0000 0.90110  0.15030  0.15280  Biso   1.000  N
  N5       1.0000 0.26770  0.15100  0.91470  Biso   1.000  N
  N6       1.0000 0.70040  0.88630  0.63290  Biso   1.000  N
  O10      1.0000 0.94670  0.16010  0.07730  Biso   1.000  O
  O11      1.0000 0.83330  0.19120  0.42970  Biso   1.000  O
  O12      1.0000 0.61420  0.17240  0.41840  Biso   1.000  O
  O13      1.0000 0.13850  0.14110  0.90510  Biso   1.000  O
  O14      1.0000 0.79990  0.12510  0.92030  Biso   1.000  O
  O15      1.0000 0.66290  0.29170  0.98140  Biso   1.000  O
  O16      1.0000 0.68200  0.99120  0.57110  Biso   1.000  O
  O17      1.0000 0.83200  0.44610  0.82110  Biso   1.000  O
  O18      1.0000 0.70100  0.58880  0.90020  Biso   1.000  O
  C19      1.0000 0.76040  0.15150  0.18320  Biso   1.000  C
  H13      1.0000 0.69560  0.15030  0.15160  Biso   1.000  H
  C20      1.0000 0.71110  0.15450  0.26070  Biso   1.000  C
  H14      1.0000 0.61340  0.15410  0.28110  Biso   1.000  H
  C21      1.0000 0.80420  0.15800  0.30880  Biso   1.000  C
  C22      1.0000 0.94520  0.15750  0.27650  Biso   1.000  C
  H15      1.0000 0.00950  0.16340  0.30690  Biso   1.000  H
  C23      1.0000 0.99660  0.14850  0.19920  Biso   1.000  C
  H16      1.0000 0.09590  0.14120  0.17930  Biso   1.000  H
  C24      1.0000 0.74560  0.17710  0.39240  Biso   1.000  C
  C25      1.0000 0.38360  0.13450  0.85680  Biso   1.000  C
  H17      1.0000 0.37260  0.11510  0.81090  Biso   1.000  H
  C26      1.0000 0.51880  0.14650  0.86610  Biso   1.000  C
  H18      1.0000 0.59870  0.13370  0.82650  Biso   1.000  H
  C27      1.0000 0.53630  0.17760  0.93370  Biso   1.000  C
  C28      1.0000 0.41510  0.19330  0.99160  Biso   1.000  C
  H19      1.0000 0.42350  0.21300  0.03780  Biso   1.000  H
  C29      1.0000 0.28240  0.18000  0.98130  Biso   1.000  C
  H20      1.0000 0.20180  0.19100  0.02070  Biso   1.000  H
  C30      1.0000 0.67590  0.20210  0.94650  Biso   1.000  C
  C31      1.0000 0.76060  0.75770  0.62450  Biso   1.000  C
  H21      1.0000 0.78950  0.73850  0.57480  Biso   1.000  H
  C32      1.0000 0.77940  0.65500  0.68910  Biso   1.000  C
  H22      1.0000 0.82650  0.56630  0.68320  Biso   1.000  H
  C33      1.0000 0.72950  0.68000  0.76390  Biso   1.000  C
  C34      1.0000 0.64700  0.91910  0.70620  Biso   1.000  C
  H23      1.0000 0.60220  0.00880  0.71110  Biso   1.000  H
  C35      1.0000 0.66340  0.81400  0.77070  Biso   1.000  C
  H24      1.0000 0.62940  0.83300  0.82020  Biso   1.000  H
  C36      1.0000 0.75560  0.56190  0.83280  Biso   1.000  C
  Na1      1.0000 0.00000  0.00000  0.00000  Biso   1.000  Na
  Na2      1.0000 0.50000  0.00000  0.50000  Biso   1.000  Na
  Na3      1.0000 0.50000  0.50000  0.00000  Biso   1.000  Na
