data_TONBUU_charged
_audit_creation_date              2014-07-02
_audit_creation_method            'Materials Studio'
_symmetry_space_group_name_H-M    'P1'
_symmetry_Int_Tables_number       1
_symmetry_cell_setting            triclinic
loop_
_symmetry_equiv_pos_as_xyz
  x,y,z
_cell_length_a                    14.1157
_cell_length_b                    17.8669
_cell_length_c                    19.8394
_cell_angle_alpha                 91.2560
_cell_angle_beta                  90.0000
_cell_angle_gamma                 90.0000
loop_
_atom_site_label
_atom_site_type_symbol
_atom_site_fract_x
_atom_site_fract_y
_atom_site_fract_z
_atom_site_U_iso_or_equiv
_atom_site_adp_type
_atom_site_occupancy
Ni1    Ni    0.94810   0.75194   0.57093   0.01267  Uiso   1.00
Ni2    Ni    0.18403   0.79743   0.58408   0.01267  Uiso   1.00
Ni3    Ni    0.20592   0.30263   0.55638   0.01267  Uiso   1.00
Ni4    Ni    0.44810   0.74806   0.92907   0.01267  Uiso   1.00
Ni5    Ni    0.68403   0.70257   0.91592   0.01267  Uiso   1.00
Ni6    Ni    0.70592   0.19737   0.94362   0.01267  Uiso   1.00
Ni7    Ni    0.05190   0.24806   0.42907   0.01267  Uiso   1.00
Ni8    Ni    0.81597   0.20257   0.41592   0.01267  Uiso   1.00
Ni9    Ni    0.79408   0.69737   0.44362   0.01267  Uiso   1.00
Ni10   Ni    0.55190   0.25194   0.07093   0.01267  Uiso   1.00
Ni11   Ni    0.31597   0.29743   0.08408   0.01267  Uiso   1.00
Ni12   Ni    0.29408   0.80263   0.05638   0.01267  Uiso   1.00
H1     H     0.01010   0.68190   0.42750   0.01267  Uiso   1.00
H2     H     0.99830   0.46160   0.37640   0.01267  Uiso   1.00
H3     H     0.19200   0.53660   0.51490   0.01267  Uiso   1.00
H4     H     0.86290   0.96210   0.39940   0.01267  Uiso   1.00
H5     H     0.13510   0.03190   0.42720   0.01267  Uiso   1.00
H6     H     0.07100   0.81270   0.44370   0.01267  Uiso   1.00
H7     H     0.06030   0.70300   0.95880   0.01267  Uiso   1.00
H8     H     0.92550   0.70400   0.77930   0.01267  Uiso   1.00
H9     H     0.20620   0.74520   0.78920   0.01267  Uiso   1.00
H10    H     0.60080   0.36390   0.49880   0.01267  Uiso   1.00
H11    H     0.56650   0.44710   0.51800   0.01267  Uiso   1.00
H12    H     0.51050   0.39890   0.46130   0.01267  Uiso   1.00
H13    H     0.59070   0.36030   0.62370   0.01267  Uiso   1.00
H14    H     0.49030   0.34400   0.65490   0.01267  Uiso   1.00
H15    H     0.54150   0.28280   0.60960   0.01267  Uiso   1.00
H16    H     0.36530   0.38000   0.50930   0.01267  Uiso   1.00
H17    H     0.51010   0.81810   0.07250   0.01267  Uiso   1.00
H18    H     0.49830   0.03840   0.12360   0.01267  Uiso   1.00
H19    H     0.69200   0.96340   0.98510   0.01267  Uiso   1.00
H20    H     0.36290   0.53790   0.10060   0.01267  Uiso   1.00
H21    H     0.63510   0.46810   0.07280   0.01267  Uiso   1.00
H22    H     0.57100   0.68730   0.05630   0.01267  Uiso   1.00
H23    H     0.56030   0.79700   0.54120   0.01267  Uiso   1.00
H24    H     0.42550   0.79600   0.72070   0.01267  Uiso   1.00
H25    H     0.70620   0.75480   0.71080   0.01267  Uiso   1.00
H26    H     0.10080   0.13610   0.00120   0.01267  Uiso   1.00
H27    H     0.06650   0.05290   0.98200   0.01267  Uiso   1.00
H28    H     0.01050   0.10110   0.03870   0.01267  Uiso   1.00
H29    H     0.09070   0.13970   0.87630   0.01267  Uiso   1.00
H30    H     0.99030   0.15600   0.84510   0.01267  Uiso   1.00
H31    H     0.04150   0.21720   0.89040   0.01267  Uiso   1.00
H32    H     0.86530   0.12000   0.99070   0.01267  Uiso   1.00
H33    H     0.98990   0.31810   0.57250   0.01267  Uiso   1.00
H34    H     0.00170   0.53840   0.62360   0.01267  Uiso   1.00
H35    H     0.80800   0.46340   0.48510   0.01267  Uiso   1.00
H36    H     0.13710   0.03790   0.60060   0.01267  Uiso   1.00
H37    H     0.86490   0.96810   0.57280   0.01267  Uiso   1.00
H38    H     0.92900   0.18730   0.55630   0.01267  Uiso   1.00
H39    H     0.93970   0.29700   0.04120   0.01267  Uiso   1.00
H40    H     0.07450   0.29600   0.22070   0.01267  Uiso   1.00
H41    H     0.79380   0.25480   0.21080   0.01267  Uiso   1.00
H42    H     0.39920   0.63610   0.50120   0.01267  Uiso   1.00
H43    H     0.43350   0.55290   0.48200   0.01267  Uiso   1.00
H44    H     0.48950   0.60110   0.53870   0.01267  Uiso   1.00
H45    H     0.40930   0.63970   0.37630   0.01267  Uiso   1.00
H46    H     0.50970   0.65600   0.34510   0.01267  Uiso   1.00
H47    H     0.45850   0.71720   0.39040   0.01267  Uiso   1.00
H48    H     0.63470   0.62000   0.49070   0.01267  Uiso   1.00
H49    H     0.48990   0.18190   0.92750   0.01267  Uiso   1.00
H50    H     0.50170   0.96160   0.87640   0.01267  Uiso   1.00
H51    H     0.30800   0.03660   0.01490   0.01267  Uiso   1.00
H52    H     0.63710   0.46210   0.89940   0.01267  Uiso   1.00
H53    H     0.36490   0.53190   0.92720   0.01267  Uiso   1.00
H54    H     0.42900   0.31270   0.94370   0.01267  Uiso   1.00
H55    H     0.43970   0.20300   0.45880   0.01267  Uiso   1.00
H56    H     0.57450   0.20400   0.27930   0.01267  Uiso   1.00
H57    H     0.29380   0.24520   0.28920   0.01267  Uiso   1.00
H58    H     0.89920   0.86390   0.99880   0.01267  Uiso   1.00
H59    H     0.93350   0.94710   0.01800   0.01267  Uiso   1.00
H60    H     0.98950   0.89890   0.96130   0.01267  Uiso   1.00
H61    H     0.90930   0.86030   0.12370   0.01267  Uiso   1.00
H62    H     0.00970   0.84400   0.15490   0.01267  Uiso   1.00
H63    H     0.95850   0.78280   0.10960   0.01267  Uiso   1.00
H64    H     0.13470   0.88000   0.00930   0.01267  Uiso   1.00
C1     C     0.06670   0.74190   0.69740   0.01267  Uiso   1.00
C2     C     0.14250   0.68160   0.51940   0.01267  Uiso   1.00
C3     C     0.10840   0.61800   0.47670   0.01267  Uiso   1.00
C4     C     0.03330   0.63240   0.43150   0.01267  Uiso   1.00
C5     C     0.99220   0.57520   0.39330   0.01267  Uiso   1.00
C6     C     0.02590   0.50230   0.40160   0.01267  Uiso   1.00
C7     C     0.09900   0.48810   0.44660   0.01267  Uiso   1.00
C8     C     0.14100   0.54610   0.48410   0.01267  Uiso   1.00
C9     C     0.12280   0.40650   0.46200   0.01267  Uiso   1.00
C10    C     0.88580   0.81590   0.42950   0.01267  Uiso   1.00
C11    C     0.95600   0.87840   0.42400   0.01267  Uiso   1.00
C12    C     0.92650   0.95170   0.41030   0.01267  Uiso   1.00
C13    C     0.99390   0.00950   0.41310   0.01267  Uiso   1.00
C14    C     0.08930   0.99280   0.42610   0.01267  Uiso   1.00
C15    C     0.11760   0.92010   0.43650   0.01267  Uiso   1.00
C16    C     0.05080   0.86240   0.43600   0.01267  Uiso   1.00
C17    C     0.21980   0.90490   0.45440   0.01267  Uiso   1.00
C18    C     0.96480   0.09110   0.41070   0.01267  Uiso   1.00
C19    C     0.23640   0.73490   0.92150   0.01267  Uiso   1.00
C20    C     0.14740   0.72320   0.87840   0.01267  Uiso   1.00
C21    C     0.06230   0.70720   0.91130   0.01267  Uiso   1.00
C22    C     0.98040   0.70000   0.87330   0.01267  Uiso   1.00
C23    C     0.98170   0.70930   0.80480   0.01267  Uiso   1.00
C24    C     0.06640   0.72620   0.77270   0.01267  Uiso   1.00
C25    C     0.14900   0.73280   0.81090   0.01267  Uiso   1.00
C26    C     0.88890   0.68440   0.91030   0.01267  Uiso   1.00
C27    C     0.90910   0.59150   0.34790   0.01267  Uiso   1.00
C28    C     0.39140   0.36290   0.55030   0.01267  Uiso   1.00
C29    C     0.54460   0.39600   0.50470   0.01267  Uiso   1.00
C30    C     0.52990   0.33640   0.61510   0.01267  Uiso   1.00
C31    C     0.56670   0.75810   0.80260   0.01267  Uiso   1.00
C32    C     0.64250   0.81840   0.98060   0.01267  Uiso   1.00
C33    C     0.60840   0.88200   0.02330   0.01267  Uiso   1.00
C34    C     0.53330   0.86760   0.06850   0.01267  Uiso   1.00
C35    C     0.49220   0.92480   0.10670   0.01267  Uiso   1.00
C36    C     0.52590   0.99770   0.09840   0.01267  Uiso   1.00
C37    C     0.59900   0.01190   0.05340   0.01267  Uiso   1.00
C38    C     0.64100   0.95390   0.01590   0.01267  Uiso   1.00
C39    C     0.62280   0.09350   0.03800   0.01267  Uiso   1.00
C40    C     0.38580   0.68410   0.07050   0.01267  Uiso   1.00
C41    C     0.45600   0.62160   0.07600   0.01267  Uiso   1.00
C42    C     0.42650   0.54830   0.08970   0.01267  Uiso   1.00
C43    C     0.49390   0.49050   0.08690   0.01267  Uiso   1.00
C44    C     0.58930   0.50720   0.07390   0.01267  Uiso   1.00
C45    C     0.61760   0.57990   0.06350   0.01267  Uiso   1.00
C46    C     0.55080   0.63760   0.06400   0.01267  Uiso   1.00
C47    C     0.71980   0.59510   0.04560   0.01267  Uiso   1.00
C48    C     0.46480   0.40890   0.08930   0.01267  Uiso   1.00
C49    C     0.73640   0.76510   0.57850   0.01267  Uiso   1.00
C50    C     0.64740   0.77680   0.62160   0.01267  Uiso   1.00
C51    C     0.56230   0.79280   0.58870   0.01267  Uiso   1.00
C52    C     0.48040   0.80000   0.62670   0.01267  Uiso   1.00
C53    C     0.48170   0.79070   0.69520   0.01267  Uiso   1.00
C54    C     0.56640   0.77380   0.72730   0.01267  Uiso   1.00
C55    C     0.64900   0.76720   0.68910   0.01267  Uiso   1.00
C56    C     0.38890   0.81560   0.58970   0.01267  Uiso   1.00
C57    C     0.40910   0.90850   0.15210   0.01267  Uiso   1.00
C58    C     0.89140   0.13710   0.94970   0.01267  Uiso   1.00
C59    C     0.04460   0.10400   0.99530   0.01267  Uiso   1.00
C60    C     0.02990   0.16360   0.88490   0.01267  Uiso   1.00
C61    C     0.93330   0.25810   0.30260   0.01267  Uiso   1.00
C62    C     0.85750   0.31840   0.48060   0.01267  Uiso   1.00
C63    C     0.89160   0.38200   0.52330   0.01267  Uiso   1.00
C64    C     0.96670   0.36760   0.56850   0.01267  Uiso   1.00
C65    C     0.00780   0.42480   0.60670   0.01267  Uiso   1.00
C66    C     0.97410   0.49770   0.59840   0.01267  Uiso   1.00
C67    C     0.90100   0.51190   0.55340   0.01267  Uiso   1.00
C68    C     0.85900   0.45390   0.51590   0.01267  Uiso   1.00
C69    C     0.87720   0.59350   0.53800   0.01267  Uiso   1.00
C70    C     0.11420   0.18410   0.57050   0.01267  Uiso   1.00
C71    C     0.04400   0.12160   0.57600   0.01267  Uiso   1.00
C72    C     0.07350   0.04830   0.58970   0.01267  Uiso   1.00
C73    C     0.00610   0.99050   0.58690   0.01267  Uiso   1.00
C74    C     0.91070   0.00720   0.57390   0.01267  Uiso   1.00
C75    C     0.88240   0.07990   0.56350   0.01267  Uiso   1.00
C76    C     0.94920   0.13760   0.56400   0.01267  Uiso   1.00
C77    C     0.78020   0.09510   0.54560   0.01267  Uiso   1.00
C78    C     0.03520   0.90890   0.58930   0.01267  Uiso   1.00
C79    C     0.76360   0.26510   0.07850   0.01267  Uiso   1.00
C80    C     0.85260   0.27680   0.12160   0.01267  Uiso   1.00
C81    C     0.93770   0.29280   0.08870   0.01267  Uiso   1.00
C82    C     0.01960   0.30000   0.12670   0.01267  Uiso   1.00
C83    C     0.01830   0.29070   0.19520   0.01267  Uiso   1.00
C84    C     0.93360   0.27380   0.22730   0.01267  Uiso   1.00
C85    C     0.85100   0.26720   0.18910   0.01267  Uiso   1.00
C86    C     0.11110   0.31560   0.08970   0.01267  Uiso   1.00
C87    C     0.09090   0.40850   0.65210   0.01267  Uiso   1.00
C88    C     0.60860   0.63710   0.44970   0.01267  Uiso   1.00
C89    C     0.45540   0.60400   0.49530   0.01267  Uiso   1.00
C90    C     0.47010   0.66360   0.38490   0.01267  Uiso   1.00
C91    C     0.43330   0.24190   0.19740   0.01267  Uiso   1.00
C92    C     0.35750   0.18160   0.01940   0.01267  Uiso   1.00
C93    C     0.39160   0.11800   0.97670   0.01267  Uiso   1.00
C94    C     0.46670   0.13240   0.93150   0.01267  Uiso   1.00
C95    C     0.50780   0.07520   0.89330   0.01267  Uiso   1.00
C96    C     0.47410   0.00230   0.90160   0.01267  Uiso   1.00
C97    C     0.40100   0.98810   0.94660   0.01267  Uiso   1.00
C98    C     0.35900   0.04610   0.98410   0.01267  Uiso   1.00
C99    C     0.37720   0.90650   0.96200   0.01267  Uiso   1.00
C100   C     0.61420   0.31590   0.92950   0.01267  Uiso   1.00
C101   C     0.54400   0.37840   0.92400   0.01267  Uiso   1.00
C102   C     0.57350   0.45170   0.91030   0.01267  Uiso   1.00
C103   C     0.50610   0.50950   0.91310   0.01267  Uiso   1.00
C104   C     0.41070   0.49280   0.92610   0.01267  Uiso   1.00
C105   C     0.38240   0.42010   0.93650   0.01267  Uiso   1.00
C106   C     0.44920   0.36240   0.93600   0.01267  Uiso   1.00
C107   C     0.28020   0.40490   0.95440   0.01267  Uiso   1.00
C108   C     0.53520   0.59110   0.91070   0.01267  Uiso   1.00
C109   C     0.26360   0.23490   0.42150   0.01267  Uiso   1.00
C110   C     0.35260   0.22320   0.37840   0.01267  Uiso   1.00
C111   C     0.43770   0.20720   0.41130   0.01267  Uiso   1.00
C112   C     0.51960   0.20000   0.37330   0.01267  Uiso   1.00
C113   C     0.51830   0.20930   0.30480   0.01267  Uiso   1.00
C114   C     0.43360   0.22620   0.27270   0.01267  Uiso   1.00
C115   C     0.35100   0.23280   0.31090   0.01267  Uiso   1.00
C116   C     0.61110   0.18440   0.41030   0.01267  Uiso   1.00
C117   C     0.59090   0.09150   0.84790   0.01267  Uiso   1.00
C118   C     0.10860   0.86290   0.05030   0.01267  Uiso   1.00
C119   C     0.95540   0.89600   0.00470   0.01267  Uiso   1.00
C120   C     0.97010   0.83640   0.11510   0.01267  Uiso   1.00
N1     N     0.48380   0.36660   0.55610   0.01267  Uiso   1.00
N2     N     0.98380   0.13340   0.94390   0.01267  Uiso   1.00
N3     N     0.51620   0.63340   0.44390   0.01267  Uiso   1.00
N4     N     0.01620   0.86660   0.05610   0.01267  Uiso   1.00
O1     O     0.98980   0.73840   0.66810   0.01267  Uiso   1.00
O2     O     0.14840   0.75700   0.67310   0.01267  Uiso   1.00
O3     O     0.08540   0.73670   0.53340   0.01267  Uiso   1.00
O4     O     0.22550   0.68460   0.54310   0.01267  Uiso   1.00
O5     O     0.07340   0.35810   0.43240   0.01267  Uiso   1.00
O6     O     0.18820   0.39600   0.50450   0.01267  Uiso   1.00
O7     O     0.90620   0.76310   0.46950   0.01267  Uiso   1.00
O8     O     0.81270   0.81170   0.39430   0.01267  Uiso   1.00
O9     O     0.23480   0.84040   0.48410   0.01267  Uiso   1.00
O10    O     0.28140   0.94940   0.44220   0.01267  Uiso   1.00
O11    O     0.87710   0.10320   0.40070   0.01267  Uiso   1.00
O12    O     0.02910   0.13740   0.41850   0.01267  Uiso   1.00
O13    O     0.22010   0.74880   0.98390   0.01267  Uiso   1.00
O14    O     0.31450   0.73060   0.89200   0.01267  Uiso   1.00
O15    O     0.81360   0.67880   0.87730   0.01267  Uiso   1.00
O16    O     0.89510   0.67970   0.97480   0.01267  Uiso   1.00
O17    O     0.86040   0.65110   0.36030   0.01267  Uiso   1.00
O18    O     0.89120   0.54620   0.30170   0.01267  Uiso   1.00
O19    O     0.33550   0.33810   0.59260   0.01267  Uiso   1.00
O20    O     0.48980   0.76160   0.83190   0.01267  Uiso   1.00
O21    O     0.64840   0.74300   0.82690   0.01267  Uiso   1.00
O22    O     0.58540   0.76330   0.96660   0.01267  Uiso   1.00
O23    O     0.72550   0.81540   0.95690   0.01267  Uiso   1.00
O24    O     0.57340   0.14190   0.06760   0.01267  Uiso   1.00
O25    O     0.68820   0.10400   0.99550   0.01267  Uiso   1.00
O26    O     0.40620   0.73690   0.03050   0.01267  Uiso   1.00
O27    O     0.31270   0.68830   0.10570   0.01267  Uiso   1.00
O28    O     0.73480   0.65960   0.01590   0.01267  Uiso   1.00
O29    O     0.78140   0.55060   0.05780   0.01267  Uiso   1.00
O30    O     0.37710   0.39680   0.09930   0.01267  Uiso   1.00
O31    O     0.52910   0.36260   0.08150   0.01267  Uiso   1.00
O32    O     0.72010   0.75120   0.51610   0.01267  Uiso   1.00
O33    O     0.81450   0.76940   0.60800   0.01267  Uiso   1.00
O34    O     0.31360   0.82120   0.62270   0.01267  Uiso   1.00
O35    O     0.39510   0.82030   0.52520   0.01267  Uiso   1.00
O36    O     0.36040   0.84890   0.13970   0.01267  Uiso   1.00
O37    O     0.39120   0.95380   0.19830   0.01267  Uiso   1.00
O38    O     0.83550   0.16190   0.90740   0.01267  Uiso   1.00
O39    O     0.01020   0.26160   0.33190   0.01267  Uiso   1.00
O40    O     0.85160   0.24300   0.32690   0.01267  Uiso   1.00
O41    O     0.91460   0.26330   0.46660   0.01267  Uiso   1.00
O42    O     0.77450   0.31540   0.45690   0.01267  Uiso   1.00
O43    O     0.92660   0.64190   0.56760   0.01267  Uiso   1.00
O44    O     0.81180   0.60400   0.49550   0.01267  Uiso   1.00
O45    O     0.09380   0.23690   0.53050   0.01267  Uiso   1.00
O46    O     0.18730   0.18830   0.60570   0.01267  Uiso   1.00
O47    O     0.76520   0.15960   0.51590   0.01267  Uiso   1.00
O48    O     0.71860   0.05060   0.55780   0.01267  Uiso   1.00
O49    O     0.12290   0.89680   0.59930   0.01267  Uiso   1.00
O50    O     0.97090   0.86260   0.58150   0.01267  Uiso   1.00
O51    O     0.77990   0.25120   0.01610   0.01267  Uiso   1.00
O52    O     0.68550   0.26940   0.10800   0.01267  Uiso   1.00
O53    O     0.18640   0.32120   0.12270   0.01267  Uiso   1.00
O54    O     0.10490   0.32030   0.02520   0.01267  Uiso   1.00
O55    O     0.13960   0.34890   0.63970   0.01267  Uiso   1.00
O56    O     0.10880   0.45380   0.69830   0.01267  Uiso   1.00
O57    O     0.66450   0.66190   0.40740   0.01267  Uiso   1.00
O58    O     0.51020   0.23840   0.16810   0.01267  Uiso   1.00
O59    O     0.35160   0.25700   0.17310   0.01267  Uiso   1.00
O60    O     0.41460   0.23670   0.03340   0.01267  Uiso   1.00
O61    O     0.27450   0.18460   0.04310   0.01267  Uiso   1.00
O62    O     0.42660   0.85810   0.93240   0.01267  Uiso   1.00
O63    O     0.31180   0.89600   0.00450   0.01267  Uiso   1.00
O64    O     0.59380   0.26310   0.96950   0.01267  Uiso   1.00
O65    O     0.68730   0.31170   0.89430   0.01267  Uiso   1.00
O66    O     0.26520   0.34040   0.98410   0.01267  Uiso   1.00
O67    O     0.21860   0.44940   0.94220   0.01267  Uiso   1.00
O68    O     0.62290   0.60320   0.90070   0.01267  Uiso   1.00
O69    O     0.47090   0.63740   0.91850   0.01267  Uiso   1.00
O70    O     0.27990   0.24880   0.48390   0.01267  Uiso   1.00
O71    O     0.18550   0.23060   0.39200   0.01267  Uiso   1.00
O72    O     0.68640   0.17880   0.37730   0.01267  Uiso   1.00
O73    O     0.60490   0.17970   0.47480   0.01267  Uiso   1.00
O74    O     0.63960   0.15110   0.86030   0.01267  Uiso   1.00
O75    O     0.60880   0.04620   0.80170   0.01267  Uiso   1.00
O76    O     0.16450   0.83810   0.09260   0.01267  Uiso   1.00
H65    H     0.76680   0.84650   0.81060   0.01267  Uiso   1.00
H66    H     0.72030   0.92240   0.83640   0.01267  Uiso   1.00
H67    H     0.81870   0.89620   0.86620   0.01267  Uiso   1.00
H68    H     0.88980   0.04060   0.76310   0.01267  Uiso   1.00
H69    H     0.81870   0.03680   0.82440   0.01267  Uiso   1.00
H70    H     0.92070   0.00150   0.83040   0.01267  Uiso   1.00
H71    H     0.94570   0.92110   0.71850   0.01267  Uiso   1.00
H72    H     0.88040   0.84930   0.71970   0.01267  Uiso   1.00
H73    H     0.94260   0.87120   0.78330   0.01267  Uiso   1.00
H74    H     0.78920   0.97860   0.68210   0.01267  Uiso   1.00
H75    H     0.73410   0.90510   0.70050   0.01267  Uiso   1.00
H76    H     0.70630   0.98210   0.73530   0.01267  Uiso   1.00
C121   C     0.77920   0.89740   0.82630   0.01267  Uiso   1.00
C122   C     0.86690   0.01060   0.79990   0.01267  Uiso   1.00
C123   C     0.90680   0.89080   0.74730   0.01267  Uiso   1.00
C124   C     0.75930   0.95190   0.71760   0.01267  Uiso   1.00
N5     N     0.82860   0.93740   0.77530   0.01267  Uiso   1.00
H77    H     0.26680   0.65350   0.68940   0.01267  Uiso   1.00
H78    H     0.22030   0.57760   0.66360   0.01267  Uiso   1.00
H79    H     0.31870   0.60380   0.63380   0.01267  Uiso   1.00
H80    H     0.38980   0.45940   0.73690   0.01267  Uiso   1.00
H81    H     0.31870   0.46320   0.67560   0.01267  Uiso   1.00
H82    H     0.42070   0.49850   0.66960   0.01267  Uiso   1.00
H83    H     0.44570   0.57890   0.78150   0.01267  Uiso   1.00
H84    H     0.38040   0.65070   0.78030   0.01267  Uiso   1.00
H85    H     0.44260   0.62880   0.71670   0.01267  Uiso   1.00
H86    H     0.28920   0.52140   0.81790   0.01267  Uiso   1.00
H87    H     0.23410   0.59490   0.79950   0.01267  Uiso   1.00
H88    H     0.20630   0.51790   0.76470   0.01267  Uiso   1.00
C125   C     0.27920   0.60260   0.67370   0.01267  Uiso   1.00
C126   C     0.36690   0.48940   0.70010   0.01267  Uiso   1.00
C127   C     0.40680   0.60920   0.75270   0.01267  Uiso   1.00
C128   C     0.25930   0.54810   0.78240   0.01267  Uiso   1.00
N6     N     0.32860   0.56260   0.72470   0.01267  Uiso   1.00
H89    H     0.23320   0.15350   0.18940   0.01267  Uiso   1.00
H90    H     0.27970   0.07760   0.16360   0.01267  Uiso   1.00
H91    H     0.18130   0.10380   0.13380   0.01267  Uiso   1.00
H92    H     0.11020   0.95940   0.23690   0.01267  Uiso   1.00
H93    H     0.18130   0.96320   0.17560   0.01267  Uiso   1.00
H94    H     0.07930   0.99850   0.16960   0.01267  Uiso   1.00
H95    H     0.05430   0.07890   0.28150   0.01267  Uiso   1.00
H96    H     0.11960   0.15070   0.28030   0.01267  Uiso   1.00
H97    H     0.05740   0.12880   0.21670   0.01267  Uiso   1.00
H98    H     0.21080   0.02140   0.31790   0.01267  Uiso   1.00
H99    H     0.26590   0.09490   0.29950   0.01267  Uiso   1.00
H100   H     0.29370   0.01790   0.26470   0.01267  Uiso   1.00
C129   C     0.22080   0.10260   0.17370   0.01267  Uiso   1.00
C130   C     0.13310   0.98940   0.20010   0.01267  Uiso   1.00
C131   C     0.09320   0.10920   0.25270   0.01267  Uiso   1.00
C132   C     0.24070   0.04810   0.28240   0.01267  Uiso   1.00
N7     N     0.17140   0.06260   0.22470   0.01267  Uiso   1.00
H101   H     0.73320   0.34650   0.31060   0.01267  Uiso   1.00
H102   H     0.77970   0.42240   0.33640   0.01267  Uiso   1.00
H103   H     0.68130   0.39620   0.36620   0.01267  Uiso   1.00
H104   H     0.61020   0.54060   0.26310   0.01267  Uiso   1.00
H105   H     0.68130   0.53680   0.32440   0.01267  Uiso   1.00
H106   H     0.57930   0.50150   0.33040   0.01267  Uiso   1.00
H107   H     0.55430   0.42110   0.21850   0.01267  Uiso   1.00
H108   H     0.61960   0.34930   0.21970   0.01267  Uiso   1.00
H109   H     0.55740   0.37120   0.28330   0.01267  Uiso   1.00
H110   H     0.71080   0.47860   0.18210   0.01267  Uiso   1.00
H111   H     0.76590   0.40510   0.20050   0.01267  Uiso   1.00
H112   H     0.79370   0.48210   0.23530   0.01267  Uiso   1.00
C133   C     0.72080   0.39740   0.32630   0.01267  Uiso   1.00
C134   C     0.63310   0.51060   0.29990   0.01267  Uiso   1.00
C135   C     0.59320   0.39080   0.24730   0.01267  Uiso   1.00
C136   C     0.74070   0.45190   0.21760   0.01267  Uiso   1.00
N8     N     0.67140   0.43740   0.27530   0.01267  Uiso   1.00
