data_TONBOO_clean
_audit_creation_date              2014-07-02
_audit_creation_method            'Materials Studio'
_symmetry_space_group_name_H-M    'P1'
_symmetry_Int_Tables_number       1
_symmetry_cell_setting            triclinic
loop_
_symmetry_equiv_pos_as_xyz
  x,y,z
_cell_length_a                    11.3972
_cell_length_b                    11.8255
_cell_length_c                    18.9914
_cell_angle_alpha                 90.0000
_cell_angle_beta                  90.0000
_cell_angle_gamma                 118.0380
loop_
_atom_site_label
_atom_site_type_symbol
_atom_site_fract_x
_atom_site_fract_y
_atom_site_fract_z
_atom_site_U_iso_or_equiv
_atom_site_adp_type
_atom_site_occupancy
Co1    Co    0.31629   0.16796   0.50568   0.01267  Uiso   1.00
Co2    Co    0.18371   0.33204   0.00568   0.01267  Uiso   1.00
Co3    Co    0.68371   0.83204   0.49432   0.01267  Uiso   1.00
Co4    Co    0.81629   0.66796   0.99432   0.01267  Uiso   1.00
Co5    Co    0.50000   0.50000   0.50000   0.01267  Uiso   1.00
Co6    Co    0.00000   0.00000   0.00000   0.01267  Uiso   1.00
H1     H     0.53830   0.11150   0.33540   0.01267  Uiso   1.00
H2     H     0.83900   0.49480   0.23350   0.01267  Uiso   1.00
H3     H     0.70460   0.49260   0.32120   0.01267  Uiso   1.00
H4     H     0.91830   0.37310   0.15300   0.01267  Uiso   1.00
H5     H     0.74140   0.99180   0.16310   0.01267  Uiso   1.00
H6     H     0.61270   0.99070   0.25250   0.01267  Uiso   1.00
H7     H     0.20770   0.49130   0.55280   0.01267  Uiso   1.00
H8     H     0.14450   0.64910   0.60420   0.01267  Uiso   1.00
H9     H     0.99210   0.25790   0.39640   0.01267  Uiso   1.00
H10    H     0.16130   0.93550   0.53070   0.01267  Uiso   1.00
H11    H     0.35380   0.93830   0.54910   0.01267  Uiso   1.00
H12    H     0.27230   0.82280   0.49590   0.01267  Uiso   1.00
H13    H     0.38420   0.95600   0.46520   0.01267  Uiso   1.00
H14    H     0.07210   0.94590   0.42800   0.01267  Uiso   1.00
H15    H     0.10860   0.83050   0.42490   0.01267  Uiso   1.00
H16    H     0.20890   0.96440   0.38860   0.01267  Uiso   1.00
H17    H     0.96170   0.38850   0.83540   0.01267  Uiso   1.00
H18    H     0.66100   0.00520   0.73350   0.01267  Uiso   1.00
H19    H     0.79540   0.00740   0.82120   0.01267  Uiso   1.00
H20    H     0.58170   0.12690   0.65300   0.01267  Uiso   1.00
H21    H     0.75860   0.50820   0.66310   0.01267  Uiso   1.00
H22    H     0.88730   0.50930   0.75250   0.01267  Uiso   1.00
H23    H     0.29230   0.00870   0.05280   0.01267  Uiso   1.00
H24    H     0.35550   0.85090   0.10420   0.01267  Uiso   1.00
H25    H     0.50790   0.24210   0.89640   0.01267  Uiso   1.00
H26    H     0.33870   0.56450   0.03070   0.01267  Uiso   1.00
H27    H     0.14620   0.56170   0.04910   0.01267  Uiso   1.00
H28    H     0.22770   0.67720   0.99590   0.01267  Uiso   1.00
H29    H     0.11580   0.54400   0.96520   0.01267  Uiso   1.00
H30    H     0.42790   0.55410   0.92800   0.01267  Uiso   1.00
H31    H     0.39140   0.66950   0.92490   0.01267  Uiso   1.00
H32    H     0.29110   0.53560   0.88860   0.01267  Uiso   1.00
H33    H     0.46170   0.88850   0.66460   0.01267  Uiso   1.00
H34    H     0.16100   0.50520   0.76650   0.01267  Uiso   1.00
H35    H     0.29540   0.50740   0.67880   0.01267  Uiso   1.00
H36    H     0.08170   0.62690   0.84700   0.01267  Uiso   1.00
H37    H     0.25860   0.00820   0.83690   0.01267  Uiso   1.00
H38    H     0.38730   0.00930   0.74750   0.01267  Uiso   1.00
H39    H     0.79230   0.50870   0.44720   0.01267  Uiso   1.00
H40    H     0.85550   0.35090   0.39580   0.01267  Uiso   1.00
H41    H     0.00790   0.74210   0.60360   0.01267  Uiso   1.00
H42    H     0.83870   0.06450   0.46930   0.01267  Uiso   1.00
H43    H     0.64620   0.06170   0.45090   0.01267  Uiso   1.00
H44    H     0.72770   0.17720   0.50410   0.01267  Uiso   1.00
H45    H     0.61580   0.04400   0.53480   0.01267  Uiso   1.00
H46    H     0.92790   0.05410   0.57200   0.01267  Uiso   1.00
H47    H     0.89140   0.16950   0.57510   0.01267  Uiso   1.00
H48    H     0.79110   0.03560   0.61140   0.01267  Uiso   1.00
H49    H     0.03830   0.61150   0.16460   0.01267  Uiso   1.00
H50    H     0.33900   0.99480   0.26650   0.01267  Uiso   1.00
H51    H     0.20460   0.99260   0.17880   0.01267  Uiso   1.00
H52    H     0.41830   0.87310   0.34700   0.01267  Uiso   1.00
H53    H     0.24140   0.49180   0.33690   0.01267  Uiso   1.00
H54    H     0.11270   0.49070   0.24750   0.01267  Uiso   1.00
H55    H     0.70770   0.99130   0.94720   0.01267  Uiso   1.00
H56    H     0.64450   0.14910   0.89580   0.01267  Uiso   1.00
H57    H     0.49210   0.75790   0.10360   0.01267  Uiso   1.00
H58    H     0.66130   0.43550   0.96930   0.01267  Uiso   1.00
H59    H     0.85380   0.43830   0.95090   0.01267  Uiso   1.00
H60    H     0.77230   0.32280   0.00410   0.01267  Uiso   1.00
H61    H     0.88420   0.45600   0.03480   0.01267  Uiso   1.00
H62    H     0.57210   0.44590   0.07200   0.01267  Uiso   1.00
H63    H     0.60860   0.33050   0.07510   0.01267  Uiso   1.00
H64    H     0.70890   0.46440   0.11140   0.01267  Uiso   1.00
C1     C     0.51760   0.30120   0.39570   0.01267  Uiso   1.00
C2     C     0.60600   0.29980   0.33722   0.01267  Uiso   1.00
C3     C     0.59860   0.18690   0.31442   0.01267  Uiso   1.00
C4     C     0.68040   0.18370   0.25911   0.01267  Uiso   1.00
C5     C     0.77380   0.30060   0.22827   0.01267  Uiso   1.00
C6     C     0.78040   0.41650   0.25327   0.01267  Uiso   1.00
C7     C     0.69940   0.41610   0.30565   0.01267  Uiso   1.00
C8     C     0.85640   0.29730   0.17371   0.01267  Uiso   1.00
C9     C     0.84690   0.18400   0.14934   0.01267  Uiso   1.00
C10    C     0.93840   0.18170   0.09280   0.01267  Uiso   1.00
C11    C     0.75130   0.06800   0.17971   0.01267  Uiso   1.00
C12    C     0.67160   0.06720   0.23295   0.01267  Uiso   1.00
C13    C     0.19570   0.29630   0.47957   0.01267  Uiso   1.00
C14    C     0.11490   0.36590   0.47643   0.01267  Uiso   1.00
C15    C     0.13810   0.46280   0.52197   0.01267  Uiso   1.00
C16    C     0.05400   0.52190   0.52389   0.01267  Uiso   1.00
C17    C     0.07430   0.62120   0.57205   0.01267  Uiso   1.00
C18    C     0.00660   0.32320   0.42839   0.01267  Uiso   1.00
C19    C     0.31710   0.91710   0.50142   0.01267  Uiso   1.00
C20    C     0.14460   0.92260   0.42689   0.01267  Uiso   1.00
C21    C     0.98240   0.19880   0.89570   0.01267  Uiso   1.00
C22    C     0.89400   0.20020   0.83722   0.01267  Uiso   1.00
C23    C     0.90140   0.31310   0.81442   0.01267  Uiso   1.00
C24    C     0.81960   0.31630   0.75911   0.01267  Uiso   1.00
C25    C     0.72620   0.19940   0.72827   0.01267  Uiso   1.00
C26    C     0.71960   0.08350   0.75327   0.01267  Uiso   1.00
C27    C     0.80060   0.08390   0.80565   0.01267  Uiso   1.00
C28    C     0.64360   0.20270   0.67371   0.01267  Uiso   1.00
C29    C     0.65310   0.31600   0.64934   0.01267  Uiso   1.00
C30    C     0.56160   0.31830   0.59280   0.01267  Uiso   1.00
C31    C     0.74870   0.43200   0.67971   0.01267  Uiso   1.00
C32    C     0.82840   0.43280   0.73295   0.01267  Uiso   1.00
C33    C     0.30430   0.20370   0.97957   0.01267  Uiso   1.00
C34    C     0.38510   0.13410   0.97643   0.01267  Uiso   1.00
C35    C     0.36190   0.03720   0.02197   0.01267  Uiso   1.00
C36    C     0.44600   0.97810   0.02389   0.01267  Uiso   1.00
C37    C     0.42570   0.87880   0.07205   0.01267  Uiso   1.00
C38    C     0.49340   0.17680   0.92839   0.01267  Uiso   1.00
C39    C     0.18290   0.58290   0.00142   0.01267  Uiso   1.00
C40    C     0.35540   0.57740   0.92689   0.01267  Uiso   1.00
C41    C     0.48240   0.69880   0.60430   0.01267  Uiso   1.00
C42    C     0.39400   0.70020   0.66278   0.01267  Uiso   1.00
C43    C     0.40140   0.81310   0.68558   0.01267  Uiso   1.00
C44    C     0.31960   0.81630   0.74089   0.01267  Uiso   1.00
C45    C     0.22620   0.69940   0.77173   0.01267  Uiso   1.00
C46    C     0.21960   0.58350   0.74673   0.01267  Uiso   1.00
C47    C     0.30060   0.58390   0.69435   0.01267  Uiso   1.00
C48    C     0.14360   0.70270   0.82629   0.01267  Uiso   1.00
C49    C     0.15310   0.81600   0.85066   0.01267  Uiso   1.00
C50    C     0.06160   0.81830   0.90720   0.01267  Uiso   1.00
C51    C     0.24870   0.93200   0.82029   0.01267  Uiso   1.00
C52    C     0.32840   0.93280   0.76705   0.01267  Uiso   1.00
C53    C     0.80430   0.70370   0.52043   0.01267  Uiso   1.00
C54    C     0.88510   0.63410   0.52357   0.01267  Uiso   1.00
C55    C     0.86190   0.53720   0.47803   0.01267  Uiso   1.00
C56    C     0.94600   0.47810   0.47611   0.01267  Uiso   1.00
C57    C     0.92570   0.37880   0.42795   0.01267  Uiso   1.00
C58    C     0.99340   0.67680   0.57161   0.01267  Uiso   1.00
C59    C     0.68290   0.08290   0.49858   0.01267  Uiso   1.00
C60    C     0.85540   0.07740   0.57311   0.01267  Uiso   1.00
C61    C     0.01760   0.80120   0.10430   0.01267  Uiso   1.00
C62    C     0.10600   0.79980   0.16278   0.01267  Uiso   1.00
C63    C     0.09860   0.68690   0.18558   0.01267  Uiso   1.00
C64    C     0.18040   0.68370   0.24089   0.01267  Uiso   1.00
C65    C     0.27380   0.80060   0.27173   0.01267  Uiso   1.00
C66    C     0.28040   0.91650   0.24673   0.01267  Uiso   1.00
C67    C     0.19940   0.91610   0.19435   0.01267  Uiso   1.00
C68    C     0.35640   0.79730   0.32629   0.01267  Uiso   1.00
C69    C     0.34690   0.68400   0.35066   0.01267  Uiso   1.00
C70    C     0.43840   0.68170   0.40720   0.01267  Uiso   1.00
C71    C     0.25130   0.56800   0.32029   0.01267  Uiso   1.00
C72    C     0.17160   0.56720   0.26705   0.01267  Uiso   1.00
C73    C     0.69570   0.79630   0.02043   0.01267  Uiso   1.00
C74    C     0.61490   0.86590   0.02357   0.01267  Uiso   1.00
C75    C     0.63810   0.96280   0.97803   0.01267  Uiso   1.00
C76    C     0.55400   0.02190   0.97611   0.01267  Uiso   1.00
C77    C     0.57430   0.12120   0.92795   0.01267  Uiso   1.00
C78    C     0.50660   0.82320   0.07161   0.01267  Uiso   1.00
C79    C     0.81710   0.41710   0.99858   0.01267  Uiso   1.00
C80    C     0.64460   0.42260   0.07311   0.01267  Uiso   1.00
N1     N     0.22040   0.96730   0.49339   0.01267  Uiso   1.00
N2     N     0.27960   0.53270   0.99339   0.01267  Uiso   1.00
N3     N     0.77960   0.03270   0.50661   0.01267  Uiso   1.00
N4     N     0.72040   0.46730   0.00661   0.01267  Uiso   1.00
O1     O     0.30498   0.34341   0.51437   0.01267  Uiso   1.00
O2     O     0.42543   0.19500   0.41612   0.01267  Uiso   1.00
O3     O     0.54306   0.40985   0.41925   0.01267  Uiso   1.00
O4     O     0.02188   0.28912   0.06774   0.01267  Uiso   1.00
O5     O     0.92690   0.07452   0.07673   0.01267  Uiso   1.00
O6     O     0.15305   0.18885   0.45113   0.01267  Uiso   1.00
O7     O     0.19502   0.15659   0.01437   0.01267  Uiso   1.00
O8     O     0.07457   0.30500   0.91612   0.01267  Uiso   1.00
O9     O     0.95694   0.09015   0.91925   0.01267  Uiso   1.00
O10    O     0.47812   0.21088   0.56774   0.01267  Uiso   1.00
O11    O     0.57310   0.42548   0.57673   0.01267  Uiso   1.00
O12    O     0.34695   0.31115   0.95113   0.01267  Uiso   1.00
O13    O     0.69502   0.65659   0.48563   0.01267  Uiso   1.00
O14    O     0.57457   0.80500   0.58388   0.01267  Uiso   1.00
O15    O     0.45694   0.59015   0.58075   0.01267  Uiso   1.00
O16    O     0.97812   0.71088   0.93226   0.01267  Uiso   1.00
O17    O     0.07310   0.92548   0.92327   0.01267  Uiso   1.00
O18    O     0.84695   0.81115   0.54887   0.01267  Uiso   1.00
O19    O     0.80498   0.84341   0.98563   0.01267  Uiso   1.00
O20    O     0.92543   0.69500   0.08388   0.01267  Uiso   1.00
O21    O     0.04306   0.90985   0.08075   0.01267  Uiso   1.00
O22    O     0.52188   0.78912   0.43226   0.01267  Uiso   1.00
O23    O     0.42690   0.57452   0.42327   0.01267  Uiso   1.00
O24    O     0.65305   0.68885   0.04887   0.01267  Uiso   1.00
