data_image0
_cell_length_a       12.0047
_cell_length_b       10.9563
_cell_length_c       21.0767
_cell_angle_alpha    90
_cell_angle_beta     106.389
_cell_angle_gamma    90

_symmetry_space_group_name_H-M    "P 1"
_symmetry_int_tables_number       1

loop_
  _symmetry_equiv_pos_as_xyz
  'x, y, z'

loop_
  _atom_site_label
  _atom_site_occupancy
  _atom_site_fract_x
  _atom_site_fract_y
  _atom_site_fract_z
  _atom_site_thermal_displace_type
  _atom_site_B_iso_or_equiv
  _atom_site_type_symbol
  Cd1      1.0000 0.63605  0.68064  0.96029  Biso   1.000  Cd
  Ca1      1.0000 0.35622  0.55455  0.87272  Biso   1.000  Ca
  O1       1.0000 0.62720  0.76880  0.86510  Biso   1.000  O
  O2       1.0000 0.43810  0.72430  0.83504  Biso   1.000  O
  O3       1.0000 0.22040  0.88120  0.59088  Biso   1.000  O
  O4       1.0000 0.30970  0.77360  0.53028  Biso   1.000  O
  O5       1.0000 0.73190  0.84950  0.65890  Biso   1.000  O
  O6       1.0000 0.96340  0.96860  0.60697  Biso   1.000  O
  O7       1.0000 0.78190  0.00040  0.54950  Biso   1.000  O
  O8       1.0000 0.04170  0.67710  0.50671  Biso   1.000  O
  O9       1.0000 0.94410  0.84870  0.47812  Biso   1.000  O
  C1       1.0000 0.52830  0.76240  0.82360  Biso   1.000  C
  C2       1.0000 0.52270  0.79970  0.75384  Biso   1.000  C
  C3       1.0000 0.41880  0.80680  0.70410  Biso   1.000  C
  H1       1.0000 0.34890  0.80050  0.71460  Biso   1.000  H
  C4       1.0000 0.41820  0.82310  0.63906  Biso   1.000  C
  C5       1.0000 0.52310  0.83290  0.62320  Biso   1.000  C
  H2       1.0000 0.52340  0.83990  0.57930  Biso   1.000  H
  C6       1.0000 0.62580  0.83220  0.67280  Biso   1.000  C
  C7       1.0000 0.62730  0.81650  0.73820  Biso   1.000  C
  H3       1.0000 0.69730  0.81700  0.77140  Biso   1.000  H
  C8       1.0000 0.30780  0.82590  0.58300  Biso   1.000  C
  C9       1.0000 0.76560  0.76040  0.62130  Biso   1.000  C
  C10      1.0000 0.83630  0.79860  0.58290  Biso   1.000  C
  C11      1.0000 0.88160  0.71110  0.54930  Biso   1.000  C
  C12      1.0000 0.85740  0.58810  0.55460  Biso   1.000  C
  H4       1.0000 0.89030  0.52980  0.53330  Biso   1.000  H
  C13      1.0000 0.78410  0.55260  0.59170  Biso   1.000  C
  H5       1.0000 0.76570  0.47060  0.59390  Biso   1.000  H
  C14      1.0000 0.73840  0.63830  0.62530  Biso   1.000  C
  H6       1.0000 0.68970  0.61420  0.65030  Biso   1.000  H
  C15      1.0000 0.86280  0.93200  0.57950  Biso   1.000  C
  C16      1.0000 0.95960  0.74700  0.50840  Biso   1.000  C
  Cd2      1.0000 0.86395  0.18064  0.53971  Biso   1.000  Cd
  Ca2      1.0000 0.14378  0.05455  0.62728  Biso   1.000  Ca
  O10      1.0000 0.87280  0.26880  0.63490  Biso   1.000  O
  O11      1.0000 0.06190  0.22430  0.66496  Biso   1.000  O
  O12      1.0000 0.27960  0.38120  0.90912  Biso   1.000  O
  O13      1.0000 0.19030  0.27360  0.96972  Biso   1.000  O
  O14      1.0000 0.76810  0.34950  0.84110  Biso   1.000  O
  O15      1.0000 0.53660  0.46860  0.89303  Biso   1.000  O
  O16      1.0000 0.71810  0.50040  0.95050  Biso   1.000  O
  O17      1.0000 0.45830  0.17710  0.99329  Biso   1.000  O
  O18      1.0000 0.55590  0.34870  0.02188  Biso   1.000  O
  C17      1.0000 0.97170  0.26240  0.67640  Biso   1.000  C
  C18      1.0000 0.97730  0.29970  0.74616  Biso   1.000  C
  C19      1.0000 0.08120  0.30680  0.79590  Biso   1.000  C
  H7       1.0000 0.15110  0.30050  0.78540  Biso   1.000  H
  C20      1.0000 0.08180  0.32310  0.86094  Biso   1.000  C
  C21      1.0000 0.97690  0.33290  0.87680  Biso   1.000  C
  H8       1.0000 0.97660  0.33990  0.92070  Biso   1.000  H
  C22      1.0000 0.87420  0.33220  0.82720  Biso   1.000  C
  C23      1.0000 0.87270  0.31650  0.76180  Biso   1.000  C
  H9       1.0000 0.80270  0.31700  0.72860  Biso   1.000  H
  C24      1.0000 0.19220  0.32590  0.91700  Biso   1.000  C
  C25      1.0000 0.73440  0.26040  0.87870  Biso   1.000  C
  C26      1.0000 0.66370  0.29860  0.91710  Biso   1.000  C
  C27      1.0000 0.61840  0.21110  0.95070  Biso   1.000  C
  C28      1.0000 0.64260  0.08810  0.94540  Biso   1.000  C
  H10      1.0000 0.60970  0.02980  0.96670  Biso   1.000  H
  C29      1.0000 0.71590  0.05260  0.90830  Biso   1.000  C
  H11      1.0000 0.73430  0.97060  0.90610  Biso   1.000  H
  C30      1.0000 0.76160  0.13830  0.87470  Biso   1.000  C
  H12      1.0000 0.81030  0.11420  0.84970  Biso   1.000  H
  C31      1.0000 0.63720  0.43200  0.92050  Biso   1.000  C
  C32      1.0000 0.54040  0.24700  0.99160  Biso   1.000  C
  Cd3      1.0000 0.36395  0.31936  0.03971  Biso   1.000  Cd
  Ca3      1.0000 0.64378  0.44545  0.12728  Biso   1.000  Ca
  O19      1.0000 0.37280  0.23120  0.13490  Biso   1.000  O
  O20      1.0000 0.56190  0.27570  0.16496  Biso   1.000  O
  O21      1.0000 0.77960  0.11880  0.40912  Biso   1.000  O
  O22      1.0000 0.69030  0.22640  0.46972  Biso   1.000  O
  O23      1.0000 0.26810  0.15050  0.34110  Biso   1.000  O
  O24      1.0000 0.03660  0.03140  0.39303  Biso   1.000  O
  O25      1.0000 0.21810  0.99960  0.45050  Biso   1.000  O
  O26      1.0000 0.95830  0.32290  0.49329  Biso   1.000  O
  O27      1.0000 0.05590  0.15130  0.52188  Biso   1.000  O
  C33      1.0000 0.47170  0.23760  0.17640  Biso   1.000  C
  C34      1.0000 0.47730  0.20030  0.24616  Biso   1.000  C
  C35      1.0000 0.58120  0.19320  0.29590  Biso   1.000  C
  H13      1.0000 0.65110  0.19950  0.28540  Biso   1.000  H
  C36      1.0000 0.58180  0.17690  0.36094  Biso   1.000  C
  C37      1.0000 0.47690  0.16710  0.37680  Biso   1.000  C
  H14      1.0000 0.47660  0.16010  0.42070  Biso   1.000  H
  C38      1.0000 0.37420  0.16780  0.32720  Biso   1.000  C
  C39      1.0000 0.37270  0.18350  0.26180  Biso   1.000  C
  H15      1.0000 0.30270  0.18300  0.22860  Biso   1.000  H
  C40      1.0000 0.69220  0.17410  0.41700  Biso   1.000  C
  C41      1.0000 0.23440  0.23960  0.37870  Biso   1.000  C
  C42      1.0000 0.16370  0.20140  0.41710  Biso   1.000  C
  C43      1.0000 0.11840  0.28890  0.45070  Biso   1.000  C
  C44      1.0000 0.14260  0.41190  0.44540  Biso   1.000  C
  H16      1.0000 0.10970  0.47020  0.46670  Biso   1.000  H
  C45      1.0000 0.21590  0.44740  0.40830  Biso   1.000  C
  H17      1.0000 0.23430  0.52940  0.40610  Biso   1.000  H
  C46      1.0000 0.26160  0.36170  0.37470  Biso   1.000  C
  H18      1.0000 0.31030  0.38580  0.34970  Biso   1.000  H
  C47      1.0000 0.13720  0.06800  0.42050  Biso   1.000  C
  C48      1.0000 0.04040  0.25300  0.49160  Biso   1.000  C
  Cd4      1.0000 0.13605  0.81936  0.46029  Biso   1.000  Cd
  Ca4      1.0000 0.85622  0.94545  0.37272  Biso   1.000  Ca
  O28      1.0000 0.12720  0.73120  0.36510  Biso   1.000  O
  O29      1.0000 0.93810  0.77570  0.33504  Biso   1.000  O
  O30      1.0000 0.72040  0.61880  0.09088  Biso   1.000  O
  O31      1.0000 0.80970  0.72640  0.03028  Biso   1.000  O
  O32      1.0000 0.23190  0.65050  0.15890  Biso   1.000  O
  O33      1.0000 0.46340  0.53140  0.10697  Biso   1.000  O
  O34      1.0000 0.28190  0.49960  0.04950  Biso   1.000  O
  O35      1.0000 0.54170  0.82290  0.00671  Biso   1.000  O
  O36      1.0000 0.44410  0.65130  0.97812  Biso   1.000  O
  C49      1.0000 0.02830  0.73760  0.32360  Biso   1.000  C
  C50      1.0000 0.02270  0.70030  0.25384  Biso   1.000  C
  C51      1.0000 0.91880  0.69320  0.20410  Biso   1.000  C
  H19      1.0000 0.84890  0.69950  0.21460  Biso   1.000  H
  C52      1.0000 0.91820  0.67690  0.13906  Biso   1.000  C
  C53      1.0000 0.02310  0.66710  0.12320  Biso   1.000  C
  H20      1.0000 0.02340  0.66010  0.07930  Biso   1.000  H
  C54      1.0000 0.12580  0.66780  0.17280  Biso   1.000  C
  C55      1.0000 0.12730  0.68350  0.23820  Biso   1.000  C
  H21      1.0000 0.19730  0.68300  0.27140  Biso   1.000  H
  C56      1.0000 0.80780  0.67410  0.08300  Biso   1.000  C
  C57      1.0000 0.26560  0.73960  0.12130  Biso   1.000  C
  C58      1.0000 0.33630  0.70140  0.08290  Biso   1.000  C
  C59      1.0000 0.38160  0.78890  0.04930  Biso   1.000  C
  C60      1.0000 0.35740  0.91190  0.05460  Biso   1.000  C
  H22      1.0000 0.39030  0.97020  0.03330  Biso   1.000  H
  C61      1.0000 0.28410  0.94740  0.09170  Biso   1.000  C
  H23      1.0000 0.26570  0.02940  0.09390  Biso   1.000  H
  C62      1.0000 0.23840  0.86170  0.12530  Biso   1.000  C
  H24      1.0000 0.18970  0.88580  0.15030  Biso   1.000  H
  C63      1.0000 0.36280  0.56800  0.07950  Biso   1.000  C
  C64      1.0000 0.45960  0.75300  0.00840  Biso   1.000  C
