data_image0
_cell_length_a       10.2724
_cell_length_b       13.3126
_cell_length_c       15.2949
_cell_angle_alpha    100.307
_cell_angle_beta     107.572
_cell_angle_gamma    100.414

_symmetry_space_group_name_H-M    "P 1"
_symmetry_int_tables_number       1

loop_
  _symmetry_equiv_pos_as_xyz
  'x, y, z'

loop_
  _atom_site_label
  _atom_site_occupancy
  _atom_site_fract_x
  _atom_site_fract_y
  _atom_site_fract_z
  _atom_site_thermal_displace_type
  _atom_site_B_iso_or_equiv
  _atom_site_type_symbol
  Ba1      1.0000 0.52643  0.82036  0.98816  Biso   1.000  Ba
  Ba2      1.0000 0.91322  0.07525  0.10966  Biso   1.000  Ba
  C1       1.0000 0.34550  0.29270  0.30330  Biso   1.000  C
  C2       1.0000 0.48540  0.31280  0.35980  Biso   1.000  C
  H1       1.0000 0.55160  0.29980  0.33190  Biso   1.000  H
  C3       1.0000 0.52900  0.35150  0.45630  Biso   1.000  C
  H2       1.0000 0.62420  0.36710  0.49260  Biso   1.000  H
  C4       1.0000 0.43190  0.36740  0.49950  Biso   1.000  C
  H3       1.0000 0.46050  0.39230  0.56490  Biso   1.000  H
  C5       1.0000 0.29120  0.34570  0.44410  Biso   1.000  C
  C6       1.0000 0.24630  0.31150  0.34670  Biso   1.000  C
  C7       1.0000 0.30330  0.24720  0.19850  Biso   1.000  C
  C8       1.0000 0.09280  0.29800  0.29190  Biso   1.000  C
  C9       1.0000 0.22270  0.38200  0.57840  Biso   1.000  C
  C10      1.0000 0.24720  0.30530  0.62600  Biso   1.000  C
  H4       1.0000 0.24080  0.23770  0.59310  Biso   1.000  H
  C11      1.0000 0.28140  0.32950  0.72360  Biso   1.000  C
  C12      1.0000 0.29100  0.43030  0.77210  Biso   1.000  C
  H5       1.0000 0.31580  0.44700  0.83770  Biso   1.000  H
  C13      1.0000 0.26370  0.50680  0.72270  Biso   1.000  C
  C14      1.0000 0.22780  0.48210  0.62460  Biso   1.000  C
  H6       1.0000 0.20770  0.53230  0.59090  Biso   1.000  H
  C15      1.0000 0.30620  0.24940  0.77840  Biso   1.000  C
  C16      1.0000 0.27870  0.61530  0.77720  Biso   1.000  C
  C17      1.0000 0.60570  0.98850  0.79040  Biso   1.000  C
  C18      1.0000 0.67750  0.99380  0.72770  Biso   1.000  C
  H7       1.0000 0.77530  0.01760  0.75050  Biso   1.000  H
  C19      1.0000 0.60520  0.96400  0.63120  Biso   1.000  C
  H8       1.0000 0.65530  0.96820  0.58990  Biso   1.000  H
  C20      1.0000 0.46240  0.92870  0.59540  Biso   1.000  C
  H9       1.0000 0.41490  0.90790  0.53030  Biso   1.000  H
  C21      1.0000 0.38820  0.92410  0.65810  Biso   1.000  C
  C22      1.0000 0.45830  0.95370  0.75500  Biso   1.000  C
  C23      1.0000 0.68970  0.01500  0.89410  Biso   1.000  C
  C24      1.0000 0.36770  0.95060  0.81680  Biso   1.000  C
  C25      1.0000 0.17410  0.86180  0.53080  Biso   1.000  C
  C26      1.0000 0.13560  0.94000  0.48680  Biso   1.000  C
  H10      1.0000 0.15050  0.00800  0.52250  Biso   1.000  H
  C27      1.0000 0.07460  0.91530  0.38850  Biso   1.000  C
  C28      1.0000 0.05540  0.81350  0.33590  Biso   1.000  C
  H11      1.0000 0.01650  0.79710  0.27020  Biso   1.000  H
  C29      1.0000 0.09390  0.73650  0.38110  Biso   1.000  C
  C30      1.0000 0.15120  0.76020  0.47880  Biso   1.000  C
  H12      1.0000 0.17420  0.70800  0.50930  Biso   1.000  H
  C31      1.0000 0.03650  0.99740  0.33740  Biso   1.000  C
  C32      1.0000 0.07620  0.63020  0.32080  Biso   1.000  C
  O1       1.0000 0.17460  0.20590  0.15160  Biso   1.000  O
  O2       1.0000 0.39840  0.25290  0.16350  Biso   1.000  O
  O3       1.0000 0.82630  0.85980  0.02850  Biso   1.000  O
  H13      1.0000 0.82100  0.82900  0.97350  Biso   1.000  H
  H14      1.0000 0.86800  0.82600  0.06400  Biso   1.000  H
  O4       1.0000 0.05980  0.37260  0.25890  Biso   1.000  O
  O5       1.0000 0.00550  0.21380  0.28420  Biso   1.000  O
  O6       1.0000 0.18590  0.36040  0.48010  Biso   1.000  O
  O7       1.0000 0.29580  0.15650  0.72580  Biso   1.000  O
  H15      1.0000 0.30970  0.11190  0.75880  Biso   1.000  H
  O8       1.0000 0.33590  0.26910  0.86380  Biso   1.000  O
  O9       1.0000 0.32050  0.64170  0.86250  Biso   1.000  O
  O10      1.0000 0.24200  0.67740  0.72030  Biso   1.000  O
  H16      1.0000 0.25670  0.73560  0.75980  Biso   1.000  H
  O11      1.0000 0.82200  0.03280  0.91700  Biso   1.000  O
  O12      1.0000 0.62510  0.01580  0.95270  Biso   1.000  O
  O13      1.0000 0.32970  0.86750  0.84020  Biso   1.000  O
  O14      1.0000 0.32770  0.03200  0.83980  Biso   1.000  O
  O15      1.0000 0.24240  0.88810  0.62870  Biso   1.000  O
  O16      1.0000 0.07340  0.09230  0.39170  Biso   1.000  O
  H17      1.0000 0.05390  0.14610  0.36620  Biso   1.000  H
  O17      1.0000 0.97960  0.97440  0.25260  Biso   1.000  O
  O18      1.0000 0.03410  0.61060  0.23520  Biso   1.000  O
  O19      1.0000 0.11130  0.56140  0.36900  Biso   1.000  O
  H18      1.0000 0.11040  0.51030  0.32640  Biso   1.000  H
  Ba3      1.0000 0.47357  0.17964  0.01184  Biso   1.000  Ba
  Ba4      1.0000 0.08678  0.92475  0.89034  Biso   1.000  Ba
  C33      1.0000 0.65450  0.70730  0.69670  Biso   1.000  C
  C34      1.0000 0.51460  0.68720  0.64020  Biso   1.000  C
  H19      1.0000 0.44840  0.70020  0.66810  Biso   1.000  H
  C35      1.0000 0.47100  0.64850  0.54370  Biso   1.000  C
  H20      1.0000 0.37580  0.63290  0.50740  Biso   1.000  H
  C36      1.0000 0.56810  0.63260  0.50050  Biso   1.000  C
  H21      1.0000 0.53950  0.60770  0.43510  Biso   1.000  H
  C37      1.0000 0.70880  0.65430  0.55590  Biso   1.000  C
  C38      1.0000 0.75370  0.68850  0.65330  Biso   1.000  C
  C39      1.0000 0.69670  0.75280  0.80150  Biso   1.000  C
  C40      1.0000 0.90720  0.70200  0.70810  Biso   1.000  C
  C41      1.0000 0.77730  0.61800  0.42160  Biso   1.000  C
  C42      1.0000 0.75280  0.69470  0.37400  Biso   1.000  C
  H22      1.0000 0.75920  0.76230  0.40690  Biso   1.000  H
  C43      1.0000 0.71860  0.67050  0.27640  Biso   1.000  C
  C44      1.0000 0.70900  0.56970  0.22790  Biso   1.000  C
  H23      1.0000 0.68420  0.55300  0.16230  Biso   1.000  H
  C45      1.0000 0.73630  0.49320  0.27730  Biso   1.000  C
  C46      1.0000 0.77220  0.51790  0.37540  Biso   1.000  C
  H24      1.0000 0.79230  0.46770  0.40910  Biso   1.000  H
  C47      1.0000 0.69380  0.75060  0.22160  Biso   1.000  C
  C48      1.0000 0.72130  0.38470  0.22280  Biso   1.000  C
  C49      1.0000 0.39430  0.01150  0.20960  Biso   1.000  C
  C50      1.0000 0.32250  0.00620  0.27230  Biso   1.000  C
  H25      1.0000 0.22470  0.98240  0.24950  Biso   1.000  H
  C51      1.0000 0.39480  0.03600  0.36880  Biso   1.000  C
  H26      1.0000 0.34470  0.03180  0.41010  Biso   1.000  H
  C52      1.0000 0.53760  0.07130  0.40460  Biso   1.000  C
  H27      1.0000 0.58510  0.09210  0.46970  Biso   1.000  H
  C53      1.0000 0.61180  0.07590  0.34190  Biso   1.000  C
  C54      1.0000 0.54170  0.04630  0.24500  Biso   1.000  C
  C55      1.0000 0.31030  0.98500  0.10590  Biso   1.000  C
  C56      1.0000 0.63230  0.04940  0.18320  Biso   1.000  C
  C57      1.0000 0.82590  0.13820  0.46920  Biso   1.000  C
  C58      1.0000 0.86440  0.06000  0.51320  Biso   1.000  C
  H28      1.0000 0.84950  0.99200  0.47750  Biso   1.000  H
  C59      1.0000 0.92540  0.08470  0.61150  Biso   1.000  C
  C60      1.0000 0.94460  0.18650  0.66410  Biso   1.000  C
  H29      1.0000 0.98350  0.20290  0.72980  Biso   1.000  H
  C61      1.0000 0.90610  0.26350  0.61890  Biso   1.000  C
  C62      1.0000 0.84880  0.23980  0.52120  Biso   1.000  C
  H30      1.0000 0.82580  0.29200  0.49070  Biso   1.000  H
  C63      1.0000 0.96350  0.00260  0.66260  Biso   1.000  C
  C64      1.0000 0.92380  0.36980  0.67920  Biso   1.000  C
  O20      1.0000 0.82540  0.79410  0.84840  Biso   1.000  O
  O21      1.0000 0.60160  0.74710  0.83650  Biso   1.000  O
  O22      1.0000 0.17370  0.14020  0.97150  Biso   1.000  O
  H31      1.0000 0.17900  0.17100  0.02650  Biso   1.000  H
  H32      1.0000 0.13200  0.17400  0.93600  Biso   1.000  H
  O23      1.0000 0.94020  0.62740  0.74110  Biso   1.000  O
  O24      1.0000 0.99450  0.78620  0.71580  Biso   1.000  O
  O25      1.0000 0.81410  0.63960  0.51990  Biso   1.000  O
  O26      1.0000 0.70420  0.84350  0.27420  Biso   1.000  O
  H33      1.0000 0.69030  0.88810  0.24120  Biso   1.000  H
  O27      1.0000 0.66410  0.73090  0.13620  Biso   1.000  O
  O28      1.0000 0.67950  0.35830  0.13750  Biso   1.000  O
  O29      1.0000 0.75800  0.32260  0.27970  Biso   1.000  O
  H34      1.0000 0.74330  0.26440  0.24020  Biso   1.000  H
  O30      1.0000 0.17800  0.96720  0.08300  Biso   1.000  O
  O31      1.0000 0.37490  0.98420  0.04730  Biso   1.000  O
  O32      1.0000 0.67030  0.13250  0.15980  Biso   1.000  O
  O33      1.0000 0.67230  0.96800  0.16020  Biso   1.000  O
  O34      1.0000 0.75760  0.11190  0.37130  Biso   1.000  O
  O35      1.0000 0.92660  0.90770  0.60830  Biso   1.000  O
  H35      1.0000 0.94610  0.85390  0.63380  Biso   1.000  H
  O36      1.0000 0.02040  0.02560  0.74740  Biso   1.000  O
  O37      1.0000 0.96590  0.38940  0.76480  Biso   1.000  O
  O38      1.0000 0.88870  0.43860  0.63100  Biso   1.000  O
  H36      1.0000 0.88960  0.48970  0.67360  Biso   1.000  H
