data_image0
_cell_length_a       13.0157
_cell_length_b       13.0157
_cell_length_c       62.615
_cell_angle_alpha    90
_cell_angle_beta     90
_cell_angle_gamma    120

_symmetry_space_group_name_H-M    "P 1"
_symmetry_int_tables_number       1

loop_
  _symmetry_equiv_pos_as_xyz
  'x, y, z'

loop_
  _atom_site_label
  _atom_site_occupancy
  _atom_site_fract_x
  _atom_site_fract_y
  _atom_site_fract_z
  _atom_site_thermal_displace_type
  _atom_site_B_iso_or_equiv
  _atom_site_type_symbol
  N1       1.0000 0.45971  0.65006  0.98407  Biso   1.000  N
  C1       1.0000 0.59225  0.60124  0.96128  Biso   1.000  C
  C2       1.0000 0.71019  0.65047  0.92735  Biso   1.000  C
  H1       1.0000 0.76830  0.63960  0.93450  Biso   1.000  H
  C3       1.0000 0.60974  0.63348  0.93851  Biso   1.000  C
  C4       1.0000 0.52012  0.62732  0.97393  Biso   1.000  C
  C5       1.0000 0.52591  0.65029  0.92738  Biso   1.000  C
  H2       1.0000 0.45680  0.63920  0.93460  Biso   1.000  H
  N2       1.0000 0.66717  0.47127  0.97780  Biso   1.000  N
  C6       1.0000 0.63491  0.53148  0.97027  Biso   1.000  C
  N3       1.0000 0.12638  0.98339  0.31740  Biso   1.000  N
  C7       1.0000 0.25892  0.93457  0.29461  Biso   1.000  C
  C8       1.0000 0.37686  0.98380  0.26068  Biso   1.000  C
  H3       1.0000 0.43497  0.97293  0.26783  Biso   1.000  H
  C9       1.0000 0.27641  0.96681  0.27184  Biso   1.000  C
  C10      1.0000 0.18679  0.96065  0.30726  Biso   1.000  C
  C11      1.0000 0.19258  0.98362  0.26071  Biso   1.000  C
  H4       1.0000 0.12347  0.97253  0.26793  Biso   1.000  H
  N4       1.0000 0.33384  0.80460  0.31113  Biso   1.000  N
  C12      1.0000 0.30158  0.86481  0.30360  Biso   1.000  C
  N5       1.0000 0.79304  0.31673  0.65074  Biso   1.000  N
  C13      1.0000 0.92558  0.26791  0.62795  Biso   1.000  C
  C14      1.0000 0.04352  0.31714  0.59402  Biso   1.000  C
  H5       1.0000 0.10163  0.30627  0.60117  Biso   1.000  H
  C15      1.0000 0.94307  0.30015  0.60518  Biso   1.000  C
  C16      1.0000 0.85345  0.29399  0.64060  Biso   1.000  C
  C17      1.0000 0.85924  0.31696  0.59405  Biso   1.000  C
  H6       1.0000 0.79013  0.30587  0.60127  Biso   1.000  H
  N6       1.0000 0.00050  0.13794  0.64447  Biso   1.000  N
  C18      1.0000 0.96824  0.19815  0.63694  Biso   1.000  C
  N7       1.0000 0.34994  0.80965  0.98407  Biso   1.000  N
  C19      1.0000 0.39876  0.99101  0.96128  Biso   1.000  C
  C20      1.0000 0.34953  0.05972  0.92735  Biso   1.000  C
  H7       1.0000 0.36040  0.12870  0.93450  Biso   1.000  H
  C21      1.0000 0.36652  0.97626  0.93851  Biso   1.000  C
  C22      1.0000 0.37268  0.89280  0.97393  Biso   1.000  C
  C23      1.0000 0.34971  0.87562  0.92738  Biso   1.000  C
  H8       1.0000 0.36080  0.81760  0.93460  Biso   1.000  H
  N8       1.0000 0.52873  0.19590  0.97780  Biso   1.000  N
  C24      1.0000 0.46852  0.10343  0.97027  Biso   1.000  C
  N9       1.0000 0.01661  0.14298  0.31740  Biso   1.000  N
  C25      1.0000 0.06543  0.32434  0.29461  Biso   1.000  C
  C26      1.0000 0.01620  0.39305  0.26068  Biso   1.000  C
  H9       1.0000 0.02707  0.46203  0.26783  Biso   1.000  H
  C27      1.0000 0.03319  0.30959  0.27184  Biso   1.000  C
  C28      1.0000 0.03935  0.22613  0.30726  Biso   1.000  C
  C29      1.0000 0.01638  0.20895  0.26071  Biso   1.000  C
  H10      1.0000 0.02747  0.15093  0.26793  Biso   1.000  H
  N10      1.0000 0.19540  0.52923  0.31113  Biso   1.000  N
  C30      1.0000 0.13519  0.43676  0.30360  Biso   1.000  C
  N11      1.0000 0.68327  0.47632  0.65074  Biso   1.000  N
  C31      1.0000 0.73209  0.65768  0.62795  Biso   1.000  C
  C32      1.0000 0.68286  0.72639  0.59402  Biso   1.000  C
  H11      1.0000 0.69373  0.79537  0.60117  Biso   1.000  H
  C33      1.0000 0.69985  0.64293  0.60518  Biso   1.000  C
  C34      1.0000 0.70601  0.55947  0.64060  Biso   1.000  C
  C35      1.0000 0.68304  0.54229  0.59405  Biso   1.000  C
  H12      1.0000 0.69413  0.48427  0.60127  Biso   1.000  H
  N12      1.0000 0.86206  0.86257  0.64447  Biso   1.000  N
  C36      1.0000 0.80185  0.77010  0.63694  Biso   1.000  C
  N13      1.0000 0.19035  0.54029  0.98407  Biso   1.000  N
  C37      1.0000 0.00899  0.40775  0.96128  Biso   1.000  C
  C38      1.0000 0.94028  0.28981  0.92735  Biso   1.000  C
  H13      1.0000 0.87130  0.23170  0.93450  Biso   1.000  H
  C39      1.0000 0.02374  0.39026  0.93851  Biso   1.000  C
  C40      1.0000 0.10720  0.47988  0.97393  Biso   1.000  C
  C41      1.0000 0.12438  0.47409  0.92738  Biso   1.000  C
  H14      1.0000 0.18240  0.54320  0.93460  Biso   1.000  H
  N14      1.0000 0.80410  0.33283  0.97780  Biso   1.000  N
  C42      1.0000 0.89657  0.36509  0.97027  Biso   1.000  C
  N15      1.0000 0.85702  0.87362  0.31740  Biso   1.000  N
  C43      1.0000 0.67566  0.74108  0.29461  Biso   1.000  C
  C44      1.0000 0.60695  0.62314  0.26068  Biso   1.000  C
  H15      1.0000 0.53797  0.56503  0.26783  Biso   1.000  H
  C45      1.0000 0.69041  0.72359  0.27184  Biso   1.000  C
  C46      1.0000 0.77387  0.81321  0.30726  Biso   1.000  C
  C47      1.0000 0.79105  0.80742  0.26071  Biso   1.000  C
  H16      1.0000 0.84907  0.87653  0.26793  Biso   1.000  H
  N16      1.0000 0.47077  0.66616  0.31113  Biso   1.000  N
  C48      1.0000 0.56324  0.69842  0.30360  Biso   1.000  C
  N17      1.0000 0.52368  0.20696  0.65074  Biso   1.000  N
  C49      1.0000 0.34232  0.07442  0.62795  Biso   1.000  C
  C50      1.0000 0.27361  0.95648  0.59402  Biso   1.000  C
  H17      1.0000 0.20463  0.89837  0.60117  Biso   1.000  H
  C51      1.0000 0.35707  0.05693  0.60518  Biso   1.000  C
  C52      1.0000 0.44053  0.14655  0.64060  Biso   1.000  C
  C53      1.0000 0.45771  0.14076  0.59405  Biso   1.000  C
  H18      1.0000 0.51573  0.20987  0.60127  Biso   1.000  H
  N18      1.0000 0.13743  0.99950  0.64447  Biso   1.000  N
  C54      1.0000 0.22990  0.03176  0.63694  Biso   1.000  C
  N19      1.0000 0.65006  0.45971  0.51593  Biso   1.000  N
  C55      1.0000 0.60124  0.59225  0.53872  Biso   1.000  C
  C56      1.0000 0.65047  0.71019  0.57265  Biso   1.000  C
  H19      1.0000 0.63960  0.76830  0.56550  Biso   1.000  H
  C57      1.0000 0.63348  0.60974  0.56149  Biso   1.000  C
  C58      1.0000 0.62732  0.52012  0.52607  Biso   1.000  C
  C59      1.0000 0.65029  0.52591  0.57262  Biso   1.000  C
  H20      1.0000 0.63920  0.45680  0.56540  Biso   1.000  H
  N20      1.0000 0.47127  0.66717  0.52220  Biso   1.000  N
  C60      1.0000 0.53148  0.63491  0.52973  Biso   1.000  C
  N21      1.0000 0.31673  0.79304  0.84926  Biso   1.000  N
  C61      1.0000 0.26791  0.92558  0.87205  Biso   1.000  C
  C62      1.0000 0.31714  0.04352  0.90598  Biso   1.000  C
  H21      1.0000 0.30627  0.10163  0.89883  Biso   1.000  H
  C63      1.0000 0.30015  0.94307  0.89482  Biso   1.000  C
  C64      1.0000 0.29399  0.85345  0.85940  Biso   1.000  C
  C65      1.0000 0.31696  0.85924  0.90595  Biso   1.000  C
  H22      1.0000 0.30587  0.79013  0.89873  Biso   1.000  H
  N22      1.0000 0.13794  0.00050  0.85553  Biso   1.000  N
  C66      1.0000 0.19815  0.96824  0.86306  Biso   1.000  C
  N23      1.0000 0.98339  0.12638  0.18260  Biso   1.000  N
  C67      1.0000 0.93457  0.25892  0.20539  Biso   1.000  C
  C68      1.0000 0.98380  0.37686  0.23932  Biso   1.000  C
  H23      1.0000 0.97293  0.43497  0.23217  Biso   1.000  H
  C69      1.0000 0.96681  0.27641  0.22816  Biso   1.000  C
  C70      1.0000 0.96065  0.18679  0.19274  Biso   1.000  C
  C71      1.0000 0.98362  0.19258  0.23929  Biso   1.000  C
  H24      1.0000 0.97253  0.12347  0.23207  Biso   1.000  H
  N24      1.0000 0.80460  0.33384  0.18887  Biso   1.000  N
  C72      1.0000 0.86481  0.30158  0.19640  Biso   1.000  C
  N25      1.0000 0.80965  0.34994  0.51593  Biso   1.000  N
  C73      1.0000 0.99101  0.39876  0.53872  Biso   1.000  C
  C74      1.0000 0.05972  0.34953  0.57265  Biso   1.000  C
  H25      1.0000 0.12870  0.36040  0.56550  Biso   1.000  H
  C75      1.0000 0.97626  0.36652  0.56149  Biso   1.000  C
  C76      1.0000 0.89280  0.37268  0.52607  Biso   1.000  C
  C77      1.0000 0.87562  0.34971  0.57262  Biso   1.000  C
  H26      1.0000 0.81760  0.36080  0.56540  Biso   1.000  H
  N26      1.0000 0.19590  0.52873  0.52220  Biso   1.000  N
  C78      1.0000 0.10343  0.46852  0.52973  Biso   1.000  C
  N27      1.0000 0.47632  0.68327  0.84926  Biso   1.000  N
  C79      1.0000 0.65768  0.73209  0.87205  Biso   1.000  C
  C80      1.0000 0.72639  0.68286  0.90598  Biso   1.000  C
  H27      1.0000 0.79537  0.69373  0.89883  Biso   1.000  H
  C81      1.0000 0.64293  0.69985  0.89482  Biso   1.000  C
  C82      1.0000 0.55947  0.70601  0.85940  Biso   1.000  C
  C83      1.0000 0.54229  0.68304  0.90595  Biso   1.000  C
  H28      1.0000 0.48427  0.69413  0.89873  Biso   1.000  H
  N28      1.0000 0.86257  0.86206  0.85553  Biso   1.000  N
  C84      1.0000 0.77010  0.80185  0.86306  Biso   1.000  C
  N29      1.0000 0.14298  0.01661  0.18260  Biso   1.000  N
  C85      1.0000 0.32434  0.06543  0.20539  Biso   1.000  C
  C86      1.0000 0.39305  0.01620  0.23932  Biso   1.000  C
  H29      1.0000 0.46203  0.02707  0.23217  Biso   1.000  H
  C87      1.0000 0.30959  0.03319  0.22816  Biso   1.000  C
  C88      1.0000 0.22613  0.03935  0.19274  Biso   1.000  C
  C89      1.0000 0.20895  0.01638  0.23929  Biso   1.000  C
  H30      1.0000 0.15093  0.02747  0.23207  Biso   1.000  H
  N30      1.0000 0.52923  0.19540  0.18887  Biso   1.000  N
  C90      1.0000 0.43676  0.13519  0.19640  Biso   1.000  C
  N31      1.0000 0.54029  0.19035  0.51593  Biso   1.000  N
  C91      1.0000 0.40775  0.00899  0.53872  Biso   1.000  C
  C92      1.0000 0.28981  0.94028  0.57265  Biso   1.000  C
  H31      1.0000 0.23170  0.87130  0.56550  Biso   1.000  H
  C93      1.0000 0.39026  0.02374  0.56149  Biso   1.000  C
  C94      1.0000 0.47988  0.10720  0.52607  Biso   1.000  C
  C95      1.0000 0.47409  0.12438  0.57262  Biso   1.000  C
  H32      1.0000 0.54320  0.18240  0.56540  Biso   1.000  H
  N32      1.0000 0.33283  0.80410  0.52220  Biso   1.000  N
  C96      1.0000 0.36509  0.89657  0.52973  Biso   1.000  C
  N33      1.0000 0.20696  0.52368  0.84926  Biso   1.000  N
  C97      1.0000 0.07442  0.34232  0.87205  Biso   1.000  C
  C98      1.0000 0.95648  0.27361  0.90598  Biso   1.000  C
  H33      1.0000 0.89837  0.20463  0.89883  Biso   1.000  H
  C99      1.0000 0.05693  0.35707  0.89482  Biso   1.000  C
  C100     1.0000 0.14655  0.44053  0.85940  Biso   1.000  C
  C101     1.0000 0.14076  0.45771  0.90595  Biso   1.000  C
  H34      1.0000 0.20987  0.51573  0.89873  Biso   1.000  H
  N34      1.0000 0.99950  0.13743  0.85553  Biso   1.000  N
  C102     1.0000 0.03176  0.22990  0.86306  Biso   1.000  C
  N35      1.0000 0.87362  0.85702  0.18260  Biso   1.000  N
  C103     1.0000 0.74108  0.67566  0.20539  Biso   1.000  C
  C104     1.0000 0.62314  0.60695  0.23932  Biso   1.000  C
  H35      1.0000 0.56503  0.53797  0.23217  Biso   1.000  H
  C105     1.0000 0.72359  0.69041  0.22816  Biso   1.000  C
  C106     1.0000 0.81321  0.77387  0.19274  Biso   1.000  C
  C107     1.0000 0.80742  0.79105  0.23929  Biso   1.000  C
  H36      1.0000 0.87653  0.84907  0.23207  Biso   1.000  H
  N36      1.0000 0.66616  0.47077  0.18887  Biso   1.000  N
  C108     1.0000 0.69842  0.56324  0.19640  Biso   1.000  C
  N37      1.0000 0.54029  0.34994  0.01593  Biso   1.000  N
  C109     1.0000 0.40775  0.39876  0.03872  Biso   1.000  C
  C110     1.0000 0.28981  0.34953  0.07265  Biso   1.000  C
  H37      1.0000 0.23170  0.36040  0.06550  Biso   1.000  H
  C111     1.0000 0.39026  0.36652  0.06149  Biso   1.000  C
  C112     1.0000 0.47988  0.37268  0.02607  Biso   1.000  C
  C113     1.0000 0.47409  0.34971  0.07262  Biso   1.000  C
  H38      1.0000 0.54320  0.36080  0.06540  Biso   1.000  H
  N38      1.0000 0.33283  0.52873  0.02220  Biso   1.000  N
  C114     1.0000 0.36509  0.46852  0.02973  Biso   1.000  C
  N39      1.0000 0.20696  0.68327  0.34926  Biso   1.000  N
  C115     1.0000 0.07442  0.73209  0.37205  Biso   1.000  C
  C116     1.0000 0.95648  0.68286  0.40598  Biso   1.000  C
  H39      1.0000 0.89837  0.69373  0.39883  Biso   1.000  H
  C117     1.0000 0.05693  0.69985  0.39482  Biso   1.000  C
  C118     1.0000 0.14655  0.70601  0.35940  Biso   1.000  C
  C119     1.0000 0.14076  0.68304  0.40595  Biso   1.000  C
  H40      1.0000 0.20987  0.69413  0.39873  Biso   1.000  H
  N40      1.0000 0.99950  0.86206  0.35553  Biso   1.000  N
  C120     1.0000 0.03176  0.80185  0.36306  Biso   1.000  C
  N41      1.0000 0.87362  0.01661  0.68260  Biso   1.000  N
  C121     1.0000 0.74108  0.06543  0.70539  Biso   1.000  C
  C122     1.0000 0.62314  0.01620  0.73932  Biso   1.000  C
  H41      1.0000 0.56503  0.02707  0.73217  Biso   1.000  H
  C123     1.0000 0.72359  0.03319  0.72816  Biso   1.000  C
  C124     1.0000 0.81321  0.03935  0.69274  Biso   1.000  C
  C125     1.0000 0.80742  0.01638  0.73929  Biso   1.000  C
  H42      1.0000 0.87653  0.02747  0.73207  Biso   1.000  H
  N42      1.0000 0.66616  0.19540  0.68887  Biso   1.000  N
  C126     1.0000 0.69842  0.13519  0.69640  Biso   1.000  C
  N43      1.0000 0.65006  0.19035  0.01593  Biso   1.000  N
  C127     1.0000 0.60124  0.00899  0.03872  Biso   1.000  C
  C128     1.0000 0.65047  0.94028  0.07265  Biso   1.000  C
  H43      1.0000 0.63960  0.87130  0.06550  Biso   1.000  H
  C129     1.0000 0.63348  0.02374  0.06149  Biso   1.000  C
  C130     1.0000 0.62732  0.10720  0.02607  Biso   1.000  C
  C131     1.0000 0.65029  0.12438  0.07262  Biso   1.000  C
  H44      1.0000 0.63920  0.18240  0.06540  Biso   1.000  H
  N44      1.0000 0.47127  0.80410  0.02220  Biso   1.000  N
  C132     1.0000 0.53148  0.89657  0.02973  Biso   1.000  C
  N45      1.0000 0.31673  0.52368  0.34926  Biso   1.000  N
  C133     1.0000 0.26791  0.34232  0.37205  Biso   1.000  C
  C134     1.0000 0.31714  0.27361  0.40598  Biso   1.000  C
  H45      1.0000 0.30627  0.20463  0.39883  Biso   1.000  H
  C135     1.0000 0.30015  0.35707  0.39482  Biso   1.000  C
  C136     1.0000 0.29399  0.44053  0.35940  Biso   1.000  C
  C137     1.0000 0.31696  0.45771  0.40595  Biso   1.000  C
  H46      1.0000 0.30587  0.51573  0.39873  Biso   1.000  H
  N46      1.0000 0.13794  0.13743  0.35553  Biso   1.000  N
  C138     1.0000 0.19815  0.22990  0.36306  Biso   1.000  C
  N47      1.0000 0.98339  0.85702  0.68260  Biso   1.000  N
  C139     1.0000 0.93457  0.67566  0.70539  Biso   1.000  C
  C140     1.0000 0.98380  0.60695  0.73932  Biso   1.000  C
  H47      1.0000 0.97293  0.53797  0.73217  Biso   1.000  H
  C141     1.0000 0.96681  0.69041  0.72816  Biso   1.000  C
  C142     1.0000 0.96065  0.77387  0.69274  Biso   1.000  C
  C143     1.0000 0.98362  0.79105  0.73929  Biso   1.000  C
  H48      1.0000 0.97253  0.84907  0.73207  Biso   1.000  H
  N48      1.0000 0.80460  0.47077  0.68887  Biso   1.000  N
  C144     1.0000 0.86481  0.56324  0.69640  Biso   1.000  C
  N49      1.0000 0.80965  0.45971  0.01593  Biso   1.000  N
  C145     1.0000 0.99101  0.59225  0.03872  Biso   1.000  C
  C146     1.0000 0.05972  0.71019  0.07265  Biso   1.000  C
  H49      1.0000 0.12870  0.76830  0.06550  Biso   1.000  H
  C147     1.0000 0.97626  0.60974  0.06149  Biso   1.000  C
  C148     1.0000 0.89280  0.52012  0.02607  Biso   1.000  C
  C149     1.0000 0.87562  0.52591  0.07262  Biso   1.000  C
  H50      1.0000 0.81760  0.45680  0.06540  Biso   1.000  H
  N50      1.0000 0.19590  0.66717  0.02220  Biso   1.000  N
  C150     1.0000 0.10343  0.63491  0.02973  Biso   1.000  C
  N51      1.0000 0.47632  0.79304  0.34926  Biso   1.000  N
  C151     1.0000 0.65768  0.92558  0.37205  Biso   1.000  C
  C152     1.0000 0.72639  0.04352  0.40598  Biso   1.000  C
  H51      1.0000 0.79537  0.10163  0.39883  Biso   1.000  H
  C153     1.0000 0.64293  0.94307  0.39482  Biso   1.000  C
  C154     1.0000 0.55947  0.85345  0.35940  Biso   1.000  C
  C155     1.0000 0.54229  0.85924  0.40595  Biso   1.000  C
  H52      1.0000 0.48427  0.79013  0.39873  Biso   1.000  H
  N52      1.0000 0.86257  0.00050  0.35553  Biso   1.000  N
  C156     1.0000 0.77010  0.96824  0.36306  Biso   1.000  C
  N53      1.0000 0.14298  0.12638  0.68260  Biso   1.000  N
  C157     1.0000 0.32434  0.25892  0.70539  Biso   1.000  C
  C158     1.0000 0.39305  0.37686  0.73932  Biso   1.000  C
  H53      1.0000 0.46203  0.43497  0.73217  Biso   1.000  H
  C159     1.0000 0.30959  0.27641  0.72816  Biso   1.000  C
  C160     1.0000 0.22613  0.18679  0.69274  Biso   1.000  C
  C161     1.0000 0.20895  0.19258  0.73929  Biso   1.000  C
  H54      1.0000 0.15093  0.12347  0.73207  Biso   1.000  H
  N54      1.0000 0.52923  0.33384  0.68887  Biso   1.000  N
  C162     1.0000 0.43676  0.30158  0.69640  Biso   1.000  C
  N55      1.0000 0.34994  0.54029  0.48407  Biso   1.000  N
  C163     1.0000 0.39876  0.40775  0.46128  Biso   1.000  C
  C164     1.0000 0.34953  0.28981  0.42735  Biso   1.000  C
  H55      1.0000 0.36040  0.23170  0.43450  Biso   1.000  H
  C165     1.0000 0.36652  0.39026  0.43851  Biso   1.000  C
  C166     1.0000 0.37268  0.47988  0.47393  Biso   1.000  C
  C167     1.0000 0.34971  0.47409  0.42738  Biso   1.000  C
  H56      1.0000 0.36080  0.54320  0.43460  Biso   1.000  H
  N56      1.0000 0.52873  0.33283  0.47780  Biso   1.000  N
  C168     1.0000 0.46852  0.36509  0.47027  Biso   1.000  C
  N57      1.0000 0.01661  0.87362  0.81740  Biso   1.000  N
  C169     1.0000 0.06543  0.74108  0.79461  Biso   1.000  C
  C170     1.0000 0.01620  0.62314  0.76068  Biso   1.000  C
  H57      1.0000 0.02707  0.56503  0.76783  Biso   1.000  H
  C171     1.0000 0.03319  0.72359  0.77184  Biso   1.000  C
  C172     1.0000 0.03935  0.81321  0.80726  Biso   1.000  C
  C173     1.0000 0.01638  0.80742  0.76071  Biso   1.000  C
  H58      1.0000 0.02747  0.87653  0.76793  Biso   1.000  H
  N58      1.0000 0.19540  0.66616  0.81113  Biso   1.000  N
  C174     1.0000 0.13519  0.69842  0.80360  Biso   1.000  C
  N59      1.0000 0.68327  0.20696  0.15074  Biso   1.000  N
  C175     1.0000 0.73209  0.07442  0.12795  Biso   1.000  C
  C176     1.0000 0.68286  0.95648  0.09402  Biso   1.000  C
  H59      1.0000 0.69373  0.89837  0.10117  Biso   1.000  H
  C177     1.0000 0.69985  0.05693  0.10518  Biso   1.000  C
  C178     1.0000 0.70601  0.14655  0.14060  Biso   1.000  C
  C179     1.0000 0.68304  0.14076  0.09405  Biso   1.000  C
  H60      1.0000 0.69413  0.20987  0.10127  Biso   1.000  H
  N60      1.0000 0.86206  0.99950  0.14447  Biso   1.000  N
  C180     1.0000 0.80185  0.03176  0.13694  Biso   1.000  C
  N61      1.0000 0.19035  0.65006  0.48407  Biso   1.000  N
  C181     1.0000 0.00899  0.60124  0.46128  Biso   1.000  C
  C182     1.0000 0.94028  0.65047  0.42735  Biso   1.000  C
  H61      1.0000 0.87130  0.63960  0.43450  Biso   1.000  H
  C183     1.0000 0.02374  0.63348  0.43851  Biso   1.000  C
  C184     1.0000 0.10720  0.62732  0.47393  Biso   1.000  C
  C185     1.0000 0.12438  0.65029  0.42738  Biso   1.000  C
  H62      1.0000 0.18240  0.63920  0.43460  Biso   1.000  H
  N62      1.0000 0.80410  0.47127  0.47780  Biso   1.000  N
  C186     1.0000 0.89657  0.53148  0.47027  Biso   1.000  C
  N63      1.0000 0.85702  0.98339  0.81740  Biso   1.000  N
  C187     1.0000 0.67566  0.93457  0.79461  Biso   1.000  C
  C188     1.0000 0.60695  0.98380  0.76068  Biso   1.000  C
  H63      1.0000 0.53797  0.97293  0.76783  Biso   1.000  H
  C189     1.0000 0.69041  0.96681  0.77184  Biso   1.000  C
  C190     1.0000 0.77387  0.96065  0.80726  Biso   1.000  C
  C191     1.0000 0.79105  0.98362  0.76071  Biso   1.000  C
  H64      1.0000 0.84907  0.97253  0.76793  Biso   1.000  H
  N64      1.0000 0.47077  0.80460  0.81113  Biso   1.000  N
  C192     1.0000 0.56324  0.86481  0.80360  Biso   1.000  C
  N65      1.0000 0.52368  0.31673  0.15074  Biso   1.000  N
  C193     1.0000 0.34232  0.26791  0.12795  Biso   1.000  C
  C194     1.0000 0.27361  0.31714  0.09402  Biso   1.000  C
  H65      1.0000 0.20463  0.30627  0.10117  Biso   1.000  H
  C195     1.0000 0.35707  0.30015  0.10518  Biso   1.000  C
  C196     1.0000 0.44053  0.29399  0.14060  Biso   1.000  C
  C197     1.0000 0.45771  0.31696  0.09405  Biso   1.000  C
  H66      1.0000 0.51573  0.30587  0.10127  Biso   1.000  H
  N66      1.0000 0.13743  0.13794  0.14447  Biso   1.000  N
  C198     1.0000 0.22990  0.19815  0.13694  Biso   1.000  C
  N67      1.0000 0.45971  0.80965  0.48407  Biso   1.000  N
  C199     1.0000 0.59225  0.99101  0.46128  Biso   1.000  C
  C200     1.0000 0.71019  0.05972  0.42735  Biso   1.000  C
  H67      1.0000 0.76830  0.12870  0.43450  Biso   1.000  H
  C201     1.0000 0.60974  0.97626  0.43851  Biso   1.000  C
  C202     1.0000 0.52012  0.89280  0.47393  Biso   1.000  C
  C203     1.0000 0.52591  0.87562  0.42738  Biso   1.000  C
  H68      1.0000 0.45680  0.81760  0.43460  Biso   1.000  H
  N68      1.0000 0.66717  0.19590  0.47780  Biso   1.000  N
  C204     1.0000 0.63491  0.10343  0.47027  Biso   1.000  C
  N69      1.0000 0.12638  0.14298  0.81740  Biso   1.000  N
  C205     1.0000 0.25892  0.32434  0.79461  Biso   1.000  C
  C206     1.0000 0.37686  0.39305  0.76068  Biso   1.000  C
  H69      1.0000 0.43497  0.46203  0.76783  Biso   1.000  H
  C207     1.0000 0.27641  0.30959  0.77184  Biso   1.000  C
  C208     1.0000 0.18679  0.22613  0.80726  Biso   1.000  C
  C209     1.0000 0.19258  0.20895  0.76071  Biso   1.000  C
  H70      1.0000 0.12347  0.15093  0.76793  Biso   1.000  H
  N70      1.0000 0.33384  0.52923  0.81113  Biso   1.000  N
  C210     1.0000 0.30158  0.43676  0.80360  Biso   1.000  C
  N71      1.0000 0.79304  0.47632  0.15074  Biso   1.000  N
  C211     1.0000 0.92558  0.65768  0.12795  Biso   1.000  C
  C212     1.0000 0.04352  0.72639  0.09402  Biso   1.000  C
  H71      1.0000 0.10163  0.79537  0.10117  Biso   1.000  H
  C213     1.0000 0.94307  0.64293  0.10518  Biso   1.000  C
  C214     1.0000 0.85345  0.55947  0.14060  Biso   1.000  C
  C215     1.0000 0.85924  0.54229  0.09405  Biso   1.000  C
  H72      1.0000 0.79013  0.48427  0.10127  Biso   1.000  H
  N72      1.0000 0.00050  0.86257  0.14447  Biso   1.000  N
  C216     1.0000 0.96824  0.77010  0.13694  Biso   1.000  C
  Fe1      1.0000 0.33333  0.66667  0.00354  Biso   1.000  Fe
  Fe2      1.0000 0.00000  0.00000  0.33688  Biso   1.000  Fe
  Fe3      1.0000 0.66667  0.33333  0.67021  Biso   1.000  Fe
  Fe4      1.0000 0.66667  0.33333  0.49646  Biso   1.000  Fe
  Fe5      1.0000 0.33333  0.66667  0.82979  Biso   1.000  Fe
  Fe6      1.0000 0.00000  0.00000  0.16312  Biso   1.000  Fe
  Fe7      1.0000 0.66667  0.33333  0.99646  Biso   1.000  Fe
  Fe8      1.0000 0.33333  0.66667  0.32979  Biso   1.000  Fe
  Fe9      1.0000 0.00000  0.00000  0.66312  Biso   1.000  Fe
  Fe10     1.0000 0.33333  0.66667  0.50354  Biso   1.000  Fe
  Fe11     1.0000 0.00000  0.00000  0.83688  Biso   1.000  Fe
  Fe12     1.0000 0.66667  0.33333  0.17021  Biso   1.000  Fe
