data_image0
_cell_length_a       12.9021
_cell_length_b       12.9021
_cell_length_c       62.407
_cell_angle_alpha    90
_cell_angle_beta     90
_cell_angle_gamma    120

_symmetry_space_group_name_H-M    "P 1"
_symmetry_int_tables_number       1

loop_
  _symmetry_equiv_pos_as_xyz
  'x, y, z'

loop_
  _atom_site_label
  _atom_site_occupancy
  _atom_site_fract_x
  _atom_site_fract_y
  _atom_site_fract_z
  _atom_site_thermal_displace_type
  _atom_site_B_iso_or_equiv
  _atom_site_type_symbol
  N1       1.0000 0.19733  0.53141  0.02214  Biso   1.000  N
  C1       1.0000 0.10400  0.47002  0.02958  Biso   1.000  C
  C2       1.0000 0.89121  0.37172  0.02600  Biso   1.000  C
  C3       1.0000 0.99099  0.39867  0.03858  Biso   1.000  C
  C4       1.0000 0.97604  0.36629  0.06140  Biso   1.000  C
  C5       1.0000 0.06059  0.34937  0.07261  Biso   1.000  C
  H1       1.0000 0.13010  0.36010  0.06540  Biso   1.000  H
  C6       1.0000 0.87473  0.34969  0.07269  Biso   1.000  C
  H2       1.0000 0.81630  0.36120  0.06550  Biso   1.000  H
  N2       1.0000 0.80717  0.34828  0.01595  Biso   1.000  N
  N3       1.0000 0.86400  0.86474  0.35547  Biso   1.000  N
  C7       1.0000 0.77067  0.80335  0.36291  Biso   1.000  C
  C8       1.0000 0.55788  0.70505  0.35933  Biso   1.000  C
  C9       1.0000 0.65766  0.73200  0.37191  Biso   1.000  C
  C10      1.0000 0.64271  0.69962  0.39473  Biso   1.000  C
  C11      1.0000 0.72726  0.68270  0.40594  Biso   1.000  C
  H3       1.0000 0.79677  0.69343  0.39873  Biso   1.000  H
  C12      1.0000 0.54140  0.68302  0.40602  Biso   1.000  C
  H4       1.0000 0.48297  0.69453  0.39883  Biso   1.000  H
  N4       1.0000 0.47384  0.68161  0.34928  Biso   1.000  N
  N5       1.0000 0.53066  0.19808  0.68881  Biso   1.000  N
  C13      1.0000 0.43733  0.13669  0.69625  Biso   1.000  C
  C14      1.0000 0.22454  0.03839  0.69267  Biso   1.000  C
  C15      1.0000 0.32432  0.06534  0.70525  Biso   1.000  C
  C16      1.0000 0.30937  0.03296  0.72807  Biso   1.000  C
  C17      1.0000 0.39392  0.01604  0.73928  Biso   1.000  C
  H5       1.0000 0.46343  0.02677  0.73207  Biso   1.000  H
  C18      1.0000 0.20806  0.01636  0.73936  Biso   1.000  C
  H6       1.0000 0.14963  0.02787  0.73217  Biso   1.000  H
  N6       1.0000 0.14050  0.01495  0.68262  Biso   1.000  N
  N7       1.0000 0.46859  0.66592  0.02214  Biso   1.000  N
  C19      1.0000 0.52998  0.63398  0.02958  Biso   1.000  C
  C20      1.0000 0.62828  0.51949  0.02600  Biso   1.000  C
  C21      1.0000 0.60133  0.59232  0.03858  Biso   1.000  C
  C22      1.0000 0.63371  0.60975  0.06140  Biso   1.000  C
  C23      1.0000 0.65063  0.71122  0.07261  Biso   1.000  C
  H7       1.0000 0.63990  0.77000  0.06540  Biso   1.000  H
  C24      1.0000 0.65031  0.52504  0.07269  Biso   1.000  C
  H8       1.0000 0.63880  0.45510  0.06550  Biso   1.000  H
  N8       1.0000 0.65172  0.45889  0.01595  Biso   1.000  N
  N9       1.0000 0.13526  0.99925  0.35547  Biso   1.000  N
  C25      1.0000 0.19665  0.96731  0.36291  Biso   1.000  C
  C26      1.0000 0.29495  0.85282  0.35933  Biso   1.000  C
  C27      1.0000 0.26800  0.92565  0.37191  Biso   1.000  C
  C28      1.0000 0.30038  0.94308  0.39473  Biso   1.000  C
  C29      1.0000 0.31730  0.04455  0.40594  Biso   1.000  C
  H9       1.0000 0.30657  0.10333  0.39873  Biso   1.000  H
  C30      1.0000 0.31698  0.85837  0.40602  Biso   1.000  C
  H10      1.0000 0.30547  0.78843  0.39883  Biso   1.000  H
  N10      1.0000 0.31839  0.79222  0.34928  Biso   1.000  N
  N11      1.0000 0.80192  0.33259  0.68881  Biso   1.000  N
  C31      1.0000 0.86331  0.30065  0.69625  Biso   1.000  C
  C32      1.0000 0.96161  0.18616  0.69267  Biso   1.000  C
  C33      1.0000 0.93466  0.25899  0.70525  Biso   1.000  C
  C34      1.0000 0.96704  0.27642  0.72807  Biso   1.000  C
  C35      1.0000 0.98396  0.37789  0.73928  Biso   1.000  C
  H11      1.0000 0.97323  0.43667  0.73207  Biso   1.000  H
  C36      1.0000 0.98364  0.19171  0.73936  Biso   1.000  C
  H12      1.0000 0.97213  0.12177  0.73217  Biso   1.000  H
  N12      1.0000 0.98505  0.12556  0.68262  Biso   1.000  N
  N13      1.0000 0.33408  0.80267  0.02214  Biso   1.000  N
  C37      1.0000 0.36602  0.89600  0.02958  Biso   1.000  C
  C38      1.0000 0.48051  0.10879  0.02600  Biso   1.000  C
  C39      1.0000 0.40768  0.00901  0.03858  Biso   1.000  C
  C40      1.0000 0.39025  0.02396  0.06140  Biso   1.000  C
  C41      1.0000 0.28878  0.93941  0.07261  Biso   1.000  C
  H13      1.0000 0.23000  0.86990  0.06540  Biso   1.000  H
  C42      1.0000 0.47496  0.12527  0.07269  Biso   1.000  C
  H14      1.0000 0.54490  0.18370  0.06550  Biso   1.000  H
  N14      1.0000 0.54111  0.19283  0.01595  Biso   1.000  N
  N15      1.0000 0.00075  0.13600  0.35547  Biso   1.000  N
  C43      1.0000 0.03269  0.22933  0.36291  Biso   1.000  C
  C44      1.0000 0.14718  0.44212  0.35933  Biso   1.000  C
  C45      1.0000 0.07435  0.34234  0.37191  Biso   1.000  C
  C46      1.0000 0.05692  0.35729  0.39473  Biso   1.000  C
  C47      1.0000 0.95545  0.27274  0.40594  Biso   1.000  C
  H15      1.0000 0.89667  0.20323  0.39873  Biso   1.000  H
  C48      1.0000 0.14163  0.45860  0.40602  Biso   1.000  C
  H16      1.0000 0.21157  0.51703  0.39883  Biso   1.000  H
  N16      1.0000 0.20778  0.52616  0.34928  Biso   1.000  N
  N17      1.0000 0.66741  0.46934  0.68881  Biso   1.000  N
  C49      1.0000 0.69935  0.56267  0.69625  Biso   1.000  C
  C50      1.0000 0.81384  0.77546  0.69267  Biso   1.000  C
  C51      1.0000 0.74101  0.67568  0.70525  Biso   1.000  C
  C52      1.0000 0.72358  0.69063  0.72807  Biso   1.000  C
  C53      1.0000 0.62211  0.60608  0.73928  Biso   1.000  C
  H17      1.0000 0.56333  0.53657  0.73207  Biso   1.000  H
  C54      1.0000 0.80829  0.79194  0.73936  Biso   1.000  C
  H18      1.0000 0.87823  0.85037  0.73217  Biso   1.000  H
  N18      1.0000 0.87444  0.85950  0.68262  Biso   1.000  N
  N19      1.0000 0.53141  0.19733  0.47786  Biso   1.000  N
  C55      1.0000 0.47002  0.10400  0.47042  Biso   1.000  C
  C56      1.0000 0.37172  0.89121  0.47400  Biso   1.000  C
  C57      1.0000 0.39867  0.99099  0.46142  Biso   1.000  C
  C58      1.0000 0.36629  0.97604  0.43860  Biso   1.000  C
  C59      1.0000 0.34937  0.06059  0.42739  Biso   1.000  C
  H19      1.0000 0.36010  0.13010  0.43460  Biso   1.000  H
  C60      1.0000 0.34969  0.87473  0.42731  Biso   1.000  C
  H20      1.0000 0.36120  0.81630  0.43450  Biso   1.000  H
  N20      1.0000 0.34828  0.80717  0.48405  Biso   1.000  N
  N21      1.0000 0.19808  0.53066  0.81119  Biso   1.000  N
  C61      1.0000 0.13669  0.43733  0.80375  Biso   1.000  C
  C62      1.0000 0.03839  0.22454  0.80733  Biso   1.000  C
  C63      1.0000 0.06534  0.32432  0.79475  Biso   1.000  C
  C64      1.0000 0.03296  0.30937  0.77193  Biso   1.000  C
  C65      1.0000 0.01604  0.39392  0.76072  Biso   1.000  C
  H21      1.0000 0.02677  0.46343  0.76793  Biso   1.000  H
  C66      1.0000 0.01636  0.20806  0.76064  Biso   1.000  C
  H22      1.0000 0.02787  0.14963  0.76783  Biso   1.000  H
  N22      1.0000 0.01495  0.14050  0.81738  Biso   1.000  N
  N23      1.0000 0.86474  0.86400  0.14453  Biso   1.000  N
  C67      1.0000 0.80335  0.77067  0.13709  Biso   1.000  C
  C68      1.0000 0.70505  0.55788  0.14067  Biso   1.000  C
  C69      1.0000 0.73200  0.65766  0.12809  Biso   1.000  C
  C70      1.0000 0.69962  0.64271  0.10527  Biso   1.000  C
  C71      1.0000 0.68270  0.72726  0.09406  Biso   1.000  C
  H23      1.0000 0.69343  0.79677  0.10127  Biso   1.000  H
  C72      1.0000 0.68302  0.54140  0.09398  Biso   1.000  C
  H24      1.0000 0.69453  0.48297  0.10117  Biso   1.000  H
  N24      1.0000 0.68161  0.47384  0.15072  Biso   1.000  N
  N25      1.0000 0.66592  0.46859  0.47786  Biso   1.000  N
  C73      1.0000 0.63398  0.52998  0.47042  Biso   1.000  C
  C74      1.0000 0.51949  0.62828  0.47400  Biso   1.000  C
  C75      1.0000 0.59232  0.60133  0.46142  Biso   1.000  C
  C76      1.0000 0.60975  0.63371  0.43860  Biso   1.000  C
  C77      1.0000 0.71122  0.65063  0.42739  Biso   1.000  C
  H25      1.0000 0.77000  0.63990  0.43460  Biso   1.000  H
  C78      1.0000 0.52504  0.65031  0.42731  Biso   1.000  C
  H26      1.0000 0.45510  0.63880  0.43450  Biso   1.000  H
  N26      1.0000 0.45889  0.65172  0.48405  Biso   1.000  N
  N27      1.0000 0.33259  0.80192  0.81119  Biso   1.000  N
  C79      1.0000 0.30065  0.86331  0.80375  Biso   1.000  C
  C80      1.0000 0.18616  0.96161  0.80733  Biso   1.000  C
  C81      1.0000 0.25899  0.93466  0.79475  Biso   1.000  C
  C82      1.0000 0.27642  0.96704  0.77193  Biso   1.000  C
  C83      1.0000 0.37789  0.98396  0.76072  Biso   1.000  C
  H27      1.0000 0.43667  0.97323  0.76793  Biso   1.000  H
  C84      1.0000 0.19171  0.98364  0.76064  Biso   1.000  C
  H28      1.0000 0.12177  0.97213  0.76783  Biso   1.000  H
  N28      1.0000 0.12556  0.98505  0.81738  Biso   1.000  N
  N29      1.0000 0.99925  0.13526  0.14453  Biso   1.000  N
  C85      1.0000 0.96731  0.19665  0.13709  Biso   1.000  C
  C86      1.0000 0.85282  0.29495  0.14067  Biso   1.000  C
  C87      1.0000 0.92565  0.26800  0.12809  Biso   1.000  C
  C88      1.0000 0.94308  0.30038  0.10527  Biso   1.000  C
  C89      1.0000 0.04455  0.31730  0.09406  Biso   1.000  C
  H29      1.0000 0.10333  0.30657  0.10127  Biso   1.000  H
  C90      1.0000 0.85837  0.31698  0.09398  Biso   1.000  C
  H30      1.0000 0.78843  0.30547  0.10117  Biso   1.000  H
  N30      1.0000 0.79222  0.31839  0.15072  Biso   1.000  N
  N31      1.0000 0.80267  0.33408  0.47786  Biso   1.000  N
  C91      1.0000 0.89600  0.36602  0.47042  Biso   1.000  C
  C92      1.0000 0.10879  0.48051  0.47400  Biso   1.000  C
  C93      1.0000 0.00901  0.40768  0.46142  Biso   1.000  C
  C94      1.0000 0.02396  0.39025  0.43860  Biso   1.000  C
  C95      1.0000 0.93941  0.28878  0.42739  Biso   1.000  C
  H31      1.0000 0.86990  0.23000  0.43460  Biso   1.000  H
  C96      1.0000 0.12527  0.47496  0.42731  Biso   1.000  C
  H32      1.0000 0.18370  0.54490  0.43450  Biso   1.000  H
  N32      1.0000 0.19283  0.54111  0.48405  Biso   1.000  N
  N33      1.0000 0.46934  0.66741  0.81119  Biso   1.000  N
  C97      1.0000 0.56267  0.69935  0.80375  Biso   1.000  C
  C98      1.0000 0.77546  0.81384  0.80733  Biso   1.000  C
  C99      1.0000 0.67568  0.74101  0.79475  Biso   1.000  C
  C100     1.0000 0.69063  0.72358  0.77193  Biso   1.000  C
  C101     1.0000 0.60608  0.62211  0.76072  Biso   1.000  C
  H33      1.0000 0.53657  0.56333  0.76793  Biso   1.000  H
  C102     1.0000 0.79194  0.80829  0.76064  Biso   1.000  C
  H34      1.0000 0.85037  0.87823  0.76783  Biso   1.000  H
  N34      1.0000 0.85950  0.87444  0.81738  Biso   1.000  N
  N35      1.0000 0.13600  0.00075  0.14453  Biso   1.000  N
  C103     1.0000 0.22933  0.03269  0.13709  Biso   1.000  C
  C104     1.0000 0.44212  0.14718  0.14067  Biso   1.000  C
  C105     1.0000 0.34234  0.07435  0.12809  Biso   1.000  C
  C106     1.0000 0.35729  0.05692  0.10527  Biso   1.000  C
  C107     1.0000 0.27274  0.95545  0.09406  Biso   1.000  C
  H35      1.0000 0.20323  0.89667  0.10127  Biso   1.000  H
  C108     1.0000 0.45860  0.14163  0.09398  Biso   1.000  C
  H36      1.0000 0.51703  0.21157  0.10117  Biso   1.000  H
  N36      1.0000 0.52616  0.20778  0.15072  Biso   1.000  N
  N37      1.0000 0.80267  0.46859  0.97786  Biso   1.000  N
  C109     1.0000 0.89600  0.52998  0.97042  Biso   1.000  C
  C110     1.0000 0.10879  0.62828  0.97400  Biso   1.000  C
  C111     1.0000 0.00901  0.60133  0.96142  Biso   1.000  C
  C112     1.0000 0.02396  0.63371  0.93860  Biso   1.000  C
  C113     1.0000 0.93941  0.65063  0.92739  Biso   1.000  C
  H37      1.0000 0.86990  0.63990  0.93460  Biso   1.000  H
  C114     1.0000 0.12527  0.65031  0.92731  Biso   1.000  C
  H38      1.0000 0.18370  0.63880  0.93450  Biso   1.000  H
  N38      1.0000 0.19283  0.65172  0.98405  Biso   1.000  N
  N39      1.0000 0.46934  0.80192  0.31119  Biso   1.000  N
  C115     1.0000 0.56267  0.86331  0.30375  Biso   1.000  C
  C116     1.0000 0.77546  0.96161  0.30733  Biso   1.000  C
  C117     1.0000 0.67568  0.93466  0.29475  Biso   1.000  C
  C118     1.0000 0.69063  0.96704  0.27193  Biso   1.000  C
  C119     1.0000 0.60608  0.98396  0.26072  Biso   1.000  C
  H39      1.0000 0.53657  0.97323  0.26793  Biso   1.000  H
  C120     1.0000 0.79194  0.98364  0.26064  Biso   1.000  C
  H40      1.0000 0.85037  0.97213  0.26783  Biso   1.000  H
  N40      1.0000 0.85950  0.98505  0.31738  Biso   1.000  N
  N41      1.0000 0.13600  0.13526  0.64453  Biso   1.000  N
  C121     1.0000 0.22933  0.19665  0.63709  Biso   1.000  C
  C122     1.0000 0.44212  0.29495  0.64067  Biso   1.000  C
  C123     1.0000 0.34234  0.26800  0.62809  Biso   1.000  C
  C124     1.0000 0.35729  0.30038  0.60527  Biso   1.000  C
  C125     1.0000 0.27274  0.31730  0.59406  Biso   1.000  C
  H41      1.0000 0.20323  0.30657  0.60127  Biso   1.000  H
  C126     1.0000 0.45860  0.31698  0.59398  Biso   1.000  C
  H42      1.0000 0.51703  0.30547  0.60117  Biso   1.000  H
  N42      1.0000 0.52616  0.31839  0.65072  Biso   1.000  N
  N43      1.0000 0.53141  0.33408  0.97786  Biso   1.000  N
  C127     1.0000 0.47002  0.36602  0.97042  Biso   1.000  C
  C128     1.0000 0.37172  0.48051  0.97400  Biso   1.000  C
  C129     1.0000 0.39867  0.40768  0.96142  Biso   1.000  C
  C130     1.0000 0.36629  0.39025  0.93860  Biso   1.000  C
  C131     1.0000 0.34937  0.28878  0.92739  Biso   1.000  C
  H43      1.0000 0.36010  0.23000  0.93460  Biso   1.000  H
  C132     1.0000 0.34969  0.47496  0.92731  Biso   1.000  C
  H44      1.0000 0.36120  0.54490  0.93450  Biso   1.000  H
  N44      1.0000 0.34828  0.54111  0.98405  Biso   1.000  N
  N45      1.0000 0.19808  0.66741  0.31119  Biso   1.000  N
  C133     1.0000 0.13669  0.69935  0.30375  Biso   1.000  C
  C134     1.0000 0.03839  0.81384  0.30733  Biso   1.000  C
  C135     1.0000 0.06534  0.74101  0.29475  Biso   1.000  C
  C136     1.0000 0.03296  0.72358  0.27193  Biso   1.000  C
  C137     1.0000 0.01604  0.62211  0.26072  Biso   1.000  C
  H45      1.0000 0.02677  0.56333  0.26793  Biso   1.000  H
  C138     1.0000 0.01636  0.80829  0.26064  Biso   1.000  C
  H46      1.0000 0.02787  0.87823  0.26783  Biso   1.000  H
  N46      1.0000 0.01495  0.87444  0.31738  Biso   1.000  N
  N47      1.0000 0.86474  0.00075  0.64453  Biso   1.000  N
  C139     1.0000 0.80335  0.03269  0.63709  Biso   1.000  C
  C140     1.0000 0.70505  0.14718  0.64067  Biso   1.000  C
  C141     1.0000 0.73200  0.07435  0.62809  Biso   1.000  C
  C142     1.0000 0.69962  0.05692  0.60527  Biso   1.000  C
  C143     1.0000 0.68270  0.95545  0.59406  Biso   1.000  C
  H47      1.0000 0.69343  0.89667  0.60127  Biso   1.000  H
  C144     1.0000 0.68302  0.14163  0.59398  Biso   1.000  C
  H48      1.0000 0.69453  0.21157  0.60117  Biso   1.000  H
  N48      1.0000 0.68161  0.20778  0.65072  Biso   1.000  N
  N49      1.0000 0.66592  0.19733  0.97786  Biso   1.000  N
  C145     1.0000 0.63398  0.10400  0.97042  Biso   1.000  C
  C146     1.0000 0.51949  0.89121  0.97400  Biso   1.000  C
  C147     1.0000 0.59232  0.99099  0.96142  Biso   1.000  C
  C148     1.0000 0.60975  0.97604  0.93860  Biso   1.000  C
  C149     1.0000 0.71122  0.06059  0.92739  Biso   1.000  C
  H49      1.0000 0.77000  0.13010  0.93460  Biso   1.000  H
  C150     1.0000 0.52504  0.87473  0.92731  Biso   1.000  C
  H50      1.0000 0.45510  0.81630  0.93450  Biso   1.000  H
  N50      1.0000 0.45889  0.80717  0.98405  Biso   1.000  N
  N51      1.0000 0.33259  0.53066  0.31119  Biso   1.000  N
  C151     1.0000 0.30065  0.43733  0.30375  Biso   1.000  C
  C152     1.0000 0.18616  0.22454  0.30733  Biso   1.000  C
  C153     1.0000 0.25899  0.32432  0.29475  Biso   1.000  C
  C154     1.0000 0.27642  0.30937  0.27193  Biso   1.000  C
  C155     1.0000 0.37789  0.39392  0.26072  Biso   1.000  C
  H51      1.0000 0.43667  0.46343  0.26793  Biso   1.000  H
  C156     1.0000 0.19171  0.20806  0.26064  Biso   1.000  C
  H52      1.0000 0.12177  0.14963  0.26783  Biso   1.000  H
  N52      1.0000 0.12556  0.14050  0.31738  Biso   1.000  N
  N53      1.0000 0.99925  0.86400  0.64453  Biso   1.000  N
  C157     1.0000 0.96731  0.77067  0.63709  Biso   1.000  C
  C158     1.0000 0.85282  0.55788  0.64067  Biso   1.000  C
  C159     1.0000 0.92565  0.65766  0.62809  Biso   1.000  C
  C160     1.0000 0.94308  0.64271  0.60527  Biso   1.000  C
  C161     1.0000 0.04455  0.72726  0.59406  Biso   1.000  C
  H53      1.0000 0.10333  0.79677  0.60127  Biso   1.000  H
  C162     1.0000 0.85837  0.54140  0.59398  Biso   1.000  C
  H54      1.0000 0.78843  0.48297  0.60117  Biso   1.000  H
  N54      1.0000 0.79222  0.47384  0.65072  Biso   1.000  N
  N55      1.0000 0.46859  0.80267  0.52214  Biso   1.000  N
  C163     1.0000 0.52998  0.89600  0.52958  Biso   1.000  C
  C164     1.0000 0.62828  0.10879  0.52600  Biso   1.000  C
  C165     1.0000 0.60133  0.00901  0.53858  Biso   1.000  C
  C166     1.0000 0.63371  0.02396  0.56140  Biso   1.000  C
  C167     1.0000 0.65063  0.93941  0.57261  Biso   1.000  C
  H55      1.0000 0.63990  0.86990  0.56540  Biso   1.000  H
  C168     1.0000 0.65031  0.12527  0.57269  Biso   1.000  C
  H56      1.0000 0.63880  0.18370  0.56550  Biso   1.000  H
  N56      1.0000 0.65172  0.19283  0.51595  Biso   1.000  N
  N57      1.0000 0.13526  0.13600  0.85547  Biso   1.000  N
  C169     1.0000 0.19665  0.22933  0.86291  Biso   1.000  C
  C170     1.0000 0.29495  0.44212  0.85933  Biso   1.000  C
  C171     1.0000 0.26800  0.34234  0.87191  Biso   1.000  C
  C172     1.0000 0.30038  0.35729  0.89473  Biso   1.000  C
  C173     1.0000 0.31730  0.27274  0.90594  Biso   1.000  C
  H57      1.0000 0.30657  0.20323  0.89873  Biso   1.000  H
  C174     1.0000 0.31698  0.45860  0.90602  Biso   1.000  C
  H58      1.0000 0.30547  0.51703  0.89883  Biso   1.000  H
  N58      1.0000 0.31839  0.52616  0.84928  Biso   1.000  N
  N59      1.0000 0.80192  0.46934  0.18881  Biso   1.000  N
  C175     1.0000 0.86331  0.56267  0.19625  Biso   1.000  C
  C176     1.0000 0.96161  0.77546  0.19267  Biso   1.000  C
  C177     1.0000 0.93466  0.67568  0.20525  Biso   1.000  C
  C178     1.0000 0.96704  0.69063  0.22807  Biso   1.000  C
  C179     1.0000 0.98396  0.60608  0.23928  Biso   1.000  C
  H59      1.0000 0.97323  0.53657  0.23207  Biso   1.000  H
  C180     1.0000 0.98364  0.79194  0.23936  Biso   1.000  C
  H60      1.0000 0.97213  0.85037  0.23217  Biso   1.000  H
  N60      1.0000 0.98505  0.85950  0.18262  Biso   1.000  N
  N61      1.0000 0.33408  0.53141  0.52214  Biso   1.000  N
  C181     1.0000 0.36602  0.47002  0.52958  Biso   1.000  C
  C182     1.0000 0.48051  0.37172  0.52600  Biso   1.000  C
  C183     1.0000 0.40768  0.39867  0.53858  Biso   1.000  C
  C184     1.0000 0.39025  0.36629  0.56140  Biso   1.000  C
  C185     1.0000 0.28878  0.34937  0.57261  Biso   1.000  C
  H61      1.0000 0.23000  0.36010  0.56540  Biso   1.000  H
  C186     1.0000 0.47496  0.34969  0.57269  Biso   1.000  C
  H62      1.0000 0.54490  0.36120  0.56550  Biso   1.000  H
  N62      1.0000 0.54111  0.34828  0.51595  Biso   1.000  N
  N63      1.0000 0.00075  0.86474  0.85547  Biso   1.000  N
  C187     1.0000 0.03269  0.80335  0.86291  Biso   1.000  C
  C188     1.0000 0.14718  0.70505  0.85933  Biso   1.000  C
  C189     1.0000 0.07435  0.73200  0.87191  Biso   1.000  C
  C190     1.0000 0.05692  0.69962  0.89473  Biso   1.000  C
  C191     1.0000 0.95545  0.68270  0.90594  Biso   1.000  C
  H63      1.0000 0.89667  0.69343  0.89873  Biso   1.000  H
  C192     1.0000 0.14163  0.68302  0.90602  Biso   1.000  C
  H64      1.0000 0.21157  0.69453  0.89883  Biso   1.000  H
  N64      1.0000 0.20778  0.68161  0.84928  Biso   1.000  N
  N65      1.0000 0.66741  0.19808  0.18881  Biso   1.000  N
  C193     1.0000 0.69935  0.13669  0.19625  Biso   1.000  C
  C194     1.0000 0.81384  0.03839  0.19267  Biso   1.000  C
  C195     1.0000 0.74101  0.06534  0.20525  Biso   1.000  C
  C196     1.0000 0.72358  0.03296  0.22807  Biso   1.000  C
  C197     1.0000 0.62211  0.01604  0.23928  Biso   1.000  C
  H65      1.0000 0.56333  0.02677  0.23207  Biso   1.000  H
  C198     1.0000 0.80829  0.01636  0.23936  Biso   1.000  C
  H66      1.0000 0.87823  0.02787  0.23217  Biso   1.000  H
  N66      1.0000 0.87444  0.01495  0.18262  Biso   1.000  N
  N67      1.0000 0.19733  0.66592  0.52214  Biso   1.000  N
  C199     1.0000 0.10400  0.63398  0.52958  Biso   1.000  C
  C200     1.0000 0.89121  0.51949  0.52600  Biso   1.000  C
  C201     1.0000 0.99099  0.59232  0.53858  Biso   1.000  C
  C202     1.0000 0.97604  0.60975  0.56140  Biso   1.000  C
  C203     1.0000 0.06059  0.71122  0.57261  Biso   1.000  C
  H67      1.0000 0.13010  0.77000  0.56540  Biso   1.000  H
  C204     1.0000 0.87473  0.52504  0.57269  Biso   1.000  C
  H68      1.0000 0.81630  0.45510  0.56550  Biso   1.000  H
  N68      1.0000 0.80717  0.45889  0.51595  Biso   1.000  N
  N69      1.0000 0.86400  0.99925  0.85547  Biso   1.000  N
  C205     1.0000 0.77067  0.96731  0.86291  Biso   1.000  C
  C206     1.0000 0.55788  0.85282  0.85933  Biso   1.000  C
  C207     1.0000 0.65766  0.92565  0.87191  Biso   1.000  C
  C208     1.0000 0.64271  0.94308  0.89473  Biso   1.000  C
  C209     1.0000 0.72726  0.04455  0.90594  Biso   1.000  C
  H69      1.0000 0.79677  0.10333  0.89873  Biso   1.000  H
  C210     1.0000 0.54140  0.85837  0.90602  Biso   1.000  C
  H70      1.0000 0.48297  0.78843  0.89883  Biso   1.000  H
  N70      1.0000 0.47384  0.79222  0.84928  Biso   1.000  N
  N71      1.0000 0.53066  0.33259  0.18881  Biso   1.000  N
  C211     1.0000 0.43733  0.30065  0.19625  Biso   1.000  C
  C212     1.0000 0.22454  0.18616  0.19267  Biso   1.000  C
  C213     1.0000 0.32432  0.25899  0.20525  Biso   1.000  C
  C214     1.0000 0.30937  0.27642  0.22807  Biso   1.000  C
  C215     1.0000 0.39392  0.37789  0.23928  Biso   1.000  C
  H71      1.0000 0.46343  0.43667  0.23207  Biso   1.000  H
  C216     1.0000 0.20806  0.19171  0.23936  Biso   1.000  C
  H72      1.0000 0.14963  0.12177  0.23217  Biso   1.000  H
  N72      1.0000 0.14050  0.12556  0.18262  Biso   1.000  N
  Co1      1.0000 0.33333  0.66667  0.00347  Biso   1.000  Co
  Co2      1.0000 0.00000  0.00000  0.33680  Biso   1.000  Co
  Co3      1.0000 0.66667  0.33333  0.67014  Biso   1.000  Co
  Co4      1.0000 0.66667  0.33333  0.49653  Biso   1.000  Co
  Co5      1.0000 0.33333  0.66667  0.82986  Biso   1.000  Co
  Co6      1.0000 0.00000  0.00000  0.16320  Biso   1.000  Co
  Co7      1.0000 0.66667  0.33333  0.99653  Biso   1.000  Co
  Co8      1.0000 0.33333  0.66667  0.32986  Biso   1.000  Co
  Co9      1.0000 0.00000  0.00000  0.66320  Biso   1.000  Co
  Co10     1.0000 0.33333  0.66667  0.50347  Biso   1.000  Co
  Co11     1.0000 0.00000  0.00000  0.83680  Biso   1.000  Co
  Co12     1.0000 0.66667  0.33333  0.17014  Biso   1.000  Co
