data_image0
_cell_length_a       12.8717
_cell_length_b       12.8717
_cell_length_c       61.931
_cell_angle_alpha    90
_cell_angle_beta     90
_cell_angle_gamma    120

_symmetry_space_group_name_H-M    "P 1"
_symmetry_int_tables_number       1

loop_
  _symmetry_equiv_pos_as_xyz
  'x, y, z'

loop_
  _atom_site_label
  _atom_site_occupancy
  _atom_site_fract_x
  _atom_site_fract_y
  _atom_site_fract_z
  _atom_site_thermal_displace_type
  _atom_site_B_iso_or_equiv
  _atom_site_type_symbol
  N1       1.0000 0.33402  0.80158  0.02172  Biso   1.000  N
  N2       1.0000 0.54083  0.19482  0.01568  Biso   1.000  N
  C1       1.0000 0.36589  0.89549  0.02915  Biso   1.000  C
  C2       1.0000 0.48026  0.10949  0.02562  Biso   1.000  C
  C3       1.0000 0.40735  0.00903  0.03824  Biso   1.000  C
  C4       1.0000 0.38977  0.02375  0.06116  Biso   1.000  C
  C5       1.0000 0.28837  0.93882  0.07253  Biso   1.000  C
  C6       1.0000 0.47470  0.12515  0.07254  Biso   1.000  C
  H1       1.0000 0.23070  0.87020  0.06540  Biso   1.000  H
  H2       1.0000 0.54440  0.18680  0.06580  Biso   1.000  H
  N3       1.0000 0.00069  0.13491  0.35505  Biso   1.000  N
  N4       1.0000 0.20750  0.52815  0.34901  Biso   1.000  N
  C7       1.0000 0.03256  0.22882  0.36248  Biso   1.000  C
  C8       1.0000 0.14693  0.44282  0.35895  Biso   1.000  C
  C9       1.0000 0.07402  0.34236  0.37157  Biso   1.000  C
  C10      1.0000 0.05644  0.35708  0.39449  Biso   1.000  C
  C11      1.0000 0.95504  0.27215  0.40586  Biso   1.000  C
  C12      1.0000 0.14137  0.45848  0.40587  Biso   1.000  C
  H3       1.0000 0.89737  0.20353  0.39873  Biso   1.000  H
  H4       1.0000 0.21107  0.52013  0.39913  Biso   1.000  H
  N5       1.0000 0.66735  0.46825  0.68839  Biso   1.000  N
  N6       1.0000 0.87416  0.86149  0.68235  Biso   1.000  N
  C13      1.0000 0.69922  0.56216  0.69582  Biso   1.000  C
  C14      1.0000 0.81359  0.77616  0.69229  Biso   1.000  C
  C15      1.0000 0.74068  0.67570  0.70491  Biso   1.000  C
  C16      1.0000 0.72310  0.69042  0.72783  Biso   1.000  C
  C17      1.0000 0.62170  0.60549  0.73920  Biso   1.000  C
  C18      1.0000 0.80803  0.79182  0.73921  Biso   1.000  C
  H5       1.0000 0.56403  0.53687  0.73207  Biso   1.000  H
  H6       1.0000 0.87773  0.85347  0.73247  Biso   1.000  H
  N7       1.0000 0.19842  0.53244  0.02172  Biso   1.000  N
  N8       1.0000 0.80518  0.34601  0.01568  Biso   1.000  N
  C19      1.0000 0.10451  0.47040  0.02915  Biso   1.000  C
  C20      1.0000 0.89051  0.37077  0.02562  Biso   1.000  C
  C21      1.0000 0.99097  0.39832  0.03824  Biso   1.000  C
  C22      1.0000 0.97625  0.36602  0.06116  Biso   1.000  C
  C23      1.0000 0.06118  0.34955  0.07253  Biso   1.000  C
  C24      1.0000 0.87485  0.34955  0.07254  Biso   1.000  C
  H7       1.0000 0.12980  0.36050  0.06540  Biso   1.000  H
  H8       1.0000 0.81320  0.35760  0.06580  Biso   1.000  H
  N9       1.0000 0.86509  0.86577  0.35505  Biso   1.000  N
  N10      1.0000 0.47185  0.67934  0.34901  Biso   1.000  N
  C25      1.0000 0.77118  0.80373  0.36248  Biso   1.000  C
  C26      1.0000 0.55718  0.70410  0.35895  Biso   1.000  C
  C27      1.0000 0.65764  0.73165  0.37157  Biso   1.000  C
  C28      1.0000 0.64292  0.69935  0.39449  Biso   1.000  C
  C29      1.0000 0.72785  0.68288  0.40586  Biso   1.000  C
  C30      1.0000 0.54152  0.68288  0.40587  Biso   1.000  C
  H9       1.0000 0.79647  0.69383  0.39873  Biso   1.000  H
  H10      1.0000 0.47987  0.69093  0.39913  Biso   1.000  H
  N11      1.0000 0.53175  0.19911  0.68839  Biso   1.000  N
  N12      1.0000 0.13851  0.01268  0.68235  Biso   1.000  N
  C31      1.0000 0.43784  0.13707  0.69582  Biso   1.000  C
  C32      1.0000 0.22384  0.03744  0.69229  Biso   1.000  C
  C33      1.0000 0.32430  0.06499  0.70491  Biso   1.000  C
  C34      1.0000 0.30958  0.03269  0.72783  Biso   1.000  C
  C35      1.0000 0.39451  0.01622  0.73920  Biso   1.000  C
  C36      1.0000 0.20818  0.01622  0.73921  Biso   1.000  C
  H11      1.0000 0.46313  0.02717  0.73207  Biso   1.000  H
  H12      1.0000 0.14653  0.02427  0.73247  Biso   1.000  H
  N13      1.0000 0.46756  0.66598  0.02172  Biso   1.000  N
  N14      1.0000 0.65399  0.45917  0.01568  Biso   1.000  N
  C37      1.0000 0.52960  0.63411  0.02915  Biso   1.000  C
  C38      1.0000 0.62923  0.51974  0.02562  Biso   1.000  C
  C39      1.0000 0.60168  0.59265  0.03824  Biso   1.000  C
  C40      1.0000 0.63398  0.61023  0.06116  Biso   1.000  C
  C41      1.0000 0.65045  0.71163  0.07253  Biso   1.000  C
  C42      1.0000 0.65045  0.52530  0.07254  Biso   1.000  C
  H13      1.0000 0.63950  0.76930  0.06540  Biso   1.000  H
  H14      1.0000 0.64240  0.45560  0.06580  Biso   1.000  H
  N15      1.0000 0.13423  0.99931  0.35505  Biso   1.000  N
  N16      1.0000 0.32066  0.79250  0.34901  Biso   1.000  N
  C43      1.0000 0.19627  0.96744  0.36248  Biso   1.000  C
  C44      1.0000 0.29590  0.85307  0.35895  Biso   1.000  C
  C45      1.0000 0.26835  0.92598  0.37157  Biso   1.000  C
  C46      1.0000 0.30065  0.94356  0.39449  Biso   1.000  C
  C47      1.0000 0.31712  0.04496  0.40586  Biso   1.000  C
  C48      1.0000 0.31712  0.85863  0.40587  Biso   1.000  C
  H15      1.0000 0.30617  0.10263  0.39873  Biso   1.000  H
  H16      1.0000 0.30907  0.78893  0.39913  Biso   1.000  H
  N17      1.0000 0.80089  0.33265  0.68839  Biso   1.000  N
  N18      1.0000 0.98732  0.12584  0.68235  Biso   1.000  N
  C49      1.0000 0.86293  0.30078  0.69582  Biso   1.000  C
  C50      1.0000 0.96256  0.18641  0.69229  Biso   1.000  C
  C51      1.0000 0.93501  0.25932  0.70491  Biso   1.000  C
  C52      1.0000 0.96731  0.27690  0.72783  Biso   1.000  C
  C53      1.0000 0.98378  0.37830  0.73920  Biso   1.000  C
  C54      1.0000 0.98378  0.19197  0.73921  Biso   1.000  C
  H17      1.0000 0.97283  0.43597  0.73207  Biso   1.000  H
  H18      1.0000 0.97573  0.12227  0.73247  Biso   1.000  H
  N19      1.0000 0.80158  0.33402  0.47828  Biso   1.000  N
  N20      1.0000 0.19482  0.54083  0.48432  Biso   1.000  N
  C55      1.0000 0.89549  0.36589  0.47085  Biso   1.000  C
  C56      1.0000 0.10949  0.48026  0.47438  Biso   1.000  C
  C57      1.0000 0.00903  0.40735  0.46176  Biso   1.000  C
  C58      1.0000 0.02375  0.38977  0.43884  Biso   1.000  C
  C59      1.0000 0.93882  0.28837  0.42747  Biso   1.000  C
  C60      1.0000 0.12515  0.47470  0.42746  Biso   1.000  C
  H19      1.0000 0.87020  0.23070  0.43460  Biso   1.000  H
  H20      1.0000 0.18680  0.54440  0.43420  Biso   1.000  H
  N21      1.0000 0.46825  0.66735  0.81161  Biso   1.000  N
  N22      1.0000 0.86149  0.87416  0.81765  Biso   1.000  N
  C61      1.0000 0.56216  0.69922  0.80418  Biso   1.000  C
  C62      1.0000 0.77616  0.81359  0.80771  Biso   1.000  C
  C63      1.0000 0.67570  0.74068  0.79509  Biso   1.000  C
  C64      1.0000 0.69042  0.72310  0.77217  Biso   1.000  C
  C65      1.0000 0.60549  0.62170  0.76080  Biso   1.000  C
  C66      1.0000 0.79182  0.80803  0.76079  Biso   1.000  C
  H21      1.0000 0.53687  0.56403  0.76793  Biso   1.000  H
  H22      1.0000 0.85347  0.87773  0.76753  Biso   1.000  H
  N23      1.0000 0.13491  0.00069  0.14495  Biso   1.000  N
  N24      1.0000 0.52815  0.20750  0.15099  Biso   1.000  N
  C67      1.0000 0.22882  0.03256  0.13752  Biso   1.000  C
  C68      1.0000 0.44282  0.14693  0.14105  Biso   1.000  C
  C69      1.0000 0.34236  0.07402  0.12843  Biso   1.000  C
  C70      1.0000 0.35708  0.05644  0.10551  Biso   1.000  C
  C71      1.0000 0.27215  0.95504  0.09414  Biso   1.000  C
  C72      1.0000 0.45848  0.14137  0.09413  Biso   1.000  C
  H23      1.0000 0.20353  0.89737  0.10127  Biso   1.000  H
  H24      1.0000 0.52013  0.21107  0.10087  Biso   1.000  H
  N25      1.0000 0.53244  0.19842  0.47828  Biso   1.000  N
  N26      1.0000 0.34601  0.80518  0.48432  Biso   1.000  N
  C73      1.0000 0.47040  0.10451  0.47085  Biso   1.000  C
  C74      1.0000 0.37077  0.89051  0.47438  Biso   1.000  C
  C75      1.0000 0.39832  0.99097  0.46176  Biso   1.000  C
  C76      1.0000 0.36602  0.97625  0.43884  Biso   1.000  C
  C77      1.0000 0.34955  0.06118  0.42747  Biso   1.000  C
  C78      1.0000 0.34955  0.87485  0.42746  Biso   1.000  C
  H25      1.0000 0.36050  0.12980  0.43460  Biso   1.000  H
  H26      1.0000 0.35760  0.81320  0.43420  Biso   1.000  H
  N27      1.0000 0.19911  0.53175  0.81161  Biso   1.000  N
  N28      1.0000 0.01268  0.13851  0.81765  Biso   1.000  N
  C79      1.0000 0.13707  0.43784  0.80418  Biso   1.000  C
  C80      1.0000 0.03744  0.22384  0.80771  Biso   1.000  C
  C81      1.0000 0.06499  0.32430  0.79509  Biso   1.000  C
  C82      1.0000 0.03269  0.30958  0.77217  Biso   1.000  C
  C83      1.0000 0.01622  0.39451  0.76080  Biso   1.000  C
  C84      1.0000 0.01622  0.20818  0.76079  Biso   1.000  C
  H27      1.0000 0.02717  0.46313  0.76793  Biso   1.000  H
  H28      1.0000 0.02427  0.14653  0.76753  Biso   1.000  H
  N29      1.0000 0.86577  0.86509  0.14495  Biso   1.000  N
  N30      1.0000 0.67934  0.47185  0.15099  Biso   1.000  N
  C85      1.0000 0.80373  0.77118  0.13752  Biso   1.000  C
  C86      1.0000 0.70410  0.55718  0.14105  Biso   1.000  C
  C87      1.0000 0.73165  0.65764  0.12843  Biso   1.000  C
  C88      1.0000 0.69935  0.64292  0.10551  Biso   1.000  C
  C89      1.0000 0.68288  0.72785  0.09414  Biso   1.000  C
  C90      1.0000 0.68288  0.54152  0.09413  Biso   1.000  C
  H29      1.0000 0.69383  0.79647  0.10127  Biso   1.000  H
  H30      1.0000 0.69093  0.47987  0.10087  Biso   1.000  H
  N31      1.0000 0.66598  0.46756  0.47828  Biso   1.000  N
  N32      1.0000 0.45917  0.65399  0.48432  Biso   1.000  N
  C91      1.0000 0.63411  0.52960  0.47085  Biso   1.000  C
  C92      1.0000 0.51974  0.62923  0.47438  Biso   1.000  C
  C93      1.0000 0.59265  0.60168  0.46176  Biso   1.000  C
  C94      1.0000 0.61023  0.63398  0.43884  Biso   1.000  C
  C95      1.0000 0.71163  0.65045  0.42747  Biso   1.000  C
  C96      1.0000 0.52530  0.65045  0.42746  Biso   1.000  C
  H31      1.0000 0.76930  0.63950  0.43460  Biso   1.000  H
  H32      1.0000 0.45560  0.64240  0.43420  Biso   1.000  H
  N33      1.0000 0.33265  0.80089  0.81161  Biso   1.000  N
  N34      1.0000 0.12584  0.98732  0.81765  Biso   1.000  N
  C97      1.0000 0.30078  0.86293  0.80418  Biso   1.000  C
  C98      1.0000 0.18641  0.96256  0.80771  Biso   1.000  C
  C99      1.0000 0.25932  0.93501  0.79509  Biso   1.000  C
  C100     1.0000 0.27690  0.96731  0.77217  Biso   1.000  C
  C101     1.0000 0.37830  0.98378  0.76080  Biso   1.000  C
  C102     1.0000 0.19197  0.98378  0.76079  Biso   1.000  C
  H33      1.0000 0.43597  0.97283  0.76793  Biso   1.000  H
  H34      1.0000 0.12227  0.97573  0.76753  Biso   1.000  H
  N35      1.0000 0.99931  0.13423  0.14495  Biso   1.000  N
  N36      1.0000 0.79250  0.32066  0.15099  Biso   1.000  N
  C103     1.0000 0.96744  0.19627  0.13752  Biso   1.000  C
  C104     1.0000 0.85307  0.29590  0.14105  Biso   1.000  C
  C105     1.0000 0.92598  0.26835  0.12843  Biso   1.000  C
  C106     1.0000 0.94356  0.30065  0.10551  Biso   1.000  C
  C107     1.0000 0.04496  0.31712  0.09414  Biso   1.000  C
  C108     1.0000 0.85863  0.31712  0.09413  Biso   1.000  C
  H35      1.0000 0.10263  0.30617  0.10127  Biso   1.000  H
  H36      1.0000 0.78893  0.30907  0.10087  Biso   1.000  H
  N37      1.0000 0.66598  0.19842  0.97828  Biso   1.000  N
  N38      1.0000 0.45917  0.80518  0.98432  Biso   1.000  N
  C109     1.0000 0.63411  0.10451  0.97085  Biso   1.000  C
  C110     1.0000 0.51974  0.89051  0.97438  Biso   1.000  C
  C111     1.0000 0.59265  0.99097  0.96176  Biso   1.000  C
  C112     1.0000 0.61023  0.97625  0.93884  Biso   1.000  C
  C113     1.0000 0.71163  0.06118  0.92747  Biso   1.000  C
  C114     1.0000 0.52530  0.87485  0.92746  Biso   1.000  C
  H37      1.0000 0.76930  0.12980  0.93460  Biso   1.000  H
  H38      1.0000 0.45560  0.81320  0.93420  Biso   1.000  H
  N39      1.0000 0.33265  0.53175  0.31161  Biso   1.000  N
  N40      1.0000 0.12584  0.13851  0.31765  Biso   1.000  N
  C115     1.0000 0.30078  0.43784  0.30418  Biso   1.000  C
  C116     1.0000 0.18641  0.22384  0.30771  Biso   1.000  C
  C117     1.0000 0.25932  0.32430  0.29509  Biso   1.000  C
  C118     1.0000 0.27690  0.30958  0.27217  Biso   1.000  C
  C119     1.0000 0.37830  0.39451  0.26080  Biso   1.000  C
  C120     1.0000 0.19197  0.20818  0.26079  Biso   1.000  C
  H39      1.0000 0.43597  0.46313  0.26793  Biso   1.000  H
  H40      1.0000 0.12227  0.14653  0.26753  Biso   1.000  H
  N41      1.0000 0.99931  0.86509  0.64495  Biso   1.000  N
  N42      1.0000 0.79250  0.47185  0.65099  Biso   1.000  N
  C121     1.0000 0.96744  0.77118  0.63752  Biso   1.000  C
  C122     1.0000 0.85307  0.55718  0.64105  Biso   1.000  C
  C123     1.0000 0.92598  0.65764  0.62843  Biso   1.000  C
  C124     1.0000 0.94356  0.64292  0.60551  Biso   1.000  C
  C125     1.0000 0.04496  0.72785  0.59414  Biso   1.000  C
  C126     1.0000 0.85863  0.54152  0.59413  Biso   1.000  C
  H41      1.0000 0.10263  0.79647  0.60127  Biso   1.000  H
  H42      1.0000 0.78893  0.47987  0.60087  Biso   1.000  H
  N43      1.0000 0.80158  0.46756  0.97828  Biso   1.000  N
  N44      1.0000 0.19482  0.65399  0.98432  Biso   1.000  N
  C127     1.0000 0.89549  0.52960  0.97085  Biso   1.000  C
  C128     1.0000 0.10949  0.62923  0.97438  Biso   1.000  C
  C129     1.0000 0.00903  0.60168  0.96176  Biso   1.000  C
  C130     1.0000 0.02375  0.63398  0.93884  Biso   1.000  C
  C131     1.0000 0.93882  0.65045  0.92747  Biso   1.000  C
  C132     1.0000 0.12515  0.65045  0.92746  Biso   1.000  C
  H43      1.0000 0.87020  0.63950  0.93460  Biso   1.000  H
  H44      1.0000 0.18680  0.64240  0.93420  Biso   1.000  H
  N45      1.0000 0.46825  0.80089  0.31161  Biso   1.000  N
  N46      1.0000 0.86149  0.98732  0.31765  Biso   1.000  N
  C133     1.0000 0.56216  0.86293  0.30418  Biso   1.000  C
  C134     1.0000 0.77616  0.96256  0.30771  Biso   1.000  C
  C135     1.0000 0.67570  0.93501  0.29509  Biso   1.000  C
  C136     1.0000 0.69042  0.96731  0.27217  Biso   1.000  C
  C137     1.0000 0.60549  0.98378  0.26080  Biso   1.000  C
  C138     1.0000 0.79182  0.98378  0.26079  Biso   1.000  C
  H45      1.0000 0.53687  0.97283  0.26793  Biso   1.000  H
  H46      1.0000 0.85347  0.97573  0.26753  Biso   1.000  H
  N47      1.0000 0.13491  0.13423  0.64495  Biso   1.000  N
  N48      1.0000 0.52815  0.32066  0.65099  Biso   1.000  N
  C139     1.0000 0.22882  0.19627  0.63752  Biso   1.000  C
  C140     1.0000 0.44282  0.29590  0.64105  Biso   1.000  C
  C141     1.0000 0.34236  0.26835  0.62843  Biso   1.000  C
  C142     1.0000 0.35708  0.30065  0.60551  Biso   1.000  C
  C143     1.0000 0.27215  0.31712  0.59414  Biso   1.000  C
  C144     1.0000 0.45848  0.31712  0.59413  Biso   1.000  C
  H47      1.0000 0.20353  0.30617  0.60127  Biso   1.000  H
  H48      1.0000 0.52013  0.30907  0.60087  Biso   1.000  H
  N49      1.0000 0.53244  0.33402  0.97828  Biso   1.000  N
  N50      1.0000 0.34601  0.54083  0.98432  Biso   1.000  N
  C145     1.0000 0.47040  0.36589  0.97085  Biso   1.000  C
  C146     1.0000 0.37077  0.48026  0.97438  Biso   1.000  C
  C147     1.0000 0.39832  0.40735  0.96176  Biso   1.000  C
  C148     1.0000 0.36602  0.38977  0.93884  Biso   1.000  C
  C149     1.0000 0.34955  0.28837  0.92747  Biso   1.000  C
  C150     1.0000 0.34955  0.47470  0.92746  Biso   1.000  C
  H49      1.0000 0.36050  0.23070  0.93460  Biso   1.000  H
  H50      1.0000 0.35760  0.54440  0.93420  Biso   1.000  H
  N51      1.0000 0.19911  0.66735  0.31161  Biso   1.000  N
  N52      1.0000 0.01268  0.87416  0.31765  Biso   1.000  N
  C151     1.0000 0.13707  0.69922  0.30418  Biso   1.000  C
  C152     1.0000 0.03744  0.81359  0.30771  Biso   1.000  C
  C153     1.0000 0.06499  0.74068  0.29509  Biso   1.000  C
  C154     1.0000 0.03269  0.72310  0.27217  Biso   1.000  C
  C155     1.0000 0.01622  0.62170  0.26080  Biso   1.000  C
  C156     1.0000 0.01622  0.80803  0.26079  Biso   1.000  C
  H51      1.0000 0.02717  0.56403  0.26793  Biso   1.000  H
  H52      1.0000 0.02427  0.87773  0.26753  Biso   1.000  H
  N53      1.0000 0.86577  0.00069  0.64495  Biso   1.000  N
  N54      1.0000 0.67934  0.20750  0.65099  Biso   1.000  N
  C157     1.0000 0.80373  0.03256  0.63752  Biso   1.000  C
  C158     1.0000 0.70410  0.14693  0.64105  Biso   1.000  C
  C159     1.0000 0.73165  0.07402  0.62843  Biso   1.000  C
  C160     1.0000 0.69935  0.05644  0.60551  Biso   1.000  C
  C161     1.0000 0.68288  0.95504  0.59414  Biso   1.000  C
  C162     1.0000 0.68288  0.14137  0.59413  Biso   1.000  C
  H53      1.0000 0.69383  0.89737  0.60127  Biso   1.000  H
  H54      1.0000 0.69093  0.21107  0.60087  Biso   1.000  H
  N55      1.0000 0.19842  0.66598  0.52172  Biso   1.000  N
  N56      1.0000 0.80518  0.45917  0.51568  Biso   1.000  N
  C163     1.0000 0.10451  0.63411  0.52915  Biso   1.000  C
  C164     1.0000 0.89051  0.51974  0.52562  Biso   1.000  C
  C165     1.0000 0.99097  0.59265  0.53824  Biso   1.000  C
  C166     1.0000 0.97625  0.61023  0.56116  Biso   1.000  C
  C167     1.0000 0.06118  0.71163  0.57253  Biso   1.000  C
  C168     1.0000 0.87485  0.52530  0.57254  Biso   1.000  C
  H55      1.0000 0.12980  0.76930  0.56540  Biso   1.000  H
  H56      1.0000 0.81320  0.45560  0.56580  Biso   1.000  H
  N57      1.0000 0.86509  0.99931  0.85505  Biso   1.000  N
  N58      1.0000 0.47185  0.79250  0.84901  Biso   1.000  N
  C169     1.0000 0.77118  0.96744  0.86248  Biso   1.000  C
  C170     1.0000 0.55718  0.85307  0.85895  Biso   1.000  C
  C171     1.0000 0.65764  0.92598  0.87157  Biso   1.000  C
  C172     1.0000 0.64292  0.94356  0.89449  Biso   1.000  C
  C173     1.0000 0.72785  0.04496  0.90586  Biso   1.000  C
  C174     1.0000 0.54152  0.85863  0.90587  Biso   1.000  C
  H57      1.0000 0.79647  0.10263  0.89873  Biso   1.000  H
  H58      1.0000 0.47987  0.78893  0.89913  Biso   1.000  H
  N59      1.0000 0.53175  0.33265  0.18839  Biso   1.000  N
  N60      1.0000 0.13851  0.12584  0.18235  Biso   1.000  N
  C175     1.0000 0.43784  0.30078  0.19582  Biso   1.000  C
  C176     1.0000 0.22384  0.18641  0.19229  Biso   1.000  C
  C177     1.0000 0.32430  0.25932  0.20491  Biso   1.000  C
  C178     1.0000 0.30958  0.27690  0.22783  Biso   1.000  C
  C179     1.0000 0.39451  0.37830  0.23920  Biso   1.000  C
  C180     1.0000 0.20818  0.19197  0.23921  Biso   1.000  C
  H59      1.0000 0.46313  0.43597  0.23207  Biso   1.000  H
  H60      1.0000 0.14653  0.12227  0.23247  Biso   1.000  H
  N61      1.0000 0.46756  0.80158  0.52172  Biso   1.000  N
  N62      1.0000 0.65399  0.19482  0.51568  Biso   1.000  N
  C181     1.0000 0.52960  0.89549  0.52915  Biso   1.000  C
  C182     1.0000 0.62923  0.10949  0.52562  Biso   1.000  C
  C183     1.0000 0.60168  0.00903  0.53824  Biso   1.000  C
  C184     1.0000 0.63398  0.02375  0.56116  Biso   1.000  C
  C185     1.0000 0.65045  0.93882  0.57253  Biso   1.000  C
  C186     1.0000 0.65045  0.12515  0.57254  Biso   1.000  C
  H61      1.0000 0.63950  0.87020  0.56540  Biso   1.000  H
  H62      1.0000 0.64240  0.18680  0.56580  Biso   1.000  H
  N63      1.0000 0.13423  0.13491  0.85505  Biso   1.000  N
  N64      1.0000 0.32066  0.52815  0.84901  Biso   1.000  N
  C187     1.0000 0.19627  0.22882  0.86248  Biso   1.000  C
  C188     1.0000 0.29590  0.44282  0.85895  Biso   1.000  C
  C189     1.0000 0.26835  0.34236  0.87157  Biso   1.000  C
  C190     1.0000 0.30065  0.35708  0.89449  Biso   1.000  C
  C191     1.0000 0.31712  0.27215  0.90586  Biso   1.000  C
  C192     1.0000 0.31712  0.45848  0.90587  Biso   1.000  C
  H63      1.0000 0.30617  0.20353  0.89873  Biso   1.000  H
  H64      1.0000 0.30907  0.52013  0.89913  Biso   1.000  H
  N65      1.0000 0.80089  0.46825  0.18839  Biso   1.000  N
  N66      1.0000 0.98732  0.86149  0.18235  Biso   1.000  N
  C193     1.0000 0.86293  0.56216  0.19582  Biso   1.000  C
  C194     1.0000 0.96256  0.77616  0.19229  Biso   1.000  C
  C195     1.0000 0.93501  0.67570  0.20491  Biso   1.000  C
  C196     1.0000 0.96731  0.69042  0.22783  Biso   1.000  C
  C197     1.0000 0.98378  0.60549  0.23920  Biso   1.000  C
  C198     1.0000 0.98378  0.79182  0.23921  Biso   1.000  C
  H65      1.0000 0.97283  0.53687  0.23207  Biso   1.000  H
  H66      1.0000 0.97573  0.85347  0.23247  Biso   1.000  H
  N67      1.0000 0.33402  0.53244  0.52172  Biso   1.000  N
  N68      1.0000 0.54083  0.34601  0.51568  Biso   1.000  N
  C199     1.0000 0.36589  0.47040  0.52915  Biso   1.000  C
  C200     1.0000 0.48026  0.37077  0.52562  Biso   1.000  C
  C201     1.0000 0.40735  0.39832  0.53824  Biso   1.000  C
  C202     1.0000 0.38977  0.36602  0.56116  Biso   1.000  C
  C203     1.0000 0.28837  0.34955  0.57253  Biso   1.000  C
  C204     1.0000 0.47470  0.34955  0.57254  Biso   1.000  C
  H67      1.0000 0.23070  0.36050  0.56540  Biso   1.000  H
  H68      1.0000 0.54440  0.35760  0.56580  Biso   1.000  H
  N69      1.0000 0.00069  0.86577  0.85505  Biso   1.000  N
  N70      1.0000 0.20750  0.67934  0.84901  Biso   1.000  N
  C205     1.0000 0.03256  0.80373  0.86248  Biso   1.000  C
  C206     1.0000 0.14693  0.70410  0.85895  Biso   1.000  C
  C207     1.0000 0.07402  0.73165  0.87157  Biso   1.000  C
  C208     1.0000 0.05644  0.69935  0.89449  Biso   1.000  C
  C209     1.0000 0.95504  0.68288  0.90586  Biso   1.000  C
  C210     1.0000 0.14137  0.68288  0.90587  Biso   1.000  C
  H69      1.0000 0.89737  0.69383  0.89873  Biso   1.000  H
  H70      1.0000 0.21107  0.69093  0.89913  Biso   1.000  H
  N71      1.0000 0.66735  0.19911  0.18839  Biso   1.000  N
  N72      1.0000 0.87416  0.01268  0.18235  Biso   1.000  N
  C211     1.0000 0.69922  0.13707  0.19582  Biso   1.000  C
  C212     1.0000 0.81359  0.03744  0.19229  Biso   1.000  C
  C213     1.0000 0.74068  0.06499  0.20491  Biso   1.000  C
  C214     1.0000 0.72310  0.03269  0.22783  Biso   1.000  C
  C215     1.0000 0.62170  0.01622  0.23920  Biso   1.000  C
  C216     1.0000 0.80803  0.01622  0.23921  Biso   1.000  C
  H71      1.0000 0.56403  0.02717  0.23207  Biso   1.000  H
  H72      1.0000 0.87773  0.02427  0.23247  Biso   1.000  H
  Ni1      1.0000 0.33333  0.66667  0.00336  Biso   1.000  Ni
  Ni2      1.0000 0.00000  0.00000  0.33669  Biso   1.000  Ni
  Ni3      1.0000 0.66667  0.33333  0.67003  Biso   1.000  Ni
  Ni4      1.0000 0.66667  0.33333  0.49664  Biso   1.000  Ni
  Ni5      1.0000 0.33333  0.66667  0.82997  Biso   1.000  Ni
  Ni6      1.0000 0.00000  0.00000  0.16331  Biso   1.000  Ni
  Ni7      1.0000 0.66667  0.33333  0.99664  Biso   1.000  Ni
  Ni8      1.0000 0.33333  0.66667  0.32997  Biso   1.000  Ni
  Ni9      1.0000 0.00000  0.00000  0.66331  Biso   1.000  Ni
  Ni10     1.0000 0.33333  0.66667  0.50336  Biso   1.000  Ni
  Ni11     1.0000 0.00000  0.00000  0.83669  Biso   1.000  Ni
  Ni12     1.0000 0.66667  0.33333  0.17003  Biso   1.000  Ni
