data_image0
_cell_length_a       12.9728
_cell_length_b       12.9728
_cell_length_c       62.652
_cell_angle_alpha    90
_cell_angle_beta     90
_cell_angle_gamma    120

_symmetry_space_group_name_H-M    "P 1"
_symmetry_int_tables_number       1

loop_
  _symmetry_equiv_pos_as_xyz
  'x, y, z'

loop_
  _atom_site_label
  _atom_site_occupancy
  _atom_site_fract_x
  _atom_site_fract_y
  _atom_site_fract_z
  _atom_site_thermal_displace_type
  _atom_site_B_iso_or_equiv
  _atom_site_type_symbol
  N1       1.0000 0.34875  0.53994  0.98400  Biso   1.000  N
  C1       1.0000 0.37215  0.47959  0.97391  Biso   1.000  C
  C2       1.0000 0.36617  0.38956  0.93858  Biso   1.000  C
  C3       1.0000 0.39873  0.40710  0.96131  Biso   1.000  C
  C4       1.0000 0.34960  0.47377  0.92737  Biso   1.000  C
  H1       1.0000 0.36080  0.54320  0.93450  Biso   1.000  H
  C5       1.0000 0.34933  0.28869  0.92740  Biso   1.000  C
  H2       1.0000 0.35990  0.23020  0.93460  Biso   1.000  H
  C6       1.0000 0.46874  0.36469  0.97033  Biso   1.000  C
  N2       1.0000 0.52882  0.33162  0.97772  Biso   1.000  N
  N3       1.0000 0.01542  0.87327  0.31734  Biso   1.000  N
  C7       1.0000 0.03882  0.81292  0.30724  Biso   1.000  C
  C8       1.0000 0.03284  0.72289  0.27191  Biso   1.000  C
  C9       1.0000 0.06540  0.74043  0.29464  Biso   1.000  C
  C10      1.0000 0.01627  0.80710  0.26071  Biso   1.000  C
  H3       1.0000 0.02747  0.87653  0.26783  Biso   1.000  H
  C11      1.0000 0.01600  0.62202  0.26073  Biso   1.000  C
  H4       1.0000 0.02657  0.56353  0.26793  Biso   1.000  H
  C12      1.0000 0.13541  0.69802  0.30366  Biso   1.000  C
  N4       1.0000 0.19549  0.66495  0.31105  Biso   1.000  N
  N5       1.0000 0.68208  0.20661  0.65067  Biso   1.000  N
  C13      1.0000 0.70548  0.14626  0.64057  Biso   1.000  C
  C14      1.0000 0.69950  0.05623  0.60525  Biso   1.000  C
  C15      1.0000 0.73206  0.07377  0.62797  Biso   1.000  C
  C16      1.0000 0.68293  0.14044  0.59404  Biso   1.000  C
  H5       1.0000 0.69413  0.20987  0.60117  Biso   1.000  H
  C17      1.0000 0.68266  0.95536  0.59406  Biso   1.000  C
  H6       1.0000 0.69323  0.89687  0.60127  Biso   1.000  H
  C18      1.0000 0.80207  0.03136  0.63700  Biso   1.000  C
  N6       1.0000 0.86215  0.99829  0.64439  Biso   1.000  N
  N7       1.0000 0.46006  0.80881  0.98400  Biso   1.000  N
  C19      1.0000 0.52041  0.89256  0.97391  Biso   1.000  C
  C20      1.0000 0.61044  0.97661  0.93858  Biso   1.000  C
  C21      1.0000 0.59290  0.99163  0.96131  Biso   1.000  C
  C22      1.0000 0.52623  0.87583  0.92737  Biso   1.000  C
  H7       1.0000 0.45680  0.81760  0.93450  Biso   1.000  H
  C23      1.0000 0.71131  0.06064  0.92740  Biso   1.000  C
  H8       1.0000 0.76980  0.12970  0.93460  Biso   1.000  H
  C24      1.0000 0.63531  0.10405  0.97033  Biso   1.000  C
  N8       1.0000 0.66838  0.19720  0.97772  Biso   1.000  N
  N9       1.0000 0.12673  0.14214  0.31734  Biso   1.000  N
  C25      1.0000 0.18708  0.22589  0.30724  Biso   1.000  C
  C26      1.0000 0.27711  0.30994  0.27191  Biso   1.000  C
  C27      1.0000 0.25957  0.32496  0.29464  Biso   1.000  C
  C28      1.0000 0.19290  0.20916  0.26071  Biso   1.000  C
  H9       1.0000 0.12347  0.15093  0.26783  Biso   1.000  H
  C29      1.0000 0.37798  0.39397  0.26073  Biso   1.000  C
  H10      1.0000 0.43647  0.46303  0.26793  Biso   1.000  H
  C30      1.0000 0.30198  0.43738  0.30366  Biso   1.000  C
  N10      1.0000 0.33505  0.53053  0.31105  Biso   1.000  N
  N11      1.0000 0.79339  0.47548  0.65067  Biso   1.000  N
  C31      1.0000 0.85374  0.55923  0.64057  Biso   1.000  C
  C32      1.0000 0.94377  0.64328  0.60525  Biso   1.000  C
  C33      1.0000 0.92623  0.65830  0.62797  Biso   1.000  C
  C34      1.0000 0.85956  0.54250  0.59404  Biso   1.000  C
  H11      1.0000 0.79013  0.48427  0.60117  Biso   1.000  H
  C35      1.0000 0.04464  0.72731  0.59406  Biso   1.000  C
  H12      1.0000 0.10313  0.79637  0.60127  Biso   1.000  H
  C36      1.0000 0.96864  0.77072  0.63700  Biso   1.000  C
  N12      1.0000 0.00171  0.86387  0.64439  Biso   1.000  N
  N13      1.0000 0.19119  0.65125  0.98400  Biso   1.000  N
  C37      1.0000 0.10744  0.62785  0.97391  Biso   1.000  C
  C38      1.0000 0.02339  0.63383  0.93858  Biso   1.000  C
  C39      1.0000 0.00837  0.60127  0.96131  Biso   1.000  C
  C40      1.0000 0.12417  0.65040  0.92737  Biso   1.000  C
  H13      1.0000 0.18240  0.63920  0.93450  Biso   1.000  H
  C41      1.0000 0.93936  0.65067  0.92740  Biso   1.000  C
  H14      1.0000 0.87030  0.64010  0.93460  Biso   1.000  H
  C42      1.0000 0.89595  0.53126  0.97033  Biso   1.000  C
  N14      1.0000 0.80280  0.47118  0.97772  Biso   1.000  N
  N15      1.0000 0.85786  0.98458  0.31734  Biso   1.000  N
  C43      1.0000 0.77411  0.96118  0.30724  Biso   1.000  C
  C44      1.0000 0.69006  0.96716  0.27191  Biso   1.000  C
  C45      1.0000 0.67504  0.93460  0.29464  Biso   1.000  C
  C46      1.0000 0.79084  0.98373  0.26071  Biso   1.000  C
  H15      1.0000 0.84907  0.97253  0.26783  Biso   1.000  H
  C47      1.0000 0.60603  0.98400  0.26073  Biso   1.000  C
  H16      1.0000 0.53697  0.97343  0.26793  Biso   1.000  H
  C48      1.0000 0.56262  0.86459  0.30366  Biso   1.000  C
  N16      1.0000 0.46947  0.80451  0.31105  Biso   1.000  N
  N17      1.0000 0.52452  0.31792  0.65067  Biso   1.000  N
  C49      1.0000 0.44077  0.29452  0.64057  Biso   1.000  C
  C50      1.0000 0.35672  0.30050  0.60525  Biso   1.000  C
  C51      1.0000 0.34170  0.26794  0.62797  Biso   1.000  C
  C52      1.0000 0.45750  0.31707  0.59404  Biso   1.000  C
  H17      1.0000 0.51573  0.30587  0.60117  Biso   1.000  H
  C53      1.0000 0.27269  0.31734  0.59406  Biso   1.000  C
  H18      1.0000 0.20363  0.30677  0.60127  Biso   1.000  H
  C54      1.0000 0.22928  0.19793  0.63700  Biso   1.000  C
  N18      1.0000 0.13613  0.13785  0.64439  Biso   1.000  N
  N19      1.0000 0.53994  0.34875  0.51600  Biso   1.000  N
  C55      1.0000 0.47959  0.37215  0.52609  Biso   1.000  C
  C56      1.0000 0.38956  0.36617  0.56142  Biso   1.000  C
  C57      1.0000 0.40710  0.39873  0.53869  Biso   1.000  C
  C58      1.0000 0.47377  0.34960  0.57263  Biso   1.000  C
  H19      1.0000 0.54320  0.36080  0.56550  Biso   1.000  H
  C59      1.0000 0.28869  0.34933  0.57260  Biso   1.000  C
  H20      1.0000 0.23020  0.35990  0.56540  Biso   1.000  H
  C60      1.0000 0.36469  0.46874  0.52967  Biso   1.000  C
  N20      1.0000 0.33162  0.52882  0.52228  Biso   1.000  N
  N21      1.0000 0.20661  0.68208  0.84933  Biso   1.000  N
  C61      1.0000 0.14626  0.70548  0.85943  Biso   1.000  C
  C62      1.0000 0.05623  0.69950  0.89475  Biso   1.000  C
  C63      1.0000 0.07377  0.73206  0.87203  Biso   1.000  C
  C64      1.0000 0.14044  0.68293  0.90596  Biso   1.000  C
  H21      1.0000 0.20987  0.69413  0.89883  Biso   1.000  H
  C65      1.0000 0.95536  0.68266  0.90594  Biso   1.000  C
  H22      1.0000 0.89687  0.69323  0.89873  Biso   1.000  H
  C66      1.0000 0.03136  0.80207  0.86300  Biso   1.000  C
  N22      1.0000 0.99829  0.86215  0.85561  Biso   1.000  N
  N23      1.0000 0.87327  0.01542  0.18266  Biso   1.000  N
  C67      1.0000 0.81292  0.03882  0.19276  Biso   1.000  C
  C68      1.0000 0.72289  0.03284  0.22809  Biso   1.000  C
  C69      1.0000 0.74043  0.06540  0.20536  Biso   1.000  C
  C70      1.0000 0.80710  0.01627  0.23929  Biso   1.000  C
  H23      1.0000 0.87653  0.02747  0.23217  Biso   1.000  H
  C71      1.0000 0.62202  0.01600  0.23927  Biso   1.000  C
  H24      1.0000 0.56353  0.02657  0.23207  Biso   1.000  H
  C72      1.0000 0.69802  0.13541  0.19634  Biso   1.000  C
  N24      1.0000 0.66495  0.19549  0.18895  Biso   1.000  N
  N25      1.0000 0.80881  0.46006  0.51600  Biso   1.000  N
  C73      1.0000 0.89256  0.52041  0.52609  Biso   1.000  C
  C74      1.0000 0.97661  0.61044  0.56142  Biso   1.000  C
  C75      1.0000 0.99163  0.59290  0.53869  Biso   1.000  C
  C76      1.0000 0.87583  0.52623  0.57263  Biso   1.000  C
  H25      1.0000 0.81760  0.45680  0.56550  Biso   1.000  H
  C77      1.0000 0.06064  0.71131  0.57260  Biso   1.000  C
  H26      1.0000 0.12970  0.76980  0.56540  Biso   1.000  H
  C78      1.0000 0.10405  0.63531  0.52967  Biso   1.000  C
  N26      1.0000 0.19720  0.66838  0.52228  Biso   1.000  N
  N27      1.0000 0.47548  0.79339  0.84933  Biso   1.000  N
  C79      1.0000 0.55923  0.85374  0.85943  Biso   1.000  C
  C80      1.0000 0.64328  0.94377  0.89475  Biso   1.000  C
  C81      1.0000 0.65830  0.92623  0.87203  Biso   1.000  C
  C82      1.0000 0.54250  0.85956  0.90596  Biso   1.000  C
  H27      1.0000 0.48427  0.79013  0.89883  Biso   1.000  H
  C83      1.0000 0.72731  0.04464  0.90594  Biso   1.000  C
  H28      1.0000 0.79637  0.10313  0.89873  Biso   1.000  H
  C84      1.0000 0.77072  0.96864  0.86300  Biso   1.000  C
  N28      1.0000 0.86387  0.00171  0.85561  Biso   1.000  N
  N29      1.0000 0.14214  0.12673  0.18266  Biso   1.000  N
  C85      1.0000 0.22589  0.18708  0.19276  Biso   1.000  C
  C86      1.0000 0.30994  0.27711  0.22809  Biso   1.000  C
  C87      1.0000 0.32496  0.25957  0.20536  Biso   1.000  C
  C88      1.0000 0.20916  0.19290  0.23929  Biso   1.000  C
  H29      1.0000 0.15093  0.12347  0.23217  Biso   1.000  H
  C89      1.0000 0.39397  0.37798  0.23927  Biso   1.000  C
  H30      1.0000 0.46303  0.43647  0.23207  Biso   1.000  H
  C90      1.0000 0.43738  0.30198  0.19634  Biso   1.000  C
  N30      1.0000 0.53053  0.33505  0.18895  Biso   1.000  N
  N31      1.0000 0.65125  0.19119  0.51600  Biso   1.000  N
  C91      1.0000 0.62785  0.10744  0.52609  Biso   1.000  C
  C92      1.0000 0.63383  0.02339  0.56142  Biso   1.000  C
  C93      1.0000 0.60127  0.00837  0.53869  Biso   1.000  C
  C94      1.0000 0.65040  0.12417  0.57263  Biso   1.000  C
  H31      1.0000 0.63920  0.18240  0.56550  Biso   1.000  H
  C95      1.0000 0.65067  0.93936  0.57260  Biso   1.000  C
  H32      1.0000 0.64010  0.87030  0.56540  Biso   1.000  H
  C96      1.0000 0.53126  0.89595  0.52967  Biso   1.000  C
  N32      1.0000 0.47118  0.80280  0.52228  Biso   1.000  N
  N33      1.0000 0.31792  0.52452  0.84933  Biso   1.000  N
  C97      1.0000 0.29452  0.44077  0.85943  Biso   1.000  C
  C98      1.0000 0.30050  0.35672  0.89475  Biso   1.000  C
  C99      1.0000 0.26794  0.34170  0.87203  Biso   1.000  C
  C100     1.0000 0.31707  0.45750  0.90596  Biso   1.000  C
  H33      1.0000 0.30587  0.51573  0.89883  Biso   1.000  H
  C101     1.0000 0.31734  0.27269  0.90594  Biso   1.000  C
  H34      1.0000 0.30677  0.20363  0.89873  Biso   1.000  H
  C102     1.0000 0.19793  0.22928  0.86300  Biso   1.000  C
  N34      1.0000 0.13785  0.13613  0.85561  Biso   1.000  N
  N35      1.0000 0.98458  0.85786  0.18266  Biso   1.000  N
  C103     1.0000 0.96118  0.77411  0.19276  Biso   1.000  C
  C104     1.0000 0.96716  0.69006  0.22809  Biso   1.000  C
  C105     1.0000 0.93460  0.67504  0.20536  Biso   1.000  C
  C106     1.0000 0.98373  0.79084  0.23929  Biso   1.000  C
  H35      1.0000 0.97253  0.84907  0.23217  Biso   1.000  H
  C107     1.0000 0.98400  0.60603  0.23927  Biso   1.000  C
  H36      1.0000 0.97343  0.53697  0.23207  Biso   1.000  H
  C108     1.0000 0.86459  0.56262  0.19634  Biso   1.000  C
  N36      1.0000 0.80451  0.46947  0.18895  Biso   1.000  N
  N37      1.0000 0.65125  0.46006  0.01600  Biso   1.000  N
  C109     1.0000 0.62785  0.52041  0.02609  Biso   1.000  C
  C110     1.0000 0.63383  0.61044  0.06142  Biso   1.000  C
  C111     1.0000 0.60127  0.59290  0.03869  Biso   1.000  C
  C112     1.0000 0.65040  0.52623  0.07263  Biso   1.000  C
  H37      1.0000 0.63920  0.45680  0.06550  Biso   1.000  H
  C113     1.0000 0.65067  0.71131  0.07260  Biso   1.000  C
  H38      1.0000 0.64010  0.76980  0.06540  Biso   1.000  H
  C114     1.0000 0.53126  0.63531  0.02967  Biso   1.000  C
  N38      1.0000 0.47118  0.66838  0.02228  Biso   1.000  N
  N39      1.0000 0.31792  0.79339  0.34933  Biso   1.000  N
  C115     1.0000 0.29452  0.85374  0.35943  Biso   1.000  C
  C116     1.0000 0.30050  0.94377  0.39475  Biso   1.000  C
  C117     1.0000 0.26794  0.92623  0.37203  Biso   1.000  C
  C118     1.0000 0.31707  0.85956  0.40596  Biso   1.000  C
  H39      1.0000 0.30587  0.79013  0.39883  Biso   1.000  H
  C119     1.0000 0.31734  0.04464  0.40594  Biso   1.000  C
  H40      1.0000 0.30677  0.10313  0.39873  Biso   1.000  H
  C120     1.0000 0.19793  0.96864  0.36300  Biso   1.000  C
  N40      1.0000 0.13785  0.00171  0.35561  Biso   1.000  N
  N41      1.0000 0.98458  0.12673  0.68266  Biso   1.000  N
  C121     1.0000 0.96118  0.18708  0.69276  Biso   1.000  C
  C122     1.0000 0.96716  0.27711  0.72809  Biso   1.000  C
  C123     1.0000 0.93460  0.25957  0.70536  Biso   1.000  C
  C124     1.0000 0.98373  0.19290  0.73929  Biso   1.000  C
  H41      1.0000 0.97253  0.12347  0.73217  Biso   1.000  H
  C125     1.0000 0.98400  0.37798  0.73927  Biso   1.000  C
  H42      1.0000 0.97343  0.43647  0.73207  Biso   1.000  H
  C126     1.0000 0.86459  0.30198  0.69634  Biso   1.000  C
  N42      1.0000 0.80451  0.33505  0.68895  Biso   1.000  N
  N43      1.0000 0.53994  0.19119  0.01600  Biso   1.000  N
  C127     1.0000 0.47959  0.10744  0.02609  Biso   1.000  C
  C128     1.0000 0.38956  0.02339  0.06142  Biso   1.000  C
  C129     1.0000 0.40710  0.00837  0.03869  Biso   1.000  C
  C130     1.0000 0.47377  0.12417  0.07263  Biso   1.000  C
  H43      1.0000 0.54320  0.18240  0.06550  Biso   1.000  H
  C131     1.0000 0.28869  0.93936  0.07260  Biso   1.000  C
  H44      1.0000 0.23020  0.87030  0.06540  Biso   1.000  H
  C132     1.0000 0.36469  0.89595  0.02967  Biso   1.000  C
  N44      1.0000 0.33162  0.80280  0.02228  Biso   1.000  N
  N45      1.0000 0.20661  0.52452  0.34933  Biso   1.000  N
  C133     1.0000 0.14626  0.44077  0.35943  Biso   1.000  C
  C134     1.0000 0.05623  0.35672  0.39475  Biso   1.000  C
  C135     1.0000 0.07377  0.34170  0.37203  Biso   1.000  C
  C136     1.0000 0.14044  0.45750  0.40596  Biso   1.000  C
  H45      1.0000 0.20987  0.51573  0.39883  Biso   1.000  H
  C137     1.0000 0.95536  0.27269  0.40594  Biso   1.000  C
  H46      1.0000 0.89687  0.20363  0.39873  Biso   1.000  H
  C138     1.0000 0.03136  0.22928  0.36300  Biso   1.000  C
  N46      1.0000 0.99829  0.13613  0.35561  Biso   1.000  N
  N47      1.0000 0.87327  0.85786  0.68266  Biso   1.000  N
  C139     1.0000 0.81292  0.77411  0.69276  Biso   1.000  C
  C140     1.0000 0.72289  0.69006  0.72809  Biso   1.000  C
  C141     1.0000 0.74043  0.67504  0.70536  Biso   1.000  C
  C142     1.0000 0.80710  0.79084  0.73929  Biso   1.000  C
  H47      1.0000 0.87653  0.84907  0.73217  Biso   1.000  H
  C143     1.0000 0.62202  0.60603  0.73927  Biso   1.000  C
  H48      1.0000 0.56353  0.53697  0.73207  Biso   1.000  H
  C144     1.0000 0.69802  0.56262  0.69634  Biso   1.000  C
  N48      1.0000 0.66495  0.46947  0.68895  Biso   1.000  N
  N49      1.0000 0.80881  0.34875  0.01600  Biso   1.000  N
  C145     1.0000 0.89256  0.37215  0.02609  Biso   1.000  C
  C146     1.0000 0.97661  0.36617  0.06142  Biso   1.000  C
  C147     1.0000 0.99163  0.39873  0.03869  Biso   1.000  C
  C148     1.0000 0.87583  0.34960  0.07263  Biso   1.000  C
  H49      1.0000 0.81760  0.36080  0.06550  Biso   1.000  H
  C149     1.0000 0.06064  0.34933  0.07260  Biso   1.000  C
  H50      1.0000 0.12970  0.35990  0.06540  Biso   1.000  H
  C150     1.0000 0.10405  0.46874  0.02967  Biso   1.000  C
  N50      1.0000 0.19720  0.52882  0.02228  Biso   1.000  N
  N51      1.0000 0.47548  0.68208  0.34933  Biso   1.000  N
  C151     1.0000 0.55923  0.70548  0.35943  Biso   1.000  C
  C152     1.0000 0.64328  0.69950  0.39475  Biso   1.000  C
  C153     1.0000 0.65830  0.73206  0.37203  Biso   1.000  C
  C154     1.0000 0.54250  0.68293  0.40596  Biso   1.000  C
  H51      1.0000 0.48427  0.69413  0.39883  Biso   1.000  H
  C155     1.0000 0.72731  0.68266  0.40594  Biso   1.000  C
  H52      1.0000 0.79637  0.69323  0.39873  Biso   1.000  H
  C156     1.0000 0.77072  0.80207  0.36300  Biso   1.000  C
  N52      1.0000 0.86387  0.86215  0.35561  Biso   1.000  N
  N53      1.0000 0.14214  0.01542  0.68266  Biso   1.000  N
  C157     1.0000 0.22589  0.03882  0.69276  Biso   1.000  C
  C158     1.0000 0.30994  0.03284  0.72809  Biso   1.000  C
  C159     1.0000 0.32496  0.06540  0.70536  Biso   1.000  C
  C160     1.0000 0.20916  0.01627  0.73929  Biso   1.000  C
  H53      1.0000 0.15093  0.02747  0.73217  Biso   1.000  H
  C161     1.0000 0.39397  0.01600  0.73927  Biso   1.000  C
  H54      1.0000 0.46303  0.02657  0.73207  Biso   1.000  H
  C162     1.0000 0.43738  0.13541  0.69634  Biso   1.000  C
  N54      1.0000 0.53053  0.19549  0.68895  Biso   1.000  N
  N55      1.0000 0.46006  0.65125  0.48400  Biso   1.000  N
  C163     1.0000 0.52041  0.62785  0.47391  Biso   1.000  C
  C164     1.0000 0.61044  0.63383  0.43858  Biso   1.000  C
  C165     1.0000 0.59290  0.60127  0.46131  Biso   1.000  C
  C166     1.0000 0.52623  0.65040  0.42737  Biso   1.000  C
  H55      1.0000 0.45680  0.63920  0.43450  Biso   1.000  H
  C167     1.0000 0.71131  0.65067  0.42740  Biso   1.000  C
  H56      1.0000 0.76980  0.64010  0.43460  Biso   1.000  H
  C168     1.0000 0.63531  0.53126  0.47033  Biso   1.000  C
  N56      1.0000 0.66838  0.47118  0.47772  Biso   1.000  N
  N57      1.0000 0.12673  0.98458  0.81734  Biso   1.000  N
  C169     1.0000 0.18708  0.96118  0.80724  Biso   1.000  C
  C170     1.0000 0.27711  0.96716  0.77191  Biso   1.000  C
  C171     1.0000 0.25957  0.93460  0.79464  Biso   1.000  C
  C172     1.0000 0.19290  0.98373  0.76071  Biso   1.000  C
  H57      1.0000 0.12347  0.97253  0.76783  Biso   1.000  H
  C173     1.0000 0.37798  0.98400  0.76073  Biso   1.000  C
  H58      1.0000 0.43647  0.97343  0.76793  Biso   1.000  H
  C174     1.0000 0.30198  0.86459  0.80366  Biso   1.000  C
  N58      1.0000 0.33505  0.80451  0.81105  Biso   1.000  N
  N59      1.0000 0.79339  0.31792  0.15067  Biso   1.000  N
  C175     1.0000 0.85374  0.29452  0.14057  Biso   1.000  C
  C176     1.0000 0.94377  0.30050  0.10525  Biso   1.000  C
  C177     1.0000 0.92623  0.26794  0.12797  Biso   1.000  C
  C178     1.0000 0.85956  0.31707  0.09404  Biso   1.000  C
  H59      1.0000 0.79013  0.30587  0.10117  Biso   1.000  H
  C179     1.0000 0.04464  0.31734  0.09406  Biso   1.000  C
  H60      1.0000 0.10313  0.30677  0.10127  Biso   1.000  H
  C180     1.0000 0.96864  0.19793  0.13700  Biso   1.000  C
  N60      1.0000 0.00171  0.13785  0.14439  Biso   1.000  N
  N61      1.0000 0.19119  0.53994  0.48400  Biso   1.000  N
  C181     1.0000 0.10744  0.47959  0.47391  Biso   1.000  C
  C182     1.0000 0.02339  0.38956  0.43858  Biso   1.000  C
  C183     1.0000 0.00837  0.40710  0.46131  Biso   1.000  C
  C184     1.0000 0.12417  0.47377  0.42737  Biso   1.000  C
  H61      1.0000 0.18240  0.54320  0.43450  Biso   1.000  H
  C185     1.0000 0.93936  0.28869  0.42740  Biso   1.000  C
  H62      1.0000 0.87030  0.23020  0.43460  Biso   1.000  H
  C186     1.0000 0.89595  0.36469  0.47033  Biso   1.000  C
  N62      1.0000 0.80280  0.33162  0.47772  Biso   1.000  N
  N63      1.0000 0.85786  0.87327  0.81734  Biso   1.000  N
  C187     1.0000 0.77411  0.81292  0.80724  Biso   1.000  C
  C188     1.0000 0.69006  0.72289  0.77191  Biso   1.000  C
  C189     1.0000 0.67504  0.74043  0.79464  Biso   1.000  C
  C190     1.0000 0.79084  0.80710  0.76071  Biso   1.000  C
  H63      1.0000 0.84907  0.87653  0.76783  Biso   1.000  H
  C191     1.0000 0.60603  0.62202  0.76073  Biso   1.000  C
  H64      1.0000 0.53697  0.56353  0.76793  Biso   1.000  H
  C192     1.0000 0.56262  0.69802  0.80366  Biso   1.000  C
  N64      1.0000 0.46947  0.66495  0.81105  Biso   1.000  N
  N65      1.0000 0.52452  0.20661  0.15067  Biso   1.000  N
  C193     1.0000 0.44077  0.14626  0.14057  Biso   1.000  C
  C194     1.0000 0.35672  0.05623  0.10525  Biso   1.000  C
  C195     1.0000 0.34170  0.07377  0.12797  Biso   1.000  C
  C196     1.0000 0.45750  0.14044  0.09404  Biso   1.000  C
  H65      1.0000 0.51573  0.20987  0.10117  Biso   1.000  H
  C197     1.0000 0.27269  0.95536  0.09406  Biso   1.000  C
  H66      1.0000 0.20363  0.89687  0.10127  Biso   1.000  H
  C198     1.0000 0.22928  0.03136  0.13700  Biso   1.000  C
  N66      1.0000 0.13613  0.99829  0.14439  Biso   1.000  N
  N67      1.0000 0.34875  0.80881  0.48400  Biso   1.000  N
  C199     1.0000 0.37215  0.89256  0.47391  Biso   1.000  C
  C200     1.0000 0.36617  0.97661  0.43858  Biso   1.000  C
  C201     1.0000 0.39873  0.99163  0.46131  Biso   1.000  C
  C202     1.0000 0.34960  0.87583  0.42737  Biso   1.000  C
  H67      1.0000 0.36080  0.81760  0.43450  Biso   1.000  H
  C203     1.0000 0.34933  0.06064  0.42740  Biso   1.000  C
  H68      1.0000 0.35990  0.12970  0.43460  Biso   1.000  H
  C204     1.0000 0.46874  0.10405  0.47033  Biso   1.000  C
  N68      1.0000 0.52882  0.19720  0.47772  Biso   1.000  N
  N69      1.0000 0.01542  0.14214  0.81734  Biso   1.000  N
  C205     1.0000 0.03882  0.22589  0.80724  Biso   1.000  C
  C206     1.0000 0.03284  0.30994  0.77191  Biso   1.000  C
  C207     1.0000 0.06540  0.32496  0.79464  Biso   1.000  C
  C208     1.0000 0.01627  0.20916  0.76071  Biso   1.000  C
  H69      1.0000 0.02747  0.15093  0.76783  Biso   1.000  H
  C209     1.0000 0.01600  0.39397  0.76073  Biso   1.000  C
  H70      1.0000 0.02657  0.46303  0.76793  Biso   1.000  H
  C210     1.0000 0.13541  0.43738  0.80366  Biso   1.000  C
  N70      1.0000 0.19549  0.53053  0.81105  Biso   1.000  N
  N71      1.0000 0.68208  0.47548  0.15067  Biso   1.000  N
  C211     1.0000 0.70548  0.55923  0.14057  Biso   1.000  C
  C212     1.0000 0.69950  0.64328  0.10525  Biso   1.000  C
  C213     1.0000 0.73206  0.65830  0.12797  Biso   1.000  C
  C214     1.0000 0.68293  0.54250  0.09404  Biso   1.000  C
  H71      1.0000 0.69413  0.48427  0.10117  Biso   1.000  H
  C215     1.0000 0.68266  0.72731  0.09406  Biso   1.000  C
  H72      1.0000 0.69323  0.79637  0.10127  Biso   1.000  H
  C216     1.0000 0.80207  0.77072  0.13700  Biso   1.000  C
  N72      1.0000 0.86215  0.86387  0.14439  Biso   1.000  N
  Zn1      1.0000 0.33333  0.66667  0.00362  Biso   1.000  Zn
  Zn2      1.0000 0.00000  0.00000  0.33695  Biso   1.000  Zn
  Zn3      1.0000 0.66667  0.33333  0.67028  Biso   1.000  Zn
  Zn4      1.0000 0.66667  0.33333  0.49638  Biso   1.000  Zn
  Zn5      1.0000 0.33333  0.66667  0.82972  Biso   1.000  Zn
  Zn6      1.0000 0.00000  0.00000  0.16305  Biso   1.000  Zn
  Zn7      1.0000 0.66667  0.33333  0.99638  Biso   1.000  Zn
  Zn8      1.0000 0.33333  0.66667  0.32972  Biso   1.000  Zn
  Zn9      1.0000 0.00000  0.00000  0.66305  Biso   1.000  Zn
  Zn10     1.0000 0.33333  0.66667  0.50362  Biso   1.000  Zn
  Zn11     1.0000 0.00000  0.00000  0.83695  Biso   1.000  Zn
  Zn12     1.0000 0.66667  0.33333  0.17028  Biso   1.000  Zn
