data_image0
_cell_length_a       19.265
_cell_length_b       19.265
_cell_length_c       15.913
_cell_angle_alpha    90
_cell_angle_beta     90
_cell_angle_gamma    90

_symmetry_space_group_name_H-M    "P 1"
_symmetry_int_tables_number       1

loop_
  _symmetry_equiv_pos_as_xyz
  'x, y, z'

loop_
  _atom_site_label
  _atom_site_occupancy
  _atom_site_fract_x
  _atom_site_fract_y
  _atom_site_fract_z
  _atom_site_thermal_displace_type
  _atom_site_B_iso_or_equiv
  _atom_site_type_symbol
  N1       1.0000 0.70370  0.31350  0.55740  Biso   1.000  N
  O1       1.0000 0.59620  0.23990  0.82140  Biso   1.000  O
  O2       1.0000 0.54500  0.31420  0.73820  Biso   1.000  O
  C1       1.0000 0.59530  0.27830  0.75810  Biso   1.000  C
  C2       1.0000 0.65940  0.27900  0.70310  Biso   1.000  C
  C3       1.0000 0.64440  0.31610  0.62090  Biso   1.000  C
  C4       1.0000 0.71980  0.24010  0.53060  Biso   1.000  C
  C5       1.0000 0.67970  0.35250  0.48300  Biso   1.000  C
  C6       1.0000 0.76860  0.34540  0.58970  Biso   1.000  C
  N2       1.0000 0.20370  0.81350  0.05740  Biso   1.000  N
  O3       1.0000 0.09620  0.73990  0.32140  Biso   1.000  O
  O4       1.0000 0.04500  0.81420  0.23820  Biso   1.000  O
  C7       1.0000 0.09530  0.77830  0.25810  Biso   1.000  C
  C8       1.0000 0.15940  0.77900  0.20310  Biso   1.000  C
  C9       1.0000 0.14440  0.81610  0.12090  Biso   1.000  C
  C10      1.0000 0.21980  0.74010  0.03060  Biso   1.000  C
  C11      1.0000 0.17970  0.85250  0.98300  Biso   1.000  C
  C12      1.0000 0.26860  0.84540  0.08970  Biso   1.000  C
  N3       1.0000 0.79630  0.68650  0.05740  Biso   1.000  N
  O5       1.0000 0.90380  0.76010  0.32140  Biso   1.000  O
  O6       1.0000 0.95500  0.68580  0.23820  Biso   1.000  O
  C13      1.0000 0.90470  0.72170  0.25810  Biso   1.000  C
  C14      1.0000 0.84060  0.72100  0.20310  Biso   1.000  C
  C15      1.0000 0.85560  0.68390  0.12090  Biso   1.000  C
  C16      1.0000 0.78020  0.75990  0.03060  Biso   1.000  C
  C17      1.0000 0.82030  0.64750  0.98300  Biso   1.000  C
  C18      1.0000 0.73140  0.65460  0.08970  Biso   1.000  C
  N4       1.0000 0.29630  0.18650  0.55740  Biso   1.000  N
  O7       1.0000 0.40380  0.26010  0.82140  Biso   1.000  O
  O8       1.0000 0.45500  0.18580  0.73820  Biso   1.000  O
  C19      1.0000 0.40470  0.22170  0.75810  Biso   1.000  C
  C20      1.0000 0.34060  0.22100  0.70310  Biso   1.000  C
  C21      1.0000 0.35560  0.18390  0.62090  Biso   1.000  C
  C22      1.0000 0.28020  0.25990  0.53060  Biso   1.000  C
  C23      1.0000 0.32030  0.14750  0.48300  Biso   1.000  C
  C24      1.0000 0.23140  0.15460  0.58970  Biso   1.000  C
  N5       1.0000 0.93650  0.45370  0.80740  Biso   1.000  N
  O9       1.0000 0.01010  0.34620  0.07140  Biso   1.000  O
  O10      1.0000 0.93580  0.29500  0.98820  Biso   1.000  O
  C25      1.0000 0.97170  0.34530  0.00810  Biso   1.000  C
  C26      1.0000 0.97100  0.40940  0.95310  Biso   1.000  C
  C27      1.0000 0.93390  0.39440  0.87090  Biso   1.000  C
  C28      1.0000 0.00990  0.46980  0.78060  Biso   1.000  C
  C29      1.0000 0.89750  0.42970  0.73300  Biso   1.000  C
  C30      1.0000 0.90460  0.51860  0.83970  Biso   1.000  C
  N6       1.0000 0.43650  0.95370  0.30740  Biso   1.000  N
  O11      1.0000 0.51010  0.84620  0.57140  Biso   1.000  O
  O12      1.0000 0.43580  0.79500  0.48820  Biso   1.000  O
  C31      1.0000 0.47170  0.84530  0.50810  Biso   1.000  C
  C32      1.0000 0.47100  0.90940  0.45310  Biso   1.000  C
  C33      1.0000 0.43390  0.89440  0.37090  Biso   1.000  C
  C34      1.0000 0.50990  0.96980  0.28060  Biso   1.000  C
  C35      1.0000 0.39750  0.92970  0.23300  Biso   1.000  C
  C36      1.0000 0.40460  0.01860  0.33970  Biso   1.000  C
  N7       1.0000 0.56350  0.54630  0.30740  Biso   1.000  N
  O13      1.0000 0.48990  0.65380  0.57140  Biso   1.000  O
  O14      1.0000 0.56420  0.70500  0.48820  Biso   1.000  O
  C37      1.0000 0.52830  0.65470  0.50810  Biso   1.000  C
  C38      1.0000 0.52900  0.59060  0.45310  Biso   1.000  C
  C39      1.0000 0.56610  0.60560  0.37090  Biso   1.000  C
  C40      1.0000 0.49010  0.53020  0.28060  Biso   1.000  C
  C41      1.0000 0.60250  0.57030  0.23300  Biso   1.000  C
  C42      1.0000 0.59540  0.48140  0.33970  Biso   1.000  C
  N8       1.0000 0.06350  0.04630  0.80740  Biso   1.000  N
  O15      1.0000 0.98990  0.15380  0.07140  Biso   1.000  O
  O16      1.0000 0.06420  0.20500  0.98820  Biso   1.000  O
  C43      1.0000 0.02830  0.15470  0.00810  Biso   1.000  C
  C44      1.0000 0.02900  0.09060  0.95310  Biso   1.000  C
  C45      1.0000 0.06610  0.10560  0.87090  Biso   1.000  C
  C46      1.0000 0.99010  0.03020  0.78060  Biso   1.000  C
  C47      1.0000 0.10250  0.07030  0.73300  Biso   1.000  C
  C48      1.0000 0.09540  0.98140  0.83970  Biso   1.000  C
  N9       1.0000 0.79630  0.31350  0.44260  Biso   1.000  N
  O17      1.0000 0.90380  0.23990  0.17860  Biso   1.000  O
  O18      1.0000 0.95500  0.31420  0.26180  Biso   1.000  O
  C49      1.0000 0.90470  0.27830  0.24190  Biso   1.000  C
  C50      1.0000 0.84060  0.27900  0.29690  Biso   1.000  C
  C51      1.0000 0.85560  0.31610  0.37910  Biso   1.000  C
  C52      1.0000 0.78020  0.24010  0.46940  Biso   1.000  C
  C53      1.0000 0.82030  0.35250  0.51700  Biso   1.000  C
  C54      1.0000 0.73140  0.34540  0.41030  Biso   1.000  C
  N10      1.0000 0.29630  0.81350  0.94260  Biso   1.000  N
  O19      1.0000 0.40380  0.73990  0.67860  Biso   1.000  O
  O20      1.0000 0.45500  0.81420  0.76180  Biso   1.000  O
  C55      1.0000 0.40470  0.77830  0.74190  Biso   1.000  C
  C56      1.0000 0.34060  0.77900  0.79690  Biso   1.000  C
  C57      1.0000 0.35560  0.81610  0.87910  Biso   1.000  C
  C58      1.0000 0.28020  0.74010  0.96940  Biso   1.000  C
  C59      1.0000 0.32030  0.85250  0.01700  Biso   1.000  C
  C60      1.0000 0.23140  0.84540  0.91030  Biso   1.000  C
  N11      1.0000 0.70370  0.68650  0.94260  Biso   1.000  N
  O21      1.0000 0.59620  0.76010  0.67860  Biso   1.000  O
  O22      1.0000 0.54500  0.68580  0.76180  Biso   1.000  O
  C61      1.0000 0.59530  0.72170  0.74190  Biso   1.000  C
  C62      1.0000 0.65940  0.72100  0.79690  Biso   1.000  C
  C63      1.0000 0.64440  0.68390  0.87910  Biso   1.000  C
  C64      1.0000 0.71980  0.75990  0.96940  Biso   1.000  C
  C65      1.0000 0.67970  0.64750  0.01700  Biso   1.000  C
  C66      1.0000 0.76860  0.65460  0.91030  Biso   1.000  C
  N12      1.0000 0.20370  0.18650  0.44260  Biso   1.000  N
  O23      1.0000 0.09620  0.26010  0.17860  Biso   1.000  O
  O24      1.0000 0.04500  0.18580  0.26180  Biso   1.000  O
  C67      1.0000 0.09530  0.22170  0.24190  Biso   1.000  C
  C68      1.0000 0.15940  0.22100  0.29690  Biso   1.000  C
  C69      1.0000 0.14440  0.18390  0.37910  Biso   1.000  C
  C70      1.0000 0.21980  0.25990  0.46940  Biso   1.000  C
  C71      1.0000 0.17970  0.14750  0.51700  Biso   1.000  C
  C72      1.0000 0.26860  0.15460  0.41030  Biso   1.000  C
  N13      1.0000 0.56350  0.45370  0.19260  Biso   1.000  N
  O25      1.0000 0.48990  0.34620  0.92860  Biso   1.000  O
  O26      1.0000 0.56420  0.29500  0.01180  Biso   1.000  O
  C73      1.0000 0.52830  0.34530  0.99190  Biso   1.000  C
  C74      1.0000 0.52900  0.40940  0.04690  Biso   1.000  C
  C75      1.0000 0.56610  0.39440  0.12910  Biso   1.000  C
  C76      1.0000 0.49010  0.46980  0.21940  Biso   1.000  C
  C77      1.0000 0.60250  0.42970  0.26700  Biso   1.000  C
  C78      1.0000 0.59540  0.51860  0.16030  Biso   1.000  C
  N14      1.0000 0.06350  0.95370  0.69260  Biso   1.000  N
  O27      1.0000 0.98990  0.84620  0.42860  Biso   1.000  O
  O28      1.0000 0.06420  0.79500  0.51180  Biso   1.000  O
  C79      1.0000 0.02830  0.84530  0.49190  Biso   1.000  C
  C80      1.0000 0.02900  0.90940  0.54690  Biso   1.000  C
  C81      1.0000 0.06610  0.89440  0.62910  Biso   1.000  C
  C82      1.0000 0.99010  0.96980  0.71940  Biso   1.000  C
  C83      1.0000 0.10250  0.92970  0.76700  Biso   1.000  C
  C84      1.0000 0.09540  0.01860  0.66030  Biso   1.000  C
  N15      1.0000 0.93650  0.54630  0.69260  Biso   1.000  N
  O29      1.0000 0.01010  0.65380  0.42860  Biso   1.000  O
  O30      1.0000 0.93580  0.70500  0.51180  Biso   1.000  O
  C85      1.0000 0.97170  0.65470  0.49190  Biso   1.000  C
  C86      1.0000 0.97100  0.59060  0.54690  Biso   1.000  C
  C87      1.0000 0.93390  0.60560  0.62910  Biso   1.000  C
  C88      1.0000 0.00990  0.53020  0.71940  Biso   1.000  C
  C89      1.0000 0.89750  0.57030  0.76700  Biso   1.000  C
  C90      1.0000 0.90460  0.48140  0.66030  Biso   1.000  C
  N16      1.0000 0.43650  0.04630  0.19260  Biso   1.000  N
  O31      1.0000 0.51010  0.15380  0.92860  Biso   1.000  O
  O32      1.0000 0.43580  0.20500  0.01180  Biso   1.000  O
  C91      1.0000 0.47170  0.15470  0.99190  Biso   1.000  C
  C92      1.0000 0.47100  0.09060  0.04690  Biso   1.000  C
  C93      1.0000 0.43390  0.10560  0.12910  Biso   1.000  C
  C94      1.0000 0.50990  0.03020  0.21940  Biso   1.000  C
  C95      1.0000 0.39750  0.07030  0.26700  Biso   1.000  C
  C96      1.0000 0.40460  0.98140  0.16030  Biso   1.000  C
  Zn1      1.0000 0.50000  0.25000  0.87500  Biso   1.000  Zn
  Zn2      1.0000 0.00000  0.75000  0.37500  Biso   1.000  Zn
  Zn3      1.0000 0.00000  0.25000  0.12500  Biso   1.000  Zn
  Zn4      1.0000 0.50000  0.75000  0.62500  Biso   1.000  Zn
  N17      1.0000 0.29630  0.68650  0.44260  Biso   1.000  N
  O33      1.0000 0.40380  0.76010  0.17860  Biso   1.000  O
  O34      1.0000 0.45500  0.68580  0.26180  Biso   1.000  O
  C97      1.0000 0.40470  0.72170  0.24190  Biso   1.000  C
  C98      1.0000 0.34060  0.72100  0.29690  Biso   1.000  C
  C99      1.0000 0.35560  0.68390  0.37910  Biso   1.000  C
  C100     1.0000 0.28020  0.75990  0.46940  Biso   1.000  C
  C101     1.0000 0.32030  0.64750  0.51700  Biso   1.000  C
  C102     1.0000 0.23140  0.65460  0.41030  Biso   1.000  C
  N18      1.0000 0.79630  0.18650  0.94260  Biso   1.000  N
  O35      1.0000 0.90380  0.26010  0.67860  Biso   1.000  O
  O36      1.0000 0.95500  0.18580  0.76180  Biso   1.000  O
  C103     1.0000 0.90470  0.22170  0.74190  Biso   1.000  C
  C104     1.0000 0.84060  0.22100  0.79690  Biso   1.000  C
  C105     1.0000 0.85560  0.18390  0.87910  Biso   1.000  C
  C106     1.0000 0.78020  0.25990  0.96940  Biso   1.000  C
  C107     1.0000 0.82030  0.14750  0.01700  Biso   1.000  C
  C108     1.0000 0.73140  0.15460  0.91030  Biso   1.000  C
  N19      1.0000 0.20370  0.31350  0.94260  Biso   1.000  N
  O37      1.0000 0.09620  0.23990  0.67860  Biso   1.000  O
  O38      1.0000 0.04500  0.31420  0.76180  Biso   1.000  O
  C109     1.0000 0.09530  0.27830  0.74190  Biso   1.000  C
  C110     1.0000 0.15940  0.27900  0.79690  Biso   1.000  C
  C111     1.0000 0.14440  0.31610  0.87910  Biso   1.000  C
  C112     1.0000 0.21980  0.24010  0.96940  Biso   1.000  C
  C113     1.0000 0.17970  0.35250  0.01700  Biso   1.000  C
  C114     1.0000 0.26860  0.34540  0.91030  Biso   1.000  C
  N20      1.0000 0.70370  0.81350  0.44260  Biso   1.000  N
  O39      1.0000 0.59620  0.73990  0.17860  Biso   1.000  O
  O40      1.0000 0.54500  0.81420  0.26180  Biso   1.000  O
  C115     1.0000 0.59530  0.77830  0.24190  Biso   1.000  C
  C116     1.0000 0.65940  0.77900  0.29690  Biso   1.000  C
  C117     1.0000 0.64440  0.81610  0.37910  Biso   1.000  C
  C118     1.0000 0.71980  0.74010  0.46940  Biso   1.000  C
  C119     1.0000 0.67970  0.85250  0.51700  Biso   1.000  C
  C120     1.0000 0.76860  0.84540  0.41030  Biso   1.000  C
  N21      1.0000 0.06350  0.54630  0.19260  Biso   1.000  N
  O41      1.0000 0.98990  0.65380  0.92860  Biso   1.000  O
  O42      1.0000 0.06420  0.70500  0.01180  Biso   1.000  O
  C121     1.0000 0.02830  0.65470  0.99190  Biso   1.000  C
  C122     1.0000 0.02900  0.59060  0.04690  Biso   1.000  C
  C123     1.0000 0.06610  0.60560  0.12910  Biso   1.000  C
  C124     1.0000 0.99010  0.53020  0.21940  Biso   1.000  C
  C125     1.0000 0.10250  0.57030  0.26700  Biso   1.000  C
  C126     1.0000 0.09540  0.48140  0.16030  Biso   1.000  C
  N22      1.0000 0.56350  0.04630  0.69260  Biso   1.000  N
  O43      1.0000 0.48990  0.15380  0.42860  Biso   1.000  O
  O44      1.0000 0.56420  0.20500  0.51180  Biso   1.000  O
  C127     1.0000 0.52830  0.15470  0.49190  Biso   1.000  C
  C128     1.0000 0.52900  0.09060  0.54690  Biso   1.000  C
  C129     1.0000 0.56610  0.10560  0.62910  Biso   1.000  C
  C130     1.0000 0.49010  0.03020  0.71940  Biso   1.000  C
  C131     1.0000 0.60250  0.07030  0.76700  Biso   1.000  C
  C132     1.0000 0.59540  0.98140  0.66030  Biso   1.000  C
  N23      1.0000 0.43650  0.45370  0.69260  Biso   1.000  N
  O45      1.0000 0.51010  0.34620  0.42860  Biso   1.000  O
  O46      1.0000 0.43580  0.29500  0.51180  Biso   1.000  O
  C133     1.0000 0.47170  0.34530  0.49190  Biso   1.000  C
  C134     1.0000 0.47100  0.40940  0.54690  Biso   1.000  C
  C135     1.0000 0.43390  0.39440  0.62910  Biso   1.000  C
  C136     1.0000 0.50990  0.46980  0.71940  Biso   1.000  C
  C137     1.0000 0.39750  0.42970  0.76700  Biso   1.000  C
  C138     1.0000 0.40460  0.51860  0.66030  Biso   1.000  C
  N24      1.0000 0.93650  0.95370  0.19260  Biso   1.000  N
  O47      1.0000 0.01010  0.84620  0.92860  Biso   1.000  O
  O48      1.0000 0.93580  0.79500  0.01180  Biso   1.000  O
  C139     1.0000 0.97170  0.84530  0.99190  Biso   1.000  C
  C140     1.0000 0.97100  0.90940  0.04690  Biso   1.000  C
  C141     1.0000 0.93390  0.89440  0.12910  Biso   1.000  C
  C142     1.0000 0.00990  0.96980  0.21940  Biso   1.000  C
  C143     1.0000 0.89750  0.92970  0.26700  Biso   1.000  C
  C144     1.0000 0.90460  0.01860  0.16030  Biso   1.000  C
  N25      1.0000 0.20370  0.68650  0.55740  Biso   1.000  N
  O49      1.0000 0.09620  0.76010  0.82140  Biso   1.000  O
  O50      1.0000 0.04500  0.68580  0.73820  Biso   1.000  O
  C145     1.0000 0.09530  0.72170  0.75810  Biso   1.000  C
  C146     1.0000 0.15940  0.72100  0.70310  Biso   1.000  C
  C147     1.0000 0.14440  0.68390  0.62090  Biso   1.000  C
  C148     1.0000 0.21980  0.75990  0.53060  Biso   1.000  C
  C149     1.0000 0.17970  0.64750  0.48300  Biso   1.000  C
  C150     1.0000 0.26860  0.65460  0.58970  Biso   1.000  C
  N26      1.0000 0.70370  0.18650  0.05740  Biso   1.000  N
  O51      1.0000 0.59620  0.26010  0.32140  Biso   1.000  O
  O52      1.0000 0.54500  0.18580  0.23820  Biso   1.000  O
  C151     1.0000 0.59530  0.22170  0.25810  Biso   1.000  C
  C152     1.0000 0.65940  0.22100  0.20310  Biso   1.000  C
  C153     1.0000 0.64440  0.18390  0.12090  Biso   1.000  C
  C154     1.0000 0.71980  0.25990  0.03060  Biso   1.000  C
  C155     1.0000 0.67970  0.14750  0.98300  Biso   1.000  C
  C156     1.0000 0.76860  0.15460  0.08970  Biso   1.000  C
  N27      1.0000 0.29630  0.31350  0.05740  Biso   1.000  N
  O53      1.0000 0.40380  0.23990  0.32140  Biso   1.000  O
  O54      1.0000 0.45500  0.31420  0.23820  Biso   1.000  O
  C157     1.0000 0.40470  0.27830  0.25810  Biso   1.000  C
  C158     1.0000 0.34060  0.27900  0.20310  Biso   1.000  C
  C159     1.0000 0.35560  0.31610  0.12090  Biso   1.000  C
  C160     1.0000 0.28020  0.24010  0.03060  Biso   1.000  C
  C161     1.0000 0.32030  0.35250  0.98300  Biso   1.000  C
  C162     1.0000 0.23140  0.34540  0.08970  Biso   1.000  C
  N28      1.0000 0.79630  0.81350  0.55740  Biso   1.000  N
  O55      1.0000 0.90380  0.73990  0.82140  Biso   1.000  O
  O56      1.0000 0.95500  0.81420  0.73820  Biso   1.000  O
  C163     1.0000 0.90470  0.77830  0.75810  Biso   1.000  C
  C164     1.0000 0.84060  0.77900  0.70310  Biso   1.000  C
  C165     1.0000 0.85560  0.81610  0.62090  Biso   1.000  C
  C166     1.0000 0.78020  0.74010  0.53060  Biso   1.000  C
  C167     1.0000 0.82030  0.85250  0.48300  Biso   1.000  C
  C168     1.0000 0.73140  0.84540  0.58970  Biso   1.000  C
  N29      1.0000 0.43650  0.54630  0.80740  Biso   1.000  N
  O57      1.0000 0.51010  0.65380  0.07140  Biso   1.000  O
  O58      1.0000 0.43580  0.70500  0.98820  Biso   1.000  O
  C169     1.0000 0.47170  0.65470  0.00810  Biso   1.000  C
  C170     1.0000 0.47100  0.59060  0.95310  Biso   1.000  C
  C171     1.0000 0.43390  0.60560  0.87090  Biso   1.000  C
  C172     1.0000 0.50990  0.53020  0.78060  Biso   1.000  C
  C173     1.0000 0.39750  0.57030  0.73300  Biso   1.000  C
  C174     1.0000 0.40460  0.48140  0.83970  Biso   1.000  C
  N30      1.0000 0.93650  0.04630  0.30740  Biso   1.000  N
  O59      1.0000 0.01010  0.15380  0.57140  Biso   1.000  O
  O60      1.0000 0.93580  0.20500  0.48820  Biso   1.000  O
  C175     1.0000 0.97170  0.15470  0.50810  Biso   1.000  C
  C176     1.0000 0.97100  0.09060  0.45310  Biso   1.000  C
  C177     1.0000 0.93390  0.10560  0.37090  Biso   1.000  C
  C178     1.0000 0.00990  0.03020  0.28060  Biso   1.000  C
  C179     1.0000 0.89750  0.07030  0.23300  Biso   1.000  C
  C180     1.0000 0.90460  0.98140  0.33970  Biso   1.000  C
  N31      1.0000 0.06350  0.45370  0.30740  Biso   1.000  N
  O61      1.0000 0.98990  0.34620  0.57140  Biso   1.000  O
  O62      1.0000 0.06420  0.29500  0.48820  Biso   1.000  O
  C181     1.0000 0.02830  0.34530  0.50810  Biso   1.000  C
  C182     1.0000 0.02900  0.40940  0.45310  Biso   1.000  C
  C183     1.0000 0.06610  0.39440  0.37090  Biso   1.000  C
  C184     1.0000 0.99010  0.46980  0.28060  Biso   1.000  C
  C185     1.0000 0.10250  0.42970  0.23300  Biso   1.000  C
  C186     1.0000 0.09540  0.51860  0.33970  Biso   1.000  C
  N32      1.0000 0.56350  0.95370  0.80740  Biso   1.000  N
  O63      1.0000 0.48990  0.84620  0.07140  Biso   1.000  O
  O64      1.0000 0.56420  0.79500  0.98820  Biso   1.000  O
  C187     1.0000 0.52830  0.84530  0.00810  Biso   1.000  C
  C188     1.0000 0.52900  0.90940  0.95310  Biso   1.000  C
  C189     1.0000 0.56610  0.89440  0.87090  Biso   1.000  C
  C190     1.0000 0.49010  0.96980  0.78060  Biso   1.000  C
  C191     1.0000 0.60250  0.92970  0.73300  Biso   1.000  C
  C192     1.0000 0.59540  0.01860  0.83970  Biso   1.000  C
  Zn5      1.0000 0.50000  0.75000  0.12500  Biso   1.000  Zn
  Zn6      1.0000 0.00000  0.25000  0.62500  Biso   1.000  Zn
  Zn7      1.0000 0.00000  0.75000  0.87500  Biso   1.000  Zn
  Zn8      1.0000 0.50000  0.25000  0.37500  Biso   1.000  Zn
