data_image0
_cell_length_a       24.97
_cell_length_b       19.252
_cell_length_c       15.913
_cell_angle_alpha    90
_cell_angle_beta     129.46
_cell_angle_gamma    90

_symmetry_space_group_name_H-M    "P 1"
_symmetry_int_tables_number       1

loop_
  _symmetry_equiv_pos_as_xyz
  'x, y, z'

loop_
  _atom_site_label
  _atom_site_occupancy
  _atom_site_fract_x
  _atom_site_fract_y
  _atom_site_fract_z
  _atom_site_thermal_displace_type
  _atom_site_B_iso_or_equiv
  _atom_site_type_symbol
  N1       1.0000 0.45410  0.06340  0.26060  Biso   1.000  N
  N2       1.0000 0.04590  0.93630  0.85350  Biso   1.000  N
  O1       1.0000 0.34570  0.99050  0.41650  Biso   1.000  O
  O2       1.0000 0.29410  0.06470  0.28180  Biso   1.000  O
  C1       1.0000 0.34490  0.02930  0.35280  Biso   1.000  C
  C2       1.0000 0.41040  0.02860  0.36440  Biso   1.000  C
  C3       1.0000 0.39350  0.06620  0.26500  Biso   1.000  C
  C4       1.0000 0.46990  0.98970  0.25030  Biso   1.000  C
  C5       1.0000 0.42980  0.10230  0.16120  Biso   1.000  C
  C6       1.0000 0.51810  0.09480  0.35730  Biso   1.000  C
  O3       1.0000 0.15310  0.01090  0.22490  Biso   1.000  O
  O4       1.0000 0.20510  0.93670  0.19310  Biso   1.000  O
  C7       1.0000 0.15510  0.97270  0.16340  Biso   1.000  C
  C8       1.0000 0.09120  0.97120  0.04490  Biso   1.000  C
  C9       1.0000 0.10550  0.93470  0.97690  Biso   1.000  C
  C10      1.0000 0.03070  0.00920  0.80960  Biso   1.000  C
  C11      1.0000 0.07030  0.89740  0.80310  Biso   1.000  C
  C12      1.0000 0.98130  0.90370  0.82120  Biso   1.000  C
  O5       1.0000 0.23950  0.09620  0.41890  Biso   1.000  O
  O6       1.0000 0.31470  0.04590  0.57620  Biso   1.000  O
  C13      1.0000 0.27660  0.09580  0.51860  Biso   1.000  C
  C14      1.0000 0.27900  0.15860  0.57740  Biso   1.000  C
  C15      1.0000 0.31590  0.14540  0.69650  Biso   1.000  C
  N3       1.0000 0.31270  0.20340  0.75520  Biso   1.000  N
  C16      1.0000 0.24020  0.22060  0.70980  Biso   1.000  C
  C17      1.0000 0.23960  0.28070  0.77220  Biso   1.000  C
  C18      1.0000 0.34520  0.26710  0.75560  Biso   1.000  C
  C19      1.0000 0.35240  0.31970  0.83480  Biso   1.000  C
  C20      1.0000 0.35280  0.17900  0.87120  Biso   1.000  C
  C21      1.0000 0.34530  0.22940  0.93540  Biso   1.000  C
  N4       1.0000 0.31400  0.29700  0.87200  Biso   1.000  N
  C22      1.0000 0.31700  0.35590  0.93820  Biso   1.000  C
  C23      1.0000 0.27960  0.34020  0.98260  Biso   1.000  C
  C24      1.0000 0.27900  0.40460  0.03740  Biso   1.000  C
  O7       1.0000 0.24060  0.40400  0.06290  Biso   1.000  O
  O8       1.0000 0.31400  0.45500  0.05270  Biso   1.000  O
  Zn1      1.0000 0.24890  0.00040  0.37390  Biso   1.000  Zn
  H1       1.0000 0.44680  0.05300  0.42940  Biso   1.000  H
  H2       1.0000 0.42510  0.98190  0.36760  Biso   1.000  H
  H3       1.0000 0.35290  0.04520  0.20060  Biso   1.000  H
  H4       1.0000 0.38440  0.11420  0.26770  Biso   1.000  H
  H5       1.0000 0.42950  0.96930  0.18480  Biso   1.000  H
  H6       1.0000 0.48210  0.96270  0.31090  Biso   1.000  H
  H7       1.0000 0.42480  0.15030  0.17140  Biso   1.000  H
  H8       1.0000 0.38560  0.08510  0.09880  Biso   1.000  H
  H9       1.0000 0.53730  0.06760  0.42130  Biso   1.000  H
  H10      1.0000 0.50630  0.13970  0.36750  Biso   1.000  H
  H11      1.0000 0.07640  0.01780  0.01810  Biso   1.000  H
  H12      1.0000 0.05480  0.94680  0.03730  Biso   1.000  H
  H13      1.0000 0.14530  0.95650  0.99190  Biso   1.000  H
  H14      1.0000 0.11610  0.88710  0.00010  Biso   1.000  H
  H15      1.0000 0.07110  0.02870  0.82370  Biso   1.000  H
  H16      1.0000 0.01950  0.03660  0.84690  Biso   1.000  H
  H17      1.0000 0.07630  0.84950  0.82410  Biso   1.000  H
  H18      1.0000 0.11450  0.91560  0.83010  Biso   1.000  H
  H19      1.0000 0.96220  0.93140  0.84670  Biso   1.000  H
  H20      1.0000 0.99210  0.85850  0.85400  Biso   1.000  H
  H21      1.0000 0.30290  0.19510  0.57190  Biso   1.000  H
  H22      1.0000 0.23240  0.17320  0.54300  Biso   1.000  H
  H23      1.0000 0.36360  0.13560  0.73140  Biso   1.000  H
  H24      1.0000 0.29490  0.10510  0.70060  Biso   1.000  H
  H25      1.0000 0.21530  0.23570  0.63600  Biso   1.000  H
  H26      1.0000 0.21800  0.18030  0.71070  Biso   1.000  H
  H27      1.0000 0.21450  0.26590  0.79610  Biso   1.000  H
  H28      1.0000 0.21800  0.32140  0.72760  Biso   1.000  H
  H29      1.0000 0.38990  0.25690  0.77670  Biso   1.000  H
  H30      1.0000 0.31580  0.28640  0.68360  Biso   1.000  H
  H31      1.0000 0.33560  0.36430  0.80050  Biso   1.000  H
  H32      1.0000 0.40050  0.32340  0.89790  Biso   1.000  H
  H33      1.0000 0.33560  0.13440  0.87150  Biso   1.000  H
  H34      1.0000 0.40100  0.17520  0.90500  Biso   1.000  H
  H35      1.0000 0.38990  0.24020  0.00330  Biso   1.000  H
  H36      1.0000 0.31620  0.20970  0.94930  Biso   1.000  H
  H37      1.0000 0.36490  0.36530  0.99800  Biso   1.000  H
  H38      1.0000 0.29610  0.39640  0.89270  Biso   1.000  H
  H39      1.0000 0.23290  0.32610  0.92410  Biso   1.000  H
  H40      1.0000 0.30350  0.30330  0.03480  Biso   1.000  H
  N5       1.0000 0.95410  0.56340  0.26060  Biso   1.000  N
  N6       1.0000 0.54590  0.43630  0.85350  Biso   1.000  N
  O9       1.0000 0.84570  0.49050  0.41650  Biso   1.000  O
  O10      1.0000 0.79410  0.56470  0.28180  Biso   1.000  O
  C25      1.0000 0.84490  0.52930  0.35280  Biso   1.000  C
  C26      1.0000 0.91040  0.52860  0.36440  Biso   1.000  C
  C27      1.0000 0.89350  0.56620  0.26500  Biso   1.000  C
  C28      1.0000 0.96990  0.48970  0.25030  Biso   1.000  C
  C29      1.0000 0.92980  0.60230  0.16120  Biso   1.000  C
  C30      1.0000 0.01810  0.59480  0.35730  Biso   1.000  C
  O11      1.0000 0.65310  0.51090  0.22490  Biso   1.000  O
  O12      1.0000 0.70510  0.43670  0.19310  Biso   1.000  O
  C31      1.0000 0.65510  0.47270  0.16340  Biso   1.000  C
  C32      1.0000 0.59120  0.47120  0.04490  Biso   1.000  C
  C33      1.0000 0.60550  0.43470  0.97690  Biso   1.000  C
  C34      1.0000 0.53070  0.50920  0.80960  Biso   1.000  C
  C35      1.0000 0.57030  0.39740  0.80310  Biso   1.000  C
  C36      1.0000 0.48130  0.40370  0.82120  Biso   1.000  C
  O13      1.0000 0.73950  0.59620  0.41890  Biso   1.000  O
  O14      1.0000 0.81470  0.54590  0.57620  Biso   1.000  O
  C37      1.0000 0.77660  0.59580  0.51860  Biso   1.000  C
  C38      1.0000 0.77900  0.65860  0.57740  Biso   1.000  C
  C39      1.0000 0.81590  0.64540  0.69650  Biso   1.000  C
  N7       1.0000 0.81270  0.70340  0.75520  Biso   1.000  N
  C40      1.0000 0.74020  0.72060  0.70980  Biso   1.000  C
  C41      1.0000 0.73960  0.78070  0.77220  Biso   1.000  C
  C42      1.0000 0.84520  0.76710  0.75560  Biso   1.000  C
  C43      1.0000 0.85240  0.81970  0.83480  Biso   1.000  C
  C44      1.0000 0.85280  0.67900  0.87120  Biso   1.000  C
  C45      1.0000 0.84530  0.72940  0.93540  Biso   1.000  C
  N8       1.0000 0.81400  0.79700  0.87200  Biso   1.000  N
  C46      1.0000 0.81700  0.85590  0.93820  Biso   1.000  C
  C47      1.0000 0.77960  0.84020  0.98260  Biso   1.000  C
  C48      1.0000 0.77900  0.90460  0.03740  Biso   1.000  C
  O15      1.0000 0.74060  0.90400  0.06290  Biso   1.000  O
  O16      1.0000 0.81400  0.95500  0.05270  Biso   1.000  O
  Zn2      1.0000 0.74890  0.50040  0.37390  Biso   1.000  Zn
  H41      1.0000 0.94680  0.55300  0.42940  Biso   1.000  H
  H42      1.0000 0.92510  0.48190  0.36760  Biso   1.000  H
  H43      1.0000 0.85290  0.54520  0.20060  Biso   1.000  H
  H44      1.0000 0.88440  0.61420  0.26770  Biso   1.000  H
  H45      1.0000 0.92950  0.46930  0.18480  Biso   1.000  H
  H46      1.0000 0.98210  0.46270  0.31090  Biso   1.000  H
  H47      1.0000 0.92480  0.65030  0.17140  Biso   1.000  H
  H48      1.0000 0.88560  0.58510  0.09880  Biso   1.000  H
  H49      1.0000 0.03730  0.56760  0.42130  Biso   1.000  H
  H50      1.0000 0.00630  0.63970  0.36750  Biso   1.000  H
  H51      1.0000 0.57640  0.51780  0.01810  Biso   1.000  H
  H52      1.0000 0.55480  0.44680  0.03730  Biso   1.000  H
  H53      1.0000 0.64530  0.45650  0.99190  Biso   1.000  H
  H54      1.0000 0.61610  0.38710  0.00010  Biso   1.000  H
  H55      1.0000 0.57110  0.52870  0.82370  Biso   1.000  H
  H56      1.0000 0.51950  0.53660  0.84690  Biso   1.000  H
  H57      1.0000 0.57630  0.34950  0.82410  Biso   1.000  H
  H58      1.0000 0.61450  0.41560  0.83010  Biso   1.000  H
  H59      1.0000 0.46220  0.43140  0.84670  Biso   1.000  H
  H60      1.0000 0.49210  0.35850  0.85400  Biso   1.000  H
  H61      1.0000 0.80290  0.69510  0.57190  Biso   1.000  H
  H62      1.0000 0.73240  0.67320  0.54300  Biso   1.000  H
  H63      1.0000 0.86360  0.63560  0.73140  Biso   1.000  H
  H64      1.0000 0.79490  0.60510  0.70060  Biso   1.000  H
  H65      1.0000 0.71530  0.73570  0.63600  Biso   1.000  H
  H66      1.0000 0.71800  0.68030  0.71070  Biso   1.000  H
  H67      1.0000 0.71450  0.76590  0.79610  Biso   1.000  H
  H68      1.0000 0.71800  0.82140  0.72760  Biso   1.000  H
  H69      1.0000 0.88990  0.75690  0.77670  Biso   1.000  H
  H70      1.0000 0.81580  0.78640  0.68360  Biso   1.000  H
  H71      1.0000 0.83560  0.86430  0.80050  Biso   1.000  H
  H72      1.0000 0.90050  0.82340  0.89790  Biso   1.000  H
  H73      1.0000 0.83560  0.63440  0.87150  Biso   1.000  H
  H74      1.0000 0.90100  0.67520  0.90500  Biso   1.000  H
  H75      1.0000 0.88990  0.74020  0.00330  Biso   1.000  H
  H76      1.0000 0.81620  0.70970  0.94930  Biso   1.000  H
  H77      1.0000 0.86490  0.86530  0.99800  Biso   1.000  H
  H78      1.0000 0.79610  0.89640  0.89270  Biso   1.000  H
  H79      1.0000 0.73290  0.82610  0.92410  Biso   1.000  H
  H80      1.0000 0.80350  0.80330  0.03480  Biso   1.000  H
  N9       1.0000 0.54590  0.06340  0.23940  Biso   1.000  N
  N10      1.0000 0.95410  0.93630  0.64650  Biso   1.000  N
  O17      1.0000 0.65430  0.99050  0.08350  Biso   1.000  O
  O18      1.0000 0.70590  0.06470  0.21820  Biso   1.000  O
  C49      1.0000 0.65510  0.02930  0.14720  Biso   1.000  C
  C50      1.0000 0.58960  0.02860  0.13560  Biso   1.000  C
  C51      1.0000 0.60650  0.06620  0.23500  Biso   1.000  C
  C52      1.0000 0.53010  0.98970  0.24970  Biso   1.000  C
  C53      1.0000 0.57020  0.10230  0.33880  Biso   1.000  C
  C54      1.0000 0.48190  0.09480  0.14270  Biso   1.000  C
  O19      1.0000 0.84690  0.01090  0.27510  Biso   1.000  O
  O20      1.0000 0.79490  0.93670  0.30690  Biso   1.000  O
  C55      1.0000 0.84490  0.97270  0.33660  Biso   1.000  C
  C56      1.0000 0.90880  0.97120  0.45510  Biso   1.000  C
  C57      1.0000 0.89450  0.93470  0.52310  Biso   1.000  C
  C58      1.0000 0.96930  0.00920  0.69040  Biso   1.000  C
  C59      1.0000 0.92970  0.89740  0.69690  Biso   1.000  C
  C60      1.0000 0.01870  0.90370  0.67880  Biso   1.000  C
  O21      1.0000 0.76050  0.09620  0.08110  Biso   1.000  O
  O22      1.0000 0.68530  0.04590  0.92380  Biso   1.000  O
  C61      1.0000 0.72340  0.09580  0.98140  Biso   1.000  C
  C62      1.0000 0.72100  0.15860  0.92260  Biso   1.000  C
  C63      1.0000 0.68410  0.14540  0.80350  Biso   1.000  C
  N11      1.0000 0.68730  0.20340  0.74480  Biso   1.000  N
  C64      1.0000 0.75980  0.22060  0.79020  Biso   1.000  C
  C65      1.0000 0.76040  0.28070  0.72780  Biso   1.000  C
  C66      1.0000 0.65480  0.26710  0.74440  Biso   1.000  C
  C67      1.0000 0.64760  0.31970  0.66520  Biso   1.000  C
  C68      1.0000 0.64720  0.17900  0.62880  Biso   1.000  C
  C69      1.0000 0.65470  0.22940  0.56460  Biso   1.000  C
  N12      1.0000 0.68600  0.29700  0.62800  Biso   1.000  N
  C70      1.0000 0.68300  0.35590  0.56180  Biso   1.000  C
  C71      1.0000 0.72040  0.34020  0.51740  Biso   1.000  C
  C72      1.0000 0.72100  0.40460  0.46260  Biso   1.000  C
  O23      1.0000 0.75940  0.40400  0.43710  Biso   1.000  O
  O24      1.0000 0.68600  0.45500  0.44730  Biso   1.000  O
  Zn3      1.0000 0.75110  0.00040  0.12610  Biso   1.000  Zn
  H81      1.0000 0.55320  0.05300  0.07060  Biso   1.000  H
  H82      1.0000 0.57490  0.98190  0.13240  Biso   1.000  H
  H83      1.0000 0.64710  0.04520  0.29940  Biso   1.000  H
  H84      1.0000 0.61560  0.11420  0.23230  Biso   1.000  H
  H85      1.0000 0.57050  0.96930  0.31520  Biso   1.000  H
  H86      1.0000 0.51790  0.96270  0.18910  Biso   1.000  H
  H87      1.0000 0.57520  0.15030  0.32860  Biso   1.000  H
  H88      1.0000 0.61440  0.08510  0.40120  Biso   1.000  H
  H89      1.0000 0.46270  0.06760  0.07870  Biso   1.000  H
  H90      1.0000 0.49370  0.13970  0.13250  Biso   1.000  H
  H91      1.0000 0.92360  0.01780  0.48190  Biso   1.000  H
  H92      1.0000 0.94520  0.94680  0.46270  Biso   1.000  H
  H93      1.0000 0.85470  0.95650  0.50810  Biso   1.000  H
  H94      1.0000 0.88390  0.88710  0.49990  Biso   1.000  H
  H95      1.0000 0.92890  0.02870  0.67630  Biso   1.000  H
  H96      1.0000 0.98050  0.03660  0.65310  Biso   1.000  H
  H97      1.0000 0.92370  0.84950  0.67590  Biso   1.000  H
  H98      1.0000 0.88550  0.91560  0.66990  Biso   1.000  H
  H99      1.0000 0.03780  0.93140  0.65330  Biso   1.000  H
  H100     1.0000 0.00790  0.85850  0.64600  Biso   1.000  H
  H101     1.0000 0.69710  0.19510  0.92810  Biso   1.000  H
  H102     1.0000 0.76760  0.17320  0.95700  Biso   1.000  H
  H103     1.0000 0.63640  0.13560  0.76860  Biso   1.000  H
  H104     1.0000 0.70510  0.10510  0.79940  Biso   1.000  H
  H105     1.0000 0.78470  0.23570  0.86400  Biso   1.000  H
  H106     1.0000 0.78200  0.18030  0.78930  Biso   1.000  H
  H107     1.0000 0.78550  0.26590  0.70390  Biso   1.000  H
  H108     1.0000 0.78200  0.32140  0.77240  Biso   1.000  H
  H109     1.0000 0.61010  0.25690  0.72330  Biso   1.000  H
  H110     1.0000 0.68420  0.28640  0.81640  Biso   1.000  H
  H111     1.0000 0.66440  0.36430  0.69950  Biso   1.000  H
  H112     1.0000 0.59950  0.32340  0.60210  Biso   1.000  H
  H113     1.0000 0.66440  0.13440  0.62850  Biso   1.000  H
  H114     1.0000 0.59900  0.17520  0.59500  Biso   1.000  H
  H115     1.0000 0.61010  0.24020  0.49670  Biso   1.000  H
  H116     1.0000 0.68380  0.20970  0.55070  Biso   1.000  H
  H117     1.0000 0.63510  0.36530  0.50200  Biso   1.000  H
  H118     1.0000 0.70390  0.39640  0.60730  Biso   1.000  H
  H119     1.0000 0.76710  0.32610  0.57590  Biso   1.000  H
  H120     1.0000 0.69650  0.30330  0.46520  Biso   1.000  H
  N13      1.0000 0.04590  0.56340  0.23940  Biso   1.000  N
  N14      1.0000 0.45410  0.43630  0.64650  Biso   1.000  N
  O25      1.0000 0.15430  0.49050  0.08350  Biso   1.000  O
  O26      1.0000 0.20590  0.56470  0.21820  Biso   1.000  O
  C73      1.0000 0.15510  0.52930  0.14720  Biso   1.000  C
  C74      1.0000 0.08960  0.52860  0.13560  Biso   1.000  C
  C75      1.0000 0.10650  0.56620  0.23500  Biso   1.000  C
  C76      1.0000 0.03010  0.48970  0.24970  Biso   1.000  C
  C77      1.0000 0.07020  0.60230  0.33880  Biso   1.000  C
  C78      1.0000 0.98190  0.59480  0.14270  Biso   1.000  C
  O27      1.0000 0.34690  0.51090  0.27510  Biso   1.000  O
  O28      1.0000 0.29490  0.43670  0.30690  Biso   1.000  O
  C79      1.0000 0.34490  0.47270  0.33660  Biso   1.000  C
  C80      1.0000 0.40880  0.47120  0.45510  Biso   1.000  C
  C81      1.0000 0.39450  0.43470  0.52310  Biso   1.000  C
  C82      1.0000 0.46930  0.50920  0.69040  Biso   1.000  C
  C83      1.0000 0.42970  0.39740  0.69690  Biso   1.000  C
  C84      1.0000 0.51870  0.40370  0.67880  Biso   1.000  C
  O29      1.0000 0.26050  0.59620  0.08110  Biso   1.000  O
  O30      1.0000 0.18530  0.54590  0.92380  Biso   1.000  O
  C85      1.0000 0.22340  0.59580  0.98140  Biso   1.000  C
  C86      1.0000 0.22100  0.65860  0.92260  Biso   1.000  C
  C87      1.0000 0.18410  0.64540  0.80350  Biso   1.000  C
  N15      1.0000 0.18730  0.70340  0.74480  Biso   1.000  N
  C88      1.0000 0.25980  0.72060  0.79020  Biso   1.000  C
  C89      1.0000 0.26040  0.78070  0.72780  Biso   1.000  C
  C90      1.0000 0.15480  0.76710  0.74440  Biso   1.000  C
  C91      1.0000 0.14760  0.81970  0.66520  Biso   1.000  C
  C92      1.0000 0.14720  0.67900  0.62880  Biso   1.000  C
  C93      1.0000 0.15470  0.72940  0.56460  Biso   1.000  C
  N16      1.0000 0.18600  0.79700  0.62800  Biso   1.000  N
  C94      1.0000 0.18300  0.85590  0.56180  Biso   1.000  C
  C95      1.0000 0.22040  0.84020  0.51740  Biso   1.000  C
  C96      1.0000 0.22100  0.90460  0.46260  Biso   1.000  C
  O31      1.0000 0.25940  0.90400  0.43710  Biso   1.000  O
  O32      1.0000 0.18600  0.95500  0.44730  Biso   1.000  O
  Zn4      1.0000 0.25110  0.50040  0.12610  Biso   1.000  Zn
  H121     1.0000 0.05320  0.55300  0.07060  Biso   1.000  H
  H122     1.0000 0.07490  0.48190  0.13240  Biso   1.000  H
  H123     1.0000 0.14710  0.54520  0.29940  Biso   1.000  H
  H124     1.0000 0.11560  0.61420  0.23230  Biso   1.000  H
  H125     1.0000 0.07050  0.46930  0.31520  Biso   1.000  H
  H126     1.0000 0.01790  0.46270  0.18910  Biso   1.000  H
  H127     1.0000 0.07520  0.65030  0.32860  Biso   1.000  H
  H128     1.0000 0.11440  0.58510  0.40120  Biso   1.000  H
  H129     1.0000 0.96270  0.56760  0.07870  Biso   1.000  H
  H130     1.0000 0.99370  0.63970  0.13250  Biso   1.000  H
  H131     1.0000 0.42360  0.51780  0.48190  Biso   1.000  H
  H132     1.0000 0.44520  0.44680  0.46270  Biso   1.000  H
  H133     1.0000 0.35470  0.45650  0.50810  Biso   1.000  H
  H134     1.0000 0.38390  0.38710  0.49990  Biso   1.000  H
  H135     1.0000 0.42890  0.52870  0.67630  Biso   1.000  H
  H136     1.0000 0.48050  0.53660  0.65310  Biso   1.000  H
  H137     1.0000 0.42370  0.34950  0.67590  Biso   1.000  H
  H138     1.0000 0.38550  0.41560  0.66990  Biso   1.000  H
  H139     1.0000 0.53780  0.43140  0.65330  Biso   1.000  H
  H140     1.0000 0.50790  0.35850  0.64600  Biso   1.000  H
  H141     1.0000 0.19710  0.69510  0.92810  Biso   1.000  H
  H142     1.0000 0.26760  0.67320  0.95700  Biso   1.000  H
  H143     1.0000 0.13640  0.63560  0.76860  Biso   1.000  H
  H144     1.0000 0.20510  0.60510  0.79940  Biso   1.000  H
  H145     1.0000 0.28470  0.73570  0.86400  Biso   1.000  H
  H146     1.0000 0.28200  0.68030  0.78930  Biso   1.000  H
  H147     1.0000 0.28550  0.76590  0.70390  Biso   1.000  H
  H148     1.0000 0.28200  0.82140  0.77240  Biso   1.000  H
  H149     1.0000 0.11010  0.75690  0.72330  Biso   1.000  H
  H150     1.0000 0.18420  0.78640  0.81640  Biso   1.000  H
  H151     1.0000 0.16440  0.86430  0.69950  Biso   1.000  H
  H152     1.0000 0.09950  0.82340  0.60210  Biso   1.000  H
  H153     1.0000 0.16440  0.63440  0.62850  Biso   1.000  H
  H154     1.0000 0.09900  0.67520  0.59500  Biso   1.000  H
  H155     1.0000 0.11010  0.74020  0.49670  Biso   1.000  H
  H156     1.0000 0.18380  0.70970  0.55070  Biso   1.000  H
  H157     1.0000 0.13510  0.86530  0.50200  Biso   1.000  H
  H158     1.0000 0.20390  0.89640  0.60730  Biso   1.000  H
  H159     1.0000 0.26710  0.82610  0.57590  Biso   1.000  H
  H160     1.0000 0.19650  0.80330  0.46520  Biso   1.000  H
  N17      1.0000 0.54590  0.93660  0.73940  Biso   1.000  N
  N18      1.0000 0.95410  0.06370  0.14650  Biso   1.000  N
  O33      1.0000 0.65430  0.00950  0.58350  Biso   1.000  O
  O34      1.0000 0.70590  0.93530  0.71820  Biso   1.000  O
  C97      1.0000 0.65510  0.97070  0.64720  Biso   1.000  C
  C98      1.0000 0.58960  0.97140  0.63560  Biso   1.000  C
  C99      1.0000 0.60650  0.93380  0.73500  Biso   1.000  C
  C100     1.0000 0.53010  0.01030  0.74970  Biso   1.000  C
  C101     1.0000 0.57020  0.89770  0.83880  Biso   1.000  C
  C102     1.0000 0.48190  0.90520  0.64270  Biso   1.000  C
  O35      1.0000 0.84690  0.98910  0.77510  Biso   1.000  O
  O36      1.0000 0.79490  0.06330  0.80690  Biso   1.000  O
  C103     1.0000 0.84490  0.02730  0.83660  Biso   1.000  C
  C104     1.0000 0.90880  0.02880  0.95510  Biso   1.000  C
  C105     1.0000 0.89450  0.06530  0.02310  Biso   1.000  C
  C106     1.0000 0.96930  0.99080  0.19040  Biso   1.000  C
  C107     1.0000 0.92970  0.10260  0.19690  Biso   1.000  C
  C108     1.0000 0.01870  0.09630  0.17880  Biso   1.000  C
  O37      1.0000 0.76050  0.90380  0.58110  Biso   1.000  O
  O38      1.0000 0.68530  0.95410  0.42380  Biso   1.000  O
  C109     1.0000 0.72340  0.90420  0.48140  Biso   1.000  C
  C110     1.0000 0.72100  0.84140  0.42260  Biso   1.000  C
  C111     1.0000 0.68410  0.85460  0.30350  Biso   1.000  C
  N19      1.0000 0.68730  0.79660  0.24480  Biso   1.000  N
  C112     1.0000 0.75980  0.77940  0.29020  Biso   1.000  C
  C113     1.0000 0.76040  0.71930  0.22780  Biso   1.000  C
  C114     1.0000 0.65480  0.73290  0.24440  Biso   1.000  C
  C115     1.0000 0.64760  0.68030  0.16520  Biso   1.000  C
  C116     1.0000 0.64720  0.82100  0.12880  Biso   1.000  C
  C117     1.0000 0.65470  0.77060  0.06460  Biso   1.000  C
  N20      1.0000 0.68600  0.70300  0.12800  Biso   1.000  N
  C118     1.0000 0.68300  0.64410  0.06180  Biso   1.000  C
  C119     1.0000 0.72040  0.65980  0.01740  Biso   1.000  C
  C120     1.0000 0.72100  0.59540  0.96260  Biso   1.000  C
  O39      1.0000 0.75940  0.59600  0.93710  Biso   1.000  O
  O40      1.0000 0.68600  0.54500  0.94730  Biso   1.000  O
  Zn5      1.0000 0.75110  0.99960  0.62610  Biso   1.000  Zn
  H161     1.0000 0.55320  0.94700  0.57060  Biso   1.000  H
  H162     1.0000 0.57490  0.01810  0.63240  Biso   1.000  H
  H163     1.0000 0.64710  0.95480  0.79940  Biso   1.000  H
  H164     1.0000 0.61560  0.88580  0.73230  Biso   1.000  H
  H165     1.0000 0.57050  0.03070  0.81520  Biso   1.000  H
  H166     1.0000 0.51790  0.03730  0.68910  Biso   1.000  H
  H167     1.0000 0.57520  0.84970  0.82860  Biso   1.000  H
  H168     1.0000 0.61440  0.91490  0.90120  Biso   1.000  H
  H169     1.0000 0.46270  0.93240  0.57870  Biso   1.000  H
  H170     1.0000 0.49370  0.86030  0.63250  Biso   1.000  H
  H171     1.0000 0.92360  0.98220  0.98190  Biso   1.000  H
  H172     1.0000 0.94520  0.05320  0.96270  Biso   1.000  H
  H173     1.0000 0.85470  0.04350  0.00810  Biso   1.000  H
  H174     1.0000 0.88390  0.11290  0.99990  Biso   1.000  H
  H175     1.0000 0.92890  0.97130  0.17630  Biso   1.000  H
  H176     1.0000 0.98050  0.96340  0.15310  Biso   1.000  H
  H177     1.0000 0.92370  0.15050  0.17590  Biso   1.000  H
  H178     1.0000 0.88550  0.08440  0.16990  Biso   1.000  H
  H179     1.0000 0.03780  0.06860  0.15330  Biso   1.000  H
  H180     1.0000 0.00790  0.14150  0.14600  Biso   1.000  H
  H181     1.0000 0.69710  0.80490  0.42810  Biso   1.000  H
  H182     1.0000 0.76760  0.82680  0.45700  Biso   1.000  H
  H183     1.0000 0.63640  0.86440  0.26860  Biso   1.000  H
  H184     1.0000 0.70510  0.89490  0.29940  Biso   1.000  H
  H185     1.0000 0.78470  0.76430  0.36400  Biso   1.000  H
  H186     1.0000 0.78200  0.81970  0.28930  Biso   1.000  H
  H187     1.0000 0.78550  0.73410  0.20390  Biso   1.000  H
  H188     1.0000 0.78200  0.67860  0.27240  Biso   1.000  H
  H189     1.0000 0.61010  0.74310  0.22330  Biso   1.000  H
  H190     1.0000 0.68420  0.71360  0.31640  Biso   1.000  H
  H191     1.0000 0.66440  0.63570  0.19950  Biso   1.000  H
  H192     1.0000 0.59950  0.67660  0.10210  Biso   1.000  H
  H193     1.0000 0.66440  0.86560  0.12850  Biso   1.000  H
  H194     1.0000 0.59900  0.82480  0.09500  Biso   1.000  H
  H195     1.0000 0.61010  0.75980  0.99670  Biso   1.000  H
  H196     1.0000 0.68380  0.79030  0.05070  Biso   1.000  H
  H197     1.0000 0.63510  0.63470  0.00200  Biso   1.000  H
  H198     1.0000 0.70390  0.60360  0.10730  Biso   1.000  H
  H199     1.0000 0.76710  0.67390  0.07590  Biso   1.000  H
  H200     1.0000 0.69650  0.69670  0.96520  Biso   1.000  H
  N21      1.0000 0.04590  0.43660  0.73940  Biso   1.000  N
  N22      1.0000 0.45410  0.56370  0.14650  Biso   1.000  N
  O41      1.0000 0.15430  0.50950  0.58350  Biso   1.000  O
  O42      1.0000 0.20590  0.43530  0.71820  Biso   1.000  O
  C121     1.0000 0.15510  0.47070  0.64720  Biso   1.000  C
  C122     1.0000 0.08960  0.47140  0.63560  Biso   1.000  C
  C123     1.0000 0.10650  0.43380  0.73500  Biso   1.000  C
  C124     1.0000 0.03010  0.51030  0.74970  Biso   1.000  C
  C125     1.0000 0.07020  0.39770  0.83880  Biso   1.000  C
  C126     1.0000 0.98190  0.40520  0.64270  Biso   1.000  C
  O43      1.0000 0.34690  0.48910  0.77510  Biso   1.000  O
  O44      1.0000 0.29490  0.56330  0.80690  Biso   1.000  O
  C127     1.0000 0.34490  0.52730  0.83660  Biso   1.000  C
  C128     1.0000 0.40880  0.52880  0.95510  Biso   1.000  C
  C129     1.0000 0.39450  0.56530  0.02310  Biso   1.000  C
  C130     1.0000 0.46930  0.49080  0.19040  Biso   1.000  C
  C131     1.0000 0.42970  0.60260  0.19690  Biso   1.000  C
  C132     1.0000 0.51870  0.59630  0.17880  Biso   1.000  C
  O45      1.0000 0.26050  0.40380  0.58110  Biso   1.000  O
  O46      1.0000 0.18530  0.45410  0.42380  Biso   1.000  O
  C133     1.0000 0.22340  0.40420  0.48140  Biso   1.000  C
  C134     1.0000 0.22100  0.34140  0.42260  Biso   1.000  C
  C135     1.0000 0.18410  0.35460  0.30350  Biso   1.000  C
  N23      1.0000 0.18730  0.29660  0.24480  Biso   1.000  N
  C136     1.0000 0.25980  0.27940  0.29020  Biso   1.000  C
  C137     1.0000 0.26040  0.21930  0.22780  Biso   1.000  C
  C138     1.0000 0.15480  0.23290  0.24440  Biso   1.000  C
  C139     1.0000 0.14760  0.18030  0.16520  Biso   1.000  C
  C140     1.0000 0.14720  0.32100  0.12880  Biso   1.000  C
  C141     1.0000 0.15470  0.27060  0.06460  Biso   1.000  C
  N24      1.0000 0.18600  0.20300  0.12800  Biso   1.000  N
  C142     1.0000 0.18300  0.14410  0.06180  Biso   1.000  C
  C143     1.0000 0.22040  0.15980  0.01740  Biso   1.000  C
  C144     1.0000 0.22100  0.09540  0.96260  Biso   1.000  C
  O47      1.0000 0.25940  0.09600  0.93710  Biso   1.000  O
  O48      1.0000 0.18600  0.04500  0.94730  Biso   1.000  O
  Zn6      1.0000 0.25110  0.49960  0.62610  Biso   1.000  Zn
  H201     1.0000 0.05320  0.44700  0.57060  Biso   1.000  H
  H202     1.0000 0.07490  0.51810  0.63240  Biso   1.000  H
  H203     1.0000 0.14710  0.45480  0.79940  Biso   1.000  H
  H204     1.0000 0.11560  0.38580  0.73230  Biso   1.000  H
  H205     1.0000 0.07050  0.53070  0.81520  Biso   1.000  H
  H206     1.0000 0.01790  0.53730  0.68910  Biso   1.000  H
  H207     1.0000 0.07520  0.34970  0.82860  Biso   1.000  H
  H208     1.0000 0.11440  0.41490  0.90120  Biso   1.000  H
  H209     1.0000 0.96270  0.43240  0.57870  Biso   1.000  H
  H210     1.0000 0.99370  0.36030  0.63250  Biso   1.000  H
  H211     1.0000 0.42360  0.48220  0.98190  Biso   1.000  H
  H212     1.0000 0.44520  0.55320  0.96270  Biso   1.000  H
  H213     1.0000 0.35470  0.54350  0.00810  Biso   1.000  H
  H214     1.0000 0.38390  0.61290  0.99990  Biso   1.000  H
  H215     1.0000 0.42890  0.47130  0.17630  Biso   1.000  H
  H216     1.0000 0.48050  0.46340  0.15310  Biso   1.000  H
  H217     1.0000 0.42370  0.65050  0.17590  Biso   1.000  H
  H218     1.0000 0.38550  0.58440  0.16990  Biso   1.000  H
  H219     1.0000 0.53780  0.56860  0.15330  Biso   1.000  H
  H220     1.0000 0.50790  0.64150  0.14600  Biso   1.000  H
  H221     1.0000 0.19710  0.30490  0.42810  Biso   1.000  H
  H222     1.0000 0.26760  0.32680  0.45700  Biso   1.000  H
  H223     1.0000 0.13640  0.36440  0.26860  Biso   1.000  H
  H224     1.0000 0.20510  0.39490  0.29940  Biso   1.000  H
  H225     1.0000 0.28470  0.26430  0.36400  Biso   1.000  H
  H226     1.0000 0.28200  0.31970  0.28930  Biso   1.000  H
  H227     1.0000 0.28550  0.23410  0.20390  Biso   1.000  H
  H228     1.0000 0.28200  0.17860  0.27240  Biso   1.000  H
  H229     1.0000 0.11010  0.24310  0.22330  Biso   1.000  H
  H230     1.0000 0.18420  0.21360  0.31640  Biso   1.000  H
  H231     1.0000 0.16440  0.13570  0.19950  Biso   1.000  H
  H232     1.0000 0.09950  0.17660  0.10210  Biso   1.000  H
  H233     1.0000 0.16440  0.36560  0.12850  Biso   1.000  H
  H234     1.0000 0.09900  0.32480  0.09500  Biso   1.000  H
  H235     1.0000 0.11010  0.25980  0.99670  Biso   1.000  H
  H236     1.0000 0.18380  0.29030  0.05070  Biso   1.000  H
  H237     1.0000 0.13510  0.13470  0.00200  Biso   1.000  H
  H238     1.0000 0.20390  0.10360  0.10730  Biso   1.000  H
  H239     1.0000 0.26710  0.17390  0.07590  Biso   1.000  H
  H240     1.0000 0.19650  0.19670  0.96520  Biso   1.000  H
  N25      1.0000 0.45410  0.93660  0.76060  Biso   1.000  N
  N26      1.0000 0.04590  0.06370  0.35350  Biso   1.000  N
  O49      1.0000 0.34570  0.00950  0.91650  Biso   1.000  O
  O50      1.0000 0.29410  0.93530  0.78180  Biso   1.000  O
  C145     1.0000 0.34490  0.97070  0.85280  Biso   1.000  C
  C146     1.0000 0.41040  0.97140  0.86440  Biso   1.000  C
  C147     1.0000 0.39350  0.93380  0.76500  Biso   1.000  C
  C148     1.0000 0.46990  0.01030  0.75030  Biso   1.000  C
  C149     1.0000 0.42980  0.89770  0.66120  Biso   1.000  C
  C150     1.0000 0.51810  0.90520  0.85730  Biso   1.000  C
  O51      1.0000 0.15310  0.98910  0.72490  Biso   1.000  O
  O52      1.0000 0.20510  0.06330  0.69310  Biso   1.000  O
  C151     1.0000 0.15510  0.02730  0.66340  Biso   1.000  C
  C152     1.0000 0.09120  0.02880  0.54490  Biso   1.000  C
  C153     1.0000 0.10550  0.06530  0.47690  Biso   1.000  C
  C154     1.0000 0.03070  0.99080  0.30960  Biso   1.000  C
  C155     1.0000 0.07030  0.10260  0.30310  Biso   1.000  C
  C156     1.0000 0.98130  0.09630  0.32120  Biso   1.000  C
  O53      1.0000 0.23950  0.90380  0.91890  Biso   1.000  O
  O54      1.0000 0.31470  0.95410  0.07620  Biso   1.000  O
  C157     1.0000 0.27660  0.90420  0.01860  Biso   1.000  C
  C158     1.0000 0.27900  0.84140  0.07740  Biso   1.000  C
  C159     1.0000 0.31590  0.85460  0.19650  Biso   1.000  C
  N27      1.0000 0.31270  0.79660  0.25520  Biso   1.000  N
  C160     1.0000 0.24020  0.77940  0.20980  Biso   1.000  C
  C161     1.0000 0.23960  0.71930  0.27220  Biso   1.000  C
  C162     1.0000 0.34520  0.73290  0.25560  Biso   1.000  C
  C163     1.0000 0.35240  0.68030  0.33480  Biso   1.000  C
  C164     1.0000 0.35280  0.82100  0.37120  Biso   1.000  C
  C165     1.0000 0.34530  0.77060  0.43540  Biso   1.000  C
  N28      1.0000 0.31400  0.70300  0.37200  Biso   1.000  N
  C166     1.0000 0.31700  0.64410  0.43820  Biso   1.000  C
  C167     1.0000 0.27960  0.65980  0.48260  Biso   1.000  C
  C168     1.0000 0.27900  0.59540  0.53740  Biso   1.000  C
  O55      1.0000 0.24060  0.59600  0.56290  Biso   1.000  O
  O56      1.0000 0.31400  0.54500  0.55270  Biso   1.000  O
  Zn7      1.0000 0.24890  0.99960  0.87390  Biso   1.000  Zn
  H241     1.0000 0.44680  0.94700  0.92940  Biso   1.000  H
  H242     1.0000 0.42510  0.01810  0.86760  Biso   1.000  H
  H243     1.0000 0.35290  0.95480  0.70060  Biso   1.000  H
  H244     1.0000 0.38440  0.88580  0.76770  Biso   1.000  H
  H245     1.0000 0.42950  0.03070  0.68480  Biso   1.000  H
  H246     1.0000 0.48210  0.03730  0.81090  Biso   1.000  H
  H247     1.0000 0.42480  0.84970  0.67140  Biso   1.000  H
  H248     1.0000 0.38560  0.91490  0.59880  Biso   1.000  H
  H249     1.0000 0.53730  0.93240  0.92130  Biso   1.000  H
  H250     1.0000 0.50630  0.86030  0.86750  Biso   1.000  H
  H251     1.0000 0.07640  0.98220  0.51810  Biso   1.000  H
  H252     1.0000 0.05480  0.05320  0.53730  Biso   1.000  H
  H253     1.0000 0.14530  0.04350  0.49190  Biso   1.000  H
  H254     1.0000 0.11610  0.11290  0.50010  Biso   1.000  H
  H255     1.0000 0.07110  0.97130  0.32370  Biso   1.000  H
  H256     1.0000 0.01950  0.96340  0.34690  Biso   1.000  H
  H257     1.0000 0.07630  0.15050  0.32410  Biso   1.000  H
  H258     1.0000 0.11450  0.08440  0.33010  Biso   1.000  H
  H259     1.0000 0.96220  0.06860  0.34670  Biso   1.000  H
  H260     1.0000 0.99210  0.14150  0.35400  Biso   1.000  H
  H261     1.0000 0.30290  0.80490  0.07190  Biso   1.000  H
  H262     1.0000 0.23240  0.82680  0.04300  Biso   1.000  H
  H263     1.0000 0.36360  0.86440  0.23140  Biso   1.000  H
  H264     1.0000 0.29490  0.89490  0.20060  Biso   1.000  H
  H265     1.0000 0.21530  0.76430  0.13600  Biso   1.000  H
  H266     1.0000 0.21800  0.81970  0.21070  Biso   1.000  H
  H267     1.0000 0.21450  0.73410  0.29610  Biso   1.000  H
  H268     1.0000 0.21800  0.67860  0.22760  Biso   1.000  H
  H269     1.0000 0.38990  0.74310  0.27670  Biso   1.000  H
  H270     1.0000 0.31580  0.71360  0.18360  Biso   1.000  H
  H271     1.0000 0.33560  0.63570  0.30050  Biso   1.000  H
  H272     1.0000 0.40050  0.67660  0.39790  Biso   1.000  H
  H273     1.0000 0.33560  0.86560  0.37150  Biso   1.000  H
  H274     1.0000 0.40100  0.82480  0.40500  Biso   1.000  H
  H275     1.0000 0.38990  0.75980  0.50330  Biso   1.000  H
  H276     1.0000 0.31620  0.79030  0.44930  Biso   1.000  H
  H277     1.0000 0.36490  0.63470  0.49800  Biso   1.000  H
  H278     1.0000 0.29610  0.60360  0.39270  Biso   1.000  H
  H279     1.0000 0.23290  0.67390  0.42410  Biso   1.000  H
  H280     1.0000 0.30350  0.69670  0.53480  Biso   1.000  H
  N29      1.0000 0.95410  0.43660  0.76060  Biso   1.000  N
  N30      1.0000 0.54590  0.56370  0.35350  Biso   1.000  N
  O57      1.0000 0.84570  0.50950  0.91650  Biso   1.000  O
  O58      1.0000 0.79410  0.43530  0.78180  Biso   1.000  O
  C169     1.0000 0.84490  0.47070  0.85280  Biso   1.000  C
  C170     1.0000 0.91040  0.47140  0.86440  Biso   1.000  C
  C171     1.0000 0.89350  0.43380  0.76500  Biso   1.000  C
  C172     1.0000 0.96990  0.51030  0.75030  Biso   1.000  C
  C173     1.0000 0.92980  0.39770  0.66120  Biso   1.000  C
  C174     1.0000 0.01810  0.40520  0.85730  Biso   1.000  C
  O59      1.0000 0.65310  0.48910  0.72490  Biso   1.000  O
  O60      1.0000 0.70510  0.56330  0.69310  Biso   1.000  O
  C175     1.0000 0.65510  0.52730  0.66340  Biso   1.000  C
  C176     1.0000 0.59120  0.52880  0.54490  Biso   1.000  C
  C177     1.0000 0.60550  0.56530  0.47690  Biso   1.000  C
  C178     1.0000 0.53070  0.49080  0.30960  Biso   1.000  C
  C179     1.0000 0.57030  0.60260  0.30310  Biso   1.000  C
  C180     1.0000 0.48130  0.59630  0.32120  Biso   1.000  C
  O61      1.0000 0.73950  0.40380  0.91890  Biso   1.000  O
  O62      1.0000 0.81470  0.45410  0.07620  Biso   1.000  O
  C181     1.0000 0.77660  0.40420  0.01860  Biso   1.000  C
  C182     1.0000 0.77900  0.34140  0.07740  Biso   1.000  C
  C183     1.0000 0.81590  0.35460  0.19650  Biso   1.000  C
  N31      1.0000 0.81270  0.29660  0.25520  Biso   1.000  N
  C184     1.0000 0.74020  0.27940  0.20980  Biso   1.000  C
  C185     1.0000 0.73960  0.21930  0.27220  Biso   1.000  C
  C186     1.0000 0.84520  0.23290  0.25560  Biso   1.000  C
  C187     1.0000 0.85240  0.18030  0.33480  Biso   1.000  C
  C188     1.0000 0.85280  0.32100  0.37120  Biso   1.000  C
  C189     1.0000 0.84530  0.27060  0.43540  Biso   1.000  C
  N32      1.0000 0.81400  0.20300  0.37200  Biso   1.000  N
  C190     1.0000 0.81700  0.14410  0.43820  Biso   1.000  C
  C191     1.0000 0.77960  0.15980  0.48260  Biso   1.000  C
  C192     1.0000 0.77900  0.09540  0.53740  Biso   1.000  C
  O63      1.0000 0.74060  0.09600  0.56290  Biso   1.000  O
  O64      1.0000 0.81400  0.04500  0.55270  Biso   1.000  O
  Zn8      1.0000 0.74890  0.49960  0.87390  Biso   1.000  Zn
  H281     1.0000 0.94680  0.44700  0.92940  Biso   1.000  H
  H282     1.0000 0.92510  0.51810  0.86760  Biso   1.000  H
  H283     1.0000 0.85290  0.45480  0.70060  Biso   1.000  H
  H284     1.0000 0.88440  0.38580  0.76770  Biso   1.000  H
  H285     1.0000 0.92950  0.53070  0.68480  Biso   1.000  H
  H286     1.0000 0.98210  0.53730  0.81090  Biso   1.000  H
  H287     1.0000 0.92480  0.34970  0.67140  Biso   1.000  H
  H288     1.0000 0.88560  0.41490  0.59880  Biso   1.000  H
  H289     1.0000 0.03730  0.43240  0.92130  Biso   1.000  H
  H290     1.0000 0.00630  0.36030  0.86750  Biso   1.000  H
  H291     1.0000 0.57640  0.48220  0.51810  Biso   1.000  H
  H292     1.0000 0.55480  0.55320  0.53730  Biso   1.000  H
  H293     1.0000 0.64530  0.54350  0.49190  Biso   1.000  H
  H294     1.0000 0.61610  0.61290  0.50010  Biso   1.000  H
  H295     1.0000 0.57110  0.47130  0.32370  Biso   1.000  H
  H296     1.0000 0.51950  0.46340  0.34690  Biso   1.000  H
  H297     1.0000 0.57630  0.65050  0.32410  Biso   1.000  H
  H298     1.0000 0.61450  0.58440  0.33010  Biso   1.000  H
  H299     1.0000 0.46220  0.56860  0.34670  Biso   1.000  H
  H300     1.0000 0.49210  0.64150  0.35400  Biso   1.000  H
  H301     1.0000 0.80290  0.30490  0.07190  Biso   1.000  H
  H302     1.0000 0.73240  0.32680  0.04300  Biso   1.000  H
  H303     1.0000 0.86360  0.36440  0.23140  Biso   1.000  H
  H304     1.0000 0.79490  0.39490  0.20060  Biso   1.000  H
  H305     1.0000 0.71530  0.26430  0.13600  Biso   1.000  H
  H306     1.0000 0.71800  0.31970  0.21070  Biso   1.000  H
  H307     1.0000 0.71450  0.23410  0.29610  Biso   1.000  H
  H308     1.0000 0.71800  0.17860  0.22760  Biso   1.000  H
  H309     1.0000 0.88990  0.24310  0.27670  Biso   1.000  H
  H310     1.0000 0.81580  0.21360  0.18360  Biso   1.000  H
  H311     1.0000 0.83560  0.13570  0.30050  Biso   1.000  H
  H312     1.0000 0.90050  0.17660  0.39790  Biso   1.000  H
  H313     1.0000 0.83560  0.36560  0.37150  Biso   1.000  H
  H314     1.0000 0.90100  0.32480  0.40500  Biso   1.000  H
  H315     1.0000 0.88990  0.25980  0.50330  Biso   1.000  H
  H316     1.0000 0.81620  0.29030  0.44930  Biso   1.000  H
  H317     1.0000 0.86490  0.13470  0.49800  Biso   1.000  H
  H318     1.0000 0.79610  0.10360  0.39270  Biso   1.000  H
  H319     1.0000 0.73290  0.17390  0.42410  Biso   1.000  H
  H320     1.0000 0.80350  0.19670  0.53480  Biso   1.000  H
