data_image0
_cell_length_a       5.305
_cell_length_b       9.296
_cell_length_c       15.474
_cell_angle_alpha    86.462
_cell_angle_beta     86.42
_cell_angle_gamma    78.906

_symmetry_space_group_name_H-M    "P 1"
_symmetry_int_tables_number       1

loop_
  _symmetry_equiv_pos_as_xyz
  'x, y, z'

loop_
  _atom_site_label
  _atom_site_occupancy
  _atom_site_fract_x
  _atom_site_fract_y
  _atom_site_fract_z
  _atom_site_thermal_displace_type
  _atom_site_B_iso_or_equiv
  _atom_site_type_symbol
  Zn1      1.0000 0.77560  0.61900  0.26355  Biso   1.000  Zn
  Zn2      1.0000 0.27790  0.55550  0.39633  Biso   1.000  Zn
  Zn3      1.0000 0.20570  0.57550  0.09975  Biso   1.000  Zn
  Zn4      1.0000 0.01540  0.15090  0.25745  Biso   1.000  Zn
  P1       1.0000 0.76210  0.39560  0.11850  Biso   1.000  P
  P2       1.0000 0.82730  0.36320  0.40730  Biso   1.000  P
  P3       1.0000 0.21210  0.79600  0.24050  Biso   1.000  P
  O1       1.0000 0.10000  0.67370  0.29820  Biso   1.000  O
  O2       1.0000 0.89000  0.51480  0.15750  Biso   1.000  O
  O3       1.0000 0.64900  0.49640  0.36060  Biso   1.000  O
  O4       1.0000 0.49200  0.78050  0.25930  Biso   1.000  O
  O5       1.0000 0.10100  0.39130  0.40200  Biso   1.000  O
  O6       1.0000 0.28200  0.65650  0.50010  Biso   1.000  O
  O7       1.0000 0.47600  0.42850  0.15040  Biso   1.000  O
  O8       1.0000 0.17700  0.76860  0.14510  Biso   1.000  O
  O9       1.0000 0.20600  0.59160  0.97870  Biso   1.000  O
  O10      1.0000 0.81500  0.22340  0.36070  Biso   1.000  O
  O11      1.0000 0.06000  0.94380  0.26510  Biso   1.000  O
  O12      1.0000 0.88400  0.24450  0.15140  Biso   1.000  O
  Zn5      1.0000 0.22440  0.38100  0.73645  Biso   1.000  Zn
  Zn6      1.0000 0.72210  0.44450  0.60367  Biso   1.000  Zn
  Zn7      1.0000 0.79430  0.42450  0.90025  Biso   1.000  Zn
  Zn8      1.0000 0.98460  0.84910  0.74255  Biso   1.000  Zn
  P4       1.0000 0.23790  0.60440  0.88150  Biso   1.000  P
  P5       1.0000 0.17270  0.63680  0.59270  Biso   1.000  P
  P6       1.0000 0.78790  0.20400  0.75950  Biso   1.000  P
  O13      1.0000 0.90000  0.32630  0.70180  Biso   1.000  O
  O14      1.0000 0.11000  0.48520  0.84250  Biso   1.000  O
  O15      1.0000 0.35100  0.50360  0.63940  Biso   1.000  O
  O16      1.0000 0.50800  0.21950  0.74070  Biso   1.000  O
  O17      1.0000 0.89900  0.60870  0.59800  Biso   1.000  O
  O18      1.0000 0.71800  0.34350  0.49990  Biso   1.000  O
  O19      1.0000 0.52400  0.57150  0.84960  Biso   1.000  O
  O20      1.0000 0.82300  0.23140  0.85490  Biso   1.000  O
  O21      1.0000 0.79400  0.40840  0.02130  Biso   1.000  O
  O22      1.0000 0.18500  0.77660  0.63930  Biso   1.000  O
  O23      1.0000 0.94000  0.05620  0.73490  Biso   1.000  O
  O24      1.0000 0.11600  0.75550  0.84860  Biso   1.000  O
