data_image0
_cell_length_a       10.979
_cell_length_b       16.6505
_cell_length_c       19.3795
_cell_angle_alpha    90
_cell_angle_beta     90
_cell_angle_gamma    90

_symmetry_space_group_name_H-M    "P 1"
_symmetry_int_tables_number       1

loop_
  _symmetry_equiv_pos_as_xyz
  'x, y, z'

loop_
  _atom_site_label
  _atom_site_occupancy
  _atom_site_fract_x
  _atom_site_fract_y
  _atom_site_fract_z
  _atom_site_thermal_displace_type
  _atom_site_B_iso_or_equiv
  _atom_site_type_symbol
  O1       1.0000 0.36900  0.85479  0.18412  Biso   1.000  O
  O2       1.0000 0.22330  0.84520  0.10727  Biso   1.000  O
  C1       1.0000 0.48100  0.17640  0.00290  Biso   1.000  C
  H1       1.0000 0.56780  0.18090  0.01150  Biso   1.000  H
  H2       1.0000 0.46920  0.17230  0.95340  Biso   1.000  H
  C2       1.0000 0.43330  0.10090  0.03720  Biso   1.000  C
  C3       1.0000 0.48140  0.07590  0.09950  Biso   1.000  C
  H3       1.0000 0.54030  0.10710  0.12120  Biso   1.000  H
  C4       1.0000 0.44330  0.00570  0.13000  Biso   1.000  C
  H4       1.0000 0.47840  0.98940  0.17140  Biso   1.000  H
  C5       1.0000 0.35450  0.95940  0.10028  Biso   1.000  C
  C6       1.0000 0.30400  0.98440  0.03700  Biso   1.000  C
  H5       1.0000 0.24340  0.95400  0.01600  Biso   1.000  H
  C7       1.0000 0.34470  0.05410  0.00620  Biso   1.000  C
  H6       1.0000 0.31210  0.06980  0.96400  Biso   1.000  H
  C8       1.0000 0.31330  0.88220  0.13210  Biso   1.000  C
  O3       1.0000 0.13100  0.14521  0.68412  Biso   1.000  O
  O4       1.0000 0.27670  0.15480  0.60727  Biso   1.000  O
  C9       1.0000 0.01900  0.82360  0.50290  Biso   1.000  C
  H7       1.0000 0.93220  0.81910  0.51150  Biso   1.000  H
  H8       1.0000 0.03080  0.82770  0.45340  Biso   1.000  H
  C10      1.0000 0.06670  0.89910  0.53720  Biso   1.000  C
  C11      1.0000 0.01860  0.92410  0.59950  Biso   1.000  C
  H9       1.0000 0.95970  0.89290  0.62120  Biso   1.000  H
  C12      1.0000 0.05670  0.99430  0.63000  Biso   1.000  C
  H10      1.0000 0.02160  0.01060  0.67140  Biso   1.000  H
  C13      1.0000 0.14550  0.04060  0.60028  Biso   1.000  C
  C14      1.0000 0.19600  0.01560  0.53700  Biso   1.000  C
  H11      1.0000 0.25660  0.04600  0.51600  Biso   1.000  H
  C15      1.0000 0.15530  0.94590  0.50620  Biso   1.000  C
  H12      1.0000 0.18790  0.93020  0.46400  Biso   1.000  H
  C16      1.0000 0.18670  0.11780  0.63210  Biso   1.000  C
  O5       1.0000 0.63100  0.35479  0.81588  Biso   1.000  O
  O6       1.0000 0.77670  0.34520  0.89273  Biso   1.000  O
  C17      1.0000 0.51900  0.67640  0.99710  Biso   1.000  C
  H13      1.0000 0.43220  0.68090  0.98850  Biso   1.000  H
  H14      1.0000 0.53080  0.67230  0.04660  Biso   1.000  H
  C18      1.0000 0.56670  0.60090  0.96280  Biso   1.000  C
  C19      1.0000 0.51860  0.57590  0.90050  Biso   1.000  C
  H15      1.0000 0.45970  0.60710  0.87880  Biso   1.000  H
  C20      1.0000 0.55670  0.50570  0.87000  Biso   1.000  C
  H16      1.0000 0.52160  0.48940  0.82860  Biso   1.000  H
  C21      1.0000 0.64550  0.45940  0.89972  Biso   1.000  C
  C22      1.0000 0.69600  0.48440  0.96300  Biso   1.000  C
  H17      1.0000 0.75660  0.45400  0.98400  Biso   1.000  H
  C23      1.0000 0.65530  0.55410  0.99380  Biso   1.000  C
  H18      1.0000 0.68790  0.56980  0.03600  Biso   1.000  H
  C24      1.0000 0.68670  0.38220  0.86790  Biso   1.000  C
  O7       1.0000 0.86900  0.64521  0.31588  Biso   1.000  O
  O8       1.0000 0.72330  0.65480  0.39273  Biso   1.000  O
  C25      1.0000 0.98100  0.32360  0.49710  Biso   1.000  C
  H19      1.0000 0.06780  0.31910  0.48850  Biso   1.000  H
  H20      1.0000 0.96920  0.32770  0.54660  Biso   1.000  H
  C26      1.0000 0.93330  0.39910  0.46280  Biso   1.000  C
  C27      1.0000 0.98140  0.42410  0.40050  Biso   1.000  C
  H21      1.0000 0.04030  0.39290  0.37880  Biso   1.000  H
  C28      1.0000 0.94330  0.49430  0.37000  Biso   1.000  C
  H22      1.0000 0.97840  0.51060  0.32860  Biso   1.000  H
  C29      1.0000 0.85450  0.54060  0.39972  Biso   1.000  C
  C30      1.0000 0.80400  0.51560  0.46300  Biso   1.000  C
  H23      1.0000 0.74340  0.54600  0.48400  Biso   1.000  H
  C31      1.0000 0.84470  0.44590  0.49380  Biso   1.000  C
  H24      1.0000 0.81210  0.43020  0.53600  Biso   1.000  H
  C32      1.0000 0.81330  0.61780  0.36790  Biso   1.000  C
  O9       1.0000 0.63100  0.14521  0.81588  Biso   1.000  O
  O10      1.0000 0.77670  0.15480  0.89273  Biso   1.000  O
  C33      1.0000 0.51900  0.82360  0.99710  Biso   1.000  C
  H25      1.0000 0.43220  0.81910  0.98850  Biso   1.000  H
  H26      1.0000 0.53080  0.82770  0.04660  Biso   1.000  H
  C34      1.0000 0.56670  0.89910  0.96280  Biso   1.000  C
  C35      1.0000 0.51860  0.92410  0.90050  Biso   1.000  C
  H27      1.0000 0.45970  0.89290  0.87880  Biso   1.000  H
  C36      1.0000 0.55670  0.99430  0.87000  Biso   1.000  C
  H28      1.0000 0.52160  0.01060  0.82860  Biso   1.000  H
  C37      1.0000 0.64550  0.04060  0.89972  Biso   1.000  C
  C38      1.0000 0.69600  0.01560  0.96300  Biso   1.000  C
  H29      1.0000 0.75660  0.04600  0.98400  Biso   1.000  H
  C39      1.0000 0.65530  0.94590  0.99380  Biso   1.000  C
  H30      1.0000 0.68790  0.93020  0.03600  Biso   1.000  H
  C40      1.0000 0.68670  0.11780  0.86790  Biso   1.000  C
  O11      1.0000 0.86900  0.85479  0.31588  Biso   1.000  O
  O12      1.0000 0.72330  0.84520  0.39273  Biso   1.000  O
  C41      1.0000 0.98100  0.17640  0.49710  Biso   1.000  C
  H31      1.0000 0.06780  0.18090  0.48850  Biso   1.000  H
  H32      1.0000 0.96920  0.17230  0.54660  Biso   1.000  H
  C42      1.0000 0.93330  0.10090  0.46280  Biso   1.000  C
  C43      1.0000 0.98140  0.07590  0.40050  Biso   1.000  C
  H33      1.0000 0.04030  0.10710  0.37880  Biso   1.000  H
  C44      1.0000 0.94330  0.00570  0.37000  Biso   1.000  C
  H34      1.0000 0.97840  0.98940  0.32860  Biso   1.000  H
  C45      1.0000 0.85450  0.95940  0.39972  Biso   1.000  C
  C46      1.0000 0.80400  0.98440  0.46300  Biso   1.000  C
  H35      1.0000 0.74340  0.95400  0.48400  Biso   1.000  H
  C47      1.0000 0.84470  0.05410  0.49380  Biso   1.000  C
  H36      1.0000 0.81210  0.06980  0.53600  Biso   1.000  H
  C48      1.0000 0.81330  0.88220  0.36790  Biso   1.000  C
  O13      1.0000 0.36900  0.64521  0.18412  Biso   1.000  O
  O14      1.0000 0.22330  0.65480  0.10727  Biso   1.000  O
  C49      1.0000 0.48100  0.32360  0.00290  Biso   1.000  C
  H37      1.0000 0.56780  0.31910  0.01150  Biso   1.000  H
  H38      1.0000 0.46920  0.32770  0.95340  Biso   1.000  H
  C50      1.0000 0.43330  0.39910  0.03720  Biso   1.000  C
  C51      1.0000 0.48140  0.42410  0.09950  Biso   1.000  C
  H39      1.0000 0.54030  0.39290  0.12120  Biso   1.000  H
  C52      1.0000 0.44330  0.49430  0.13000  Biso   1.000  C
  H40      1.0000 0.47840  0.51060  0.17140  Biso   1.000  H
  C53      1.0000 0.35450  0.54060  0.10028  Biso   1.000  C
  C54      1.0000 0.30400  0.51560  0.03700  Biso   1.000  C
  H41      1.0000 0.24340  0.54600  0.01600  Biso   1.000  H
  C55      1.0000 0.34470  0.44590  0.00620  Biso   1.000  C
  H42      1.0000 0.31210  0.43020  0.96400  Biso   1.000  H
  C56      1.0000 0.31330  0.61780  0.13210  Biso   1.000  C
  O15      1.0000 0.13100  0.35479  0.68412  Biso   1.000  O
  O16      1.0000 0.27670  0.34520  0.60727  Biso   1.000  O
  C57      1.0000 0.01900  0.67640  0.50290  Biso   1.000  C
  H43      1.0000 0.93220  0.68090  0.51150  Biso   1.000  H
  H44      1.0000 0.03080  0.67230  0.45340  Biso   1.000  H
  C58      1.0000 0.06670  0.60090  0.53720  Biso   1.000  C
  C59      1.0000 0.01860  0.57590  0.59950  Biso   1.000  C
  H45      1.0000 0.95970  0.60710  0.62120  Biso   1.000  H
  C60      1.0000 0.05670  0.50570  0.63000  Biso   1.000  C
  H46      1.0000 0.02160  0.48940  0.67140  Biso   1.000  H
  C61      1.0000 0.14550  0.45940  0.60028  Biso   1.000  C
  C62      1.0000 0.19600  0.48440  0.53700  Biso   1.000  C
  H47      1.0000 0.25660  0.45400  0.51600  Biso   1.000  H
  C63      1.0000 0.15530  0.55410  0.50620  Biso   1.000  C
  H48      1.0000 0.18790  0.56980  0.46400  Biso   1.000  H
  C64      1.0000 0.18670  0.38220  0.63210  Biso   1.000  C
  N1       1.0000 0.41860  0.25000  0.02880  Biso   1.000  N
  Eu1      1.0000 0.28799  0.25000  0.70364  Biso   1.000  Eu
  O17      1.0000 0.17960  0.25000  0.80552  Biso   1.000  O
  O18      1.0000 0.98570  0.25000  0.83470  Biso   1.000  O
  O19      1.0000 0.34850  0.25000  0.15380  Biso   1.000  O
  H49      1.0000 0.35720  0.25000  0.19580  Biso   1.000  H
  O20      1.0000 0.15140  0.25000  0.18140  Biso   1.000  O
  C65      1.0000 0.09630  0.25000  0.84880  Biso   1.000  C
  C66      1.0000 0.13080  0.25000  0.92350  Biso   1.000  C
  C67      1.0000 0.04320  0.25000  0.97490  Biso   1.000  C
  H50      1.0000 0.96100  0.25000  0.96330  Biso   1.000  H
  C68      1.0000 0.07830  0.25000  0.04360  Biso   1.000  C
  H51      1.0000 0.01910  0.25000  0.07790  Biso   1.000  H
  C69      1.0000 0.20190  0.25000  0.06210  Biso   1.000  C
  C70      1.0000 0.28790  0.25000  0.01020  Biso   1.000  C
  C71      1.0000 0.25300  0.25000  0.94120  Biso   1.000  C
  H52      1.0000 0.31210  0.25000  0.90670  Biso   1.000  H
  C72      1.0000 0.22950  0.25000  0.13850  Biso   1.000  C
  N2       1.0000 0.08140  0.75000  0.52880  Biso   1.000  N
  Eu2      1.0000 0.21201  0.75000  0.20364  Biso   1.000  Eu
  O21      1.0000 0.32040  0.75000  0.30552  Biso   1.000  O
  O22      1.0000 0.51430  0.75000  0.33470  Biso   1.000  O
  O23      1.0000 0.15150  0.75000  0.65380  Biso   1.000  O
  H53      1.0000 0.14280  0.75000  0.69580  Biso   1.000  H
  O24      1.0000 0.34860  0.75000  0.68140  Biso   1.000  O
  C73      1.0000 0.40370  0.75000  0.34880  Biso   1.000  C
  C74      1.0000 0.36920  0.75000  0.42350  Biso   1.000  C
  C75      1.0000 0.45680  0.75000  0.47490  Biso   1.000  C
  H54      1.0000 0.53900  0.75000  0.46330  Biso   1.000  H
  C76      1.0000 0.42170  0.75000  0.54360  Biso   1.000  C
  H55      1.0000 0.48090  0.75000  0.57790  Biso   1.000  H
  C77      1.0000 0.29810  0.75000  0.56210  Biso   1.000  C
  C78      1.0000 0.21210  0.75000  0.51020  Biso   1.000  C
  C79      1.0000 0.24700  0.75000  0.44120  Biso   1.000  C
  H56      1.0000 0.18790  0.75000  0.40670  Biso   1.000  H
  C80      1.0000 0.27050  0.75000  0.63850  Biso   1.000  C
  N3       1.0000 0.58140  0.75000  0.97120  Biso   1.000  N
  Eu3      1.0000 0.71201  0.75000  0.29636  Biso   1.000  Eu
  O25      1.0000 0.82040  0.75000  0.19448  Biso   1.000  O
  O26      1.0000 0.01430  0.75000  0.16530  Biso   1.000  O
  O27      1.0000 0.65150  0.75000  0.84620  Biso   1.000  O
  H57      1.0000 0.64280  0.75000  0.80420  Biso   1.000  H
  O28      1.0000 0.84860  0.75000  0.81860  Biso   1.000  O
  C81      1.0000 0.90370  0.75000  0.15120  Biso   1.000  C
  C82      1.0000 0.86920  0.75000  0.07650  Biso   1.000  C
  C83      1.0000 0.95680  0.75000  0.02510  Biso   1.000  C
  H58      1.0000 0.03900  0.75000  0.03670  Biso   1.000  H
  C84      1.0000 0.92170  0.75000  0.95640  Biso   1.000  C
  H59      1.0000 0.98090  0.75000  0.92210  Biso   1.000  H
  C85      1.0000 0.79810  0.75000  0.93790  Biso   1.000  C
  C86      1.0000 0.71210  0.75000  0.98980  Biso   1.000  C
  C87      1.0000 0.74700  0.75000  0.05880  Biso   1.000  C
  H60      1.0000 0.68790  0.75000  0.09330  Biso   1.000  H
  C88      1.0000 0.77050  0.75000  0.86150  Biso   1.000  C
  N4       1.0000 0.91860  0.25000  0.47120  Biso   1.000  N
  Eu4      1.0000 0.78799  0.25000  0.79636  Biso   1.000  Eu
  O29      1.0000 0.67960  0.25000  0.69448  Biso   1.000  O
  O30      1.0000 0.48570  0.25000  0.66530  Biso   1.000  O
  O31      1.0000 0.84850  0.25000  0.34620  Biso   1.000  O
  H61      1.0000 0.85720  0.25000  0.30420  Biso   1.000  H
  O32      1.0000 0.65140  0.25000  0.31860  Biso   1.000  O
  C89      1.0000 0.59630  0.25000  0.65120  Biso   1.000  C
  C90      1.0000 0.63080  0.25000  0.57650  Biso   1.000  C
  C91      1.0000 0.54320  0.25000  0.52510  Biso   1.000  C
  H62      1.0000 0.46100  0.25000  0.53670  Biso   1.000  H
  C92      1.0000 0.57830  0.25000  0.45640  Biso   1.000  C
  H63      1.0000 0.51910  0.25000  0.42210  Biso   1.000  H
  C93      1.0000 0.70190  0.25000  0.43790  Biso   1.000  C
  C94      1.0000 0.78790  0.25000  0.48980  Biso   1.000  C
  C95      1.0000 0.75300  0.25000  0.55880  Biso   1.000  C
  H64      1.0000 0.81210  0.25000  0.59330  Biso   1.000  H
  C96      1.0000 0.72950  0.25000  0.36150  Biso   1.000  C
