data_image0
_cell_length_a       10.902
_cell_length_b       16.715
_cell_length_c       19.201
_cell_angle_alpha    90
_cell_angle_beta     90
_cell_angle_gamma    90

_symmetry_space_group_name_H-M    "P 1"
_symmetry_int_tables_number       1

loop_
  _symmetry_equiv_pos_as_xyz
  'x, y, z'

loop_
  _atom_site_label
  _atom_site_occupancy
  _atom_site_fract_x
  _atom_site_fract_y
  _atom_site_fract_z
  _atom_site_thermal_displace_type
  _atom_site_B_iso_or_equiv
  _atom_site_type_symbol
  O1       1.0000 0.86510  0.85200  0.31350  Biso   1.000  O
  O2       1.0000 0.72010  0.84450  0.39320  Biso   1.000  O
  C1       1.0000 0.98600  0.17670  0.49110  Biso   1.000  C
  H1       1.0000 0.97480  0.17400  0.54120  Biso   1.000  H
  H2       1.0000 0.07330  0.18060  0.48180  Biso   1.000  H
  C2       1.0000 0.93540  0.10040  0.45760  Biso   1.000  C
  C3       1.0000 0.98040  0.07580  0.39330  Biso   1.000  C
  H3       1.0000 0.03850  0.10650  0.37010  Biso   1.000  H
  C4       1.0000 0.93770  0.00470  0.36400  Biso   1.000  C
  H4       1.0000 0.96650  0.98900  0.32050  Biso   1.000  H
  C5       1.0000 0.85360  0.95720  0.39830  Biso   1.000  C
  C6       1.0000 0.80820  0.98260  0.46280  Biso   1.000  C
  H5       1.0000 0.74990  0.95200  0.48600  Biso   1.000  H
  C7       1.0000 0.85080  0.05490  0.49280  Biso   1.000  C
  H6       1.0000 0.82170  0.07150  0.53600  Biso   1.000  H
  C8       1.0000 0.81220  0.88210  0.36760  Biso   1.000  C
  O3       1.0000 0.63490  0.14800  0.81350  Biso   1.000  O
  O4       1.0000 0.77990  0.15550  0.89320  Biso   1.000  O
  C9       1.0000 0.51400  0.82330  0.99110  Biso   1.000  C
  H7       1.0000 0.52520  0.82600  0.04120  Biso   1.000  H
  H8       1.0000 0.42670  0.81940  0.98180  Biso   1.000  H
  C10      1.0000 0.56460  0.89960  0.95760  Biso   1.000  C
  C11      1.0000 0.51960  0.92420  0.89330  Biso   1.000  C
  H9       1.0000 0.46150  0.89350  0.87010  Biso   1.000  H
  C12      1.0000 0.56230  0.99530  0.86400  Biso   1.000  C
  H10      1.0000 0.53350  0.01100  0.82050  Biso   1.000  H
  C13      1.0000 0.64640  0.04280  0.89830  Biso   1.000  C
  C14      1.0000 0.69180  0.01740  0.96280  Biso   1.000  C
  H11      1.0000 0.75010  0.04800  0.98600  Biso   1.000  H
  C15      1.0000 0.64920  0.94510  0.99280  Biso   1.000  C
  H12      1.0000 0.67830  0.92850  0.03600  Biso   1.000  H
  C16      1.0000 0.68780  0.11790  0.86760  Biso   1.000  C
  O5       1.0000 0.13490  0.35200  0.68650  Biso   1.000  O
  O6       1.0000 0.27990  0.34450  0.60680  Biso   1.000  O
  C17      1.0000 0.01400  0.67670  0.50890  Biso   1.000  C
  H13      1.0000 0.02520  0.67400  0.45880  Biso   1.000  H
  H14      1.0000 0.92670  0.68060  0.51820  Biso   1.000  H
  C18      1.0000 0.06460  0.60040  0.54240  Biso   1.000  C
  C19      1.0000 0.01960  0.57580  0.60670  Biso   1.000  C
  H15      1.0000 0.96150  0.60650  0.62990  Biso   1.000  H
  C20      1.0000 0.06230  0.50470  0.63600  Biso   1.000  C
  H16      1.0000 0.03350  0.48900  0.67950  Biso   1.000  H
  C21      1.0000 0.14640  0.45720  0.60170  Biso   1.000  C
  C22      1.0000 0.19180  0.48260  0.53720  Biso   1.000  C
  H17      1.0000 0.25010  0.45200  0.51400  Biso   1.000  H
  C23      1.0000 0.14920  0.55490  0.50720  Biso   1.000  C
  H18      1.0000 0.17830  0.57150  0.46400  Biso   1.000  H
  C24      1.0000 0.18780  0.38210  0.63240  Biso   1.000  C
  O7       1.0000 0.36510  0.64800  0.18650  Biso   1.000  O
  O8       1.0000 0.22010  0.65550  0.10680  Biso   1.000  O
  C25      1.0000 0.48600  0.32330  0.00890  Biso   1.000  C
  H19      1.0000 0.47480  0.32600  0.95880  Biso   1.000  H
  H20      1.0000 0.57330  0.31940  0.01820  Biso   1.000  H
  C26      1.0000 0.43540  0.39960  0.04240  Biso   1.000  C
  C27      1.0000 0.48040  0.42420  0.10670  Biso   1.000  C
  H21      1.0000 0.53850  0.39350  0.12990  Biso   1.000  H
  C28      1.0000 0.43770  0.49530  0.13600  Biso   1.000  C
  H22      1.0000 0.46650  0.51100  0.17950  Biso   1.000  H
  C29      1.0000 0.35360  0.54280  0.10170  Biso   1.000  C
  C30      1.0000 0.30820  0.51740  0.03720  Biso   1.000  C
  H23      1.0000 0.24990  0.54800  0.01400  Biso   1.000  H
  C31      1.0000 0.35080  0.44510  0.00720  Biso   1.000  C
  H24      1.0000 0.32170  0.42850  0.96400  Biso   1.000  H
  C32      1.0000 0.31220  0.61790  0.13240  Biso   1.000  C
  O9       1.0000 0.13490  0.14800  0.68650  Biso   1.000  O
  O10      1.0000 0.27990  0.15550  0.60680  Biso   1.000  O
  C33      1.0000 0.01400  0.82330  0.50890  Biso   1.000  C
  H25      1.0000 0.02520  0.82600  0.45880  Biso   1.000  H
  H26      1.0000 0.92670  0.81940  0.51820  Biso   1.000  H
  C34      1.0000 0.06460  0.89960  0.54240  Biso   1.000  C
  C35      1.0000 0.01960  0.92420  0.60670  Biso   1.000  C
  H27      1.0000 0.96150  0.89350  0.62990  Biso   1.000  H
  C36      1.0000 0.06230  0.99530  0.63600  Biso   1.000  C
  H28      1.0000 0.03350  0.01100  0.67950  Biso   1.000  H
  C37      1.0000 0.14640  0.04280  0.60170  Biso   1.000  C
  C38      1.0000 0.19180  0.01740  0.53720  Biso   1.000  C
  H29      1.0000 0.25010  0.04800  0.51400  Biso   1.000  H
  C39      1.0000 0.14920  0.94510  0.50720  Biso   1.000  C
  H30      1.0000 0.17830  0.92850  0.46400  Biso   1.000  H
  C40      1.0000 0.18780  0.11790  0.63240  Biso   1.000  C
  O11      1.0000 0.36510  0.85200  0.18650  Biso   1.000  O
  O12      1.0000 0.22010  0.84450  0.10680  Biso   1.000  O
  C41      1.0000 0.48600  0.17670  0.00890  Biso   1.000  C
  H31      1.0000 0.47480  0.17400  0.95880  Biso   1.000  H
  H32      1.0000 0.57330  0.18060  0.01820  Biso   1.000  H
  C42      1.0000 0.43540  0.10040  0.04240  Biso   1.000  C
  C43      1.0000 0.48040  0.07580  0.10670  Biso   1.000  C
  H33      1.0000 0.53850  0.10650  0.12990  Biso   1.000  H
  C44      1.0000 0.43770  0.00470  0.13600  Biso   1.000  C
  H34      1.0000 0.46650  0.98900  0.17950  Biso   1.000  H
  C45      1.0000 0.35360  0.95720  0.10170  Biso   1.000  C
  C46      1.0000 0.30820  0.98260  0.03720  Biso   1.000  C
  H35      1.0000 0.24990  0.95200  0.01400  Biso   1.000  H
  C47      1.0000 0.35080  0.05490  0.00720  Biso   1.000  C
  H36      1.0000 0.32170  0.07150  0.96400  Biso   1.000  H
  C48      1.0000 0.31220  0.88210  0.13240  Biso   1.000  C
  O13      1.0000 0.86510  0.64800  0.31350  Biso   1.000  O
  O14      1.0000 0.72010  0.65550  0.39320  Biso   1.000  O
  C49      1.0000 0.98600  0.32330  0.49110  Biso   1.000  C
  H37      1.0000 0.97480  0.32600  0.54120  Biso   1.000  H
  H38      1.0000 0.07330  0.31940  0.48180  Biso   1.000  H
  C50      1.0000 0.93540  0.39960  0.45760  Biso   1.000  C
  C51      1.0000 0.98040  0.42420  0.39330  Biso   1.000  C
  H39      1.0000 0.03850  0.39350  0.37010  Biso   1.000  H
  C52      1.0000 0.93770  0.49530  0.36400  Biso   1.000  C
  H40      1.0000 0.96650  0.51100  0.32050  Biso   1.000  H
  C53      1.0000 0.85360  0.54280  0.39830  Biso   1.000  C
  C54      1.0000 0.80820  0.51740  0.46280  Biso   1.000  C
  H41      1.0000 0.74990  0.54800  0.48600  Biso   1.000  H
  C55      1.0000 0.85080  0.44510  0.49280  Biso   1.000  C
  H42      1.0000 0.82170  0.42850  0.53600  Biso   1.000  H
  C56      1.0000 0.81220  0.61790  0.36760  Biso   1.000  C
  O15      1.0000 0.63490  0.35200  0.81350  Biso   1.000  O
  O16      1.0000 0.77990  0.34450  0.89320  Biso   1.000  O
  C57      1.0000 0.51400  0.67670  0.99110  Biso   1.000  C
  H43      1.0000 0.52520  0.67400  0.04120  Biso   1.000  H
  H44      1.0000 0.42670  0.68060  0.98180  Biso   1.000  H
  C58      1.0000 0.56460  0.60040  0.95760  Biso   1.000  C
  C59      1.0000 0.51960  0.57580  0.89330  Biso   1.000  C
  H45      1.0000 0.46150  0.60650  0.87010  Biso   1.000  H
  C60      1.0000 0.56230  0.50470  0.86400  Biso   1.000  C
  H46      1.0000 0.53350  0.48900  0.82050  Biso   1.000  H
  C61      1.0000 0.64640  0.45720  0.89830  Biso   1.000  C
  C62      1.0000 0.69180  0.48260  0.96280  Biso   1.000  C
  H47      1.0000 0.75010  0.45200  0.98600  Biso   1.000  H
  C63      1.0000 0.64920  0.55490  0.99280  Biso   1.000  C
  H48      1.0000 0.67830  0.57150  0.03600  Biso   1.000  H
  C64      1.0000 0.68780  0.38210  0.86760  Biso   1.000  C
  N1       1.0000 0.92250  0.25000  0.46330  Biso   1.000  N
  Tb1      1.0000 0.79233  0.25000  0.79635  Biso   1.000  Tb
  O17      1.0000 0.68920  0.25000  0.69410  Biso   1.000  O
  O18      1.0000 0.49000  0.25000  0.66400  Biso   1.000  O
  O19      1.0000 0.84950  0.25000  0.33830  Biso   1.000  O
  H49      1.0000 0.85440  0.25000  0.29570  Biso   1.000  H
  O20      1.0000 0.64790  0.25000  0.31490  Biso   1.000  O
  C65      1.0000 0.60650  0.25000  0.65140  Biso   1.000  C
  C66      1.0000 0.63500  0.25000  0.57150  Biso   1.000  C
  C67      1.0000 0.54440  0.25000  0.52290  Biso   1.000  C
  H50      1.0000 0.46210  0.25000  0.53580  Biso   1.000  H
  C68      1.0000 0.57870  0.25000  0.45440  Biso   1.000  C
  H51      1.0000 0.51830  0.25000  0.42030  Biso   1.000  H
  C69      1.0000 0.70200  0.25000  0.43420  Biso   1.000  C
  C70      1.0000 0.79160  0.25000  0.48590  Biso   1.000  C
  C71      1.0000 0.75790  0.25000  0.55360  Biso   1.000  C
  H52      1.0000 0.81750  0.25000  0.58830  Biso   1.000  H
  C72      1.0000 0.73030  0.25000  0.35730  Biso   1.000  C
  N2       1.0000 0.57750  0.75000  0.96330  Biso   1.000  N
  Tb2      1.0000 0.70767  0.75000  0.29635  Biso   1.000  Tb
  O21      1.0000 0.81080  0.75000  0.19410  Biso   1.000  O
  O22      1.0000 0.01000  0.75000  0.16400  Biso   1.000  O
  O23      1.0000 0.65050  0.75000  0.83830  Biso   1.000  O
  H53      1.0000 0.64560  0.75000  0.79570  Biso   1.000  H
  O24      1.0000 0.85210  0.75000  0.81490  Biso   1.000  O
  C73      1.0000 0.89350  0.75000  0.15140  Biso   1.000  C
  C74      1.0000 0.86500  0.75000  0.07150  Biso   1.000  C
  C75      1.0000 0.95560  0.75000  0.02290  Biso   1.000  C
  H54      1.0000 0.03790  0.75000  0.03580  Biso   1.000  H
  C76      1.0000 0.92130  0.75000  0.95440  Biso   1.000  C
  H55      1.0000 0.98170  0.75000  0.92030  Biso   1.000  H
  C77      1.0000 0.79800  0.75000  0.93420  Biso   1.000  C
  C78      1.0000 0.70840  0.75000  0.98590  Biso   1.000  C
  C79      1.0000 0.74210  0.75000  0.05360  Biso   1.000  C
  H56      1.0000 0.68250  0.75000  0.08830  Biso   1.000  H
  C80      1.0000 0.76970  0.75000  0.85730  Biso   1.000  C
  N3       1.0000 0.07750  0.75000  0.53670  Biso   1.000  N
  Tb3      1.0000 0.20767  0.75000  0.20365  Biso   1.000  Tb
  O25      1.0000 0.31080  0.75000  0.30590  Biso   1.000  O
  O26      1.0000 0.51000  0.75000  0.33600  Biso   1.000  O
  O27      1.0000 0.15050  0.75000  0.66170  Biso   1.000  O
  H57      1.0000 0.14560  0.75000  0.70430  Biso   1.000  H
  O28      1.0000 0.35210  0.75000  0.68510  Biso   1.000  O
  C81      1.0000 0.39350  0.75000  0.34860  Biso   1.000  C
  C82      1.0000 0.36500  0.75000  0.42850  Biso   1.000  C
  C83      1.0000 0.45560  0.75000  0.47710  Biso   1.000  C
  H58      1.0000 0.53790  0.75000  0.46420  Biso   1.000  H
  C84      1.0000 0.42130  0.75000  0.54560  Biso   1.000  C
  H59      1.0000 0.48170  0.75000  0.57970  Biso   1.000  H
  C85      1.0000 0.29800  0.75000  0.56580  Biso   1.000  C
  C86      1.0000 0.20840  0.75000  0.51410  Biso   1.000  C
  C87      1.0000 0.24210  0.75000  0.44640  Biso   1.000  C
  H60      1.0000 0.18250  0.75000  0.41170  Biso   1.000  H
  C88      1.0000 0.26970  0.75000  0.64270  Biso   1.000  C
  N4       1.0000 0.42250  0.25000  0.03670  Biso   1.000  N
  Tb4      1.0000 0.29233  0.25000  0.70365  Biso   1.000  Tb
  O29      1.0000 0.18920  0.25000  0.80590  Biso   1.000  O
  O30      1.0000 0.99000  0.25000  0.83600  Biso   1.000  O
  O31      1.0000 0.34950  0.25000  0.16170  Biso   1.000  O
  H61      1.0000 0.35440  0.25000  0.20430  Biso   1.000  H
  O32      1.0000 0.14790  0.25000  0.18510  Biso   1.000  O
  C89      1.0000 0.10650  0.25000  0.84860  Biso   1.000  C
  C90      1.0000 0.13500  0.25000  0.92850  Biso   1.000  C
  C91      1.0000 0.04440  0.25000  0.97710  Biso   1.000  C
  H62      1.0000 0.96210  0.25000  0.96420  Biso   1.000  H
  C92      1.0000 0.07870  0.25000  0.04560  Biso   1.000  C
  H63      1.0000 0.01830  0.25000  0.07970  Biso   1.000  H
  C93      1.0000 0.20200  0.25000  0.06580  Biso   1.000  C
  C94      1.0000 0.29160  0.25000  0.01410  Biso   1.000  C
  C95      1.0000 0.25790  0.25000  0.94640  Biso   1.000  C
  H64      1.0000 0.31750  0.25000  0.91170  Biso   1.000  H
  C96      1.0000 0.23030  0.25000  0.14270  Biso   1.000  C
