data_TORJOB_clean
_audit_creation_date              2015-10-16
_audit_creation_method            'Materials Studio'
_symmetry_space_group_name_H-M    'P1'
_symmetry_Int_Tables_number       1
_symmetry_cell_setting            triclinic
loop_
_symmetry_equiv_pos_as_xyz
  x,y,z
_cell_length_a                    10.9590
_cell_length_b                    16.5650
_cell_length_c                    19.7500
_cell_angle_alpha                 90.0000
_cell_angle_beta                  90.0000
_cell_angle_gamma                 90.0000
loop_
_atom_site_label
_atom_site_type_symbol
_atom_site_fract_x
_atom_site_fract_y
_atom_site_fract_z
_atom_site_U_iso_or_equiv
_atom_site_adp_type
_atom_site_occupancy
Eu1    Eu    0.70744   0.75000   0.29601   0.01267  Uiso   1.00
Eu2    Eu    0.79256   0.25000   0.79601   0.01267  Uiso   1.00
Eu3    Eu    0.20744   0.75000   0.20399   0.01267  Uiso   1.00
Eu4    Eu    0.29256   0.25000   0.70399   0.01267  Uiso   1.00
H1     H     0.18730   0.56940   0.46720   0.01267  Uiso   1.00
H2     H     0.56930   0.31860   0.01340   0.01267  Uiso   1.00
H3     H     0.47600   0.50810   0.17280   0.01267  Uiso   1.00
H4     H     0.31530   0.25000   0.90650   0.01267  Uiso   1.00
H5     H     0.93070   0.81860   0.51340   0.01267  Uiso   1.00
H6     H     0.48310   0.75000   0.57160   0.01267  Uiso   1.00
H7     H     0.02790   0.82900   0.45570   0.01267  Uiso   1.00
H8     H     0.02400   0.49190   0.67280   0.01267  Uiso   1.00
H9     H     0.31270   0.43060   0.96720   0.01267  Uiso   1.00
H10    H     0.18730   0.93060   0.46720   0.01267  Uiso   1.00
H11    H     0.45830   0.60790   0.87900   0.01267  Uiso   1.00
H12    H     0.34930   0.25000   0.19100   0.01267  Uiso   1.00
H13    H     0.97210   0.32900   0.54430   0.01267  Uiso   1.00
H14    H     0.54170   0.39210   0.12100   0.01267  Uiso   1.00
H15    H     0.46410   0.25000   0.54170   0.01267  Uiso   1.00
H16    H     0.52790   0.82900   0.04430   0.01267  Uiso   1.00
H17    H     0.52400   0.49190   0.82720   0.01267  Uiso   1.00
H18    H     0.24610   0.95160   0.01810   0.01267  Uiso   1.00
H19    H     0.06930   0.18140   0.48660   0.01267  Uiso   1.00
H20    H     0.15070   0.75000   0.69100   0.01267  Uiso   1.00
H21    H     0.97600   0.50810   0.32720   0.01267  Uiso   1.00
H22    H     0.18470   0.75000   0.40650   0.01267  Uiso   1.00
H23    H     0.54170   0.10790   0.12100   0.01267  Uiso   1.00
H24    H     0.95830   0.89210   0.62100   0.01267  Uiso   1.00
H25    H     0.65070   0.75000   0.80900   0.01267  Uiso   1.00
H26    H     0.68730   0.93060   0.03280   0.01267  Uiso   1.00
H27    H     0.97600   0.99190   0.32720   0.01267  Uiso   1.00
H28    H     0.02790   0.67100   0.45570   0.01267  Uiso   1.00
H29    H     0.93070   0.68140   0.51340   0.01267  Uiso   1.00
H30    H     0.84930   0.25000   0.30900   0.01267  Uiso   1.00
H31    H     0.98310   0.75000   0.92840   0.01267  Uiso   1.00
H32    H     0.75390   0.04840   0.98190   0.01267  Uiso   1.00
H33    H     0.47210   0.32900   0.95570   0.01267  Uiso   1.00
H34    H     0.31270   0.06940   0.96720   0.01267  Uiso   1.00
H35    H     0.52400   0.00810   0.82720   0.01267  Uiso   1.00
H36    H     0.97210   0.17100   0.54430   0.01267  Uiso   1.00
H37    H     0.47210   0.17100   0.95570   0.01267  Uiso   1.00
H38    H     0.02400   0.00810   0.67280   0.01267  Uiso   1.00
H39    H     0.43070   0.81860   0.98660   0.01267  Uiso   1.00
H40    H     0.24610   0.54840   0.01810   0.01267  Uiso   1.00
H41    H     0.06930   0.31860   0.48660   0.01267  Uiso   1.00
H42    H     0.51690   0.25000   0.42840   0.01267  Uiso   1.00
H43    H     0.68470   0.75000   0.09350   0.01267  Uiso   1.00
H44    H     0.81530   0.25000   0.59350   0.01267  Uiso   1.00
H45    H     0.04170   0.10790   0.37900   0.01267  Uiso   1.00
H46    H     0.68730   0.56940   0.03280   0.01267  Uiso   1.00
H47    H     0.04170   0.39210   0.37900   0.01267  Uiso   1.00
H48    H     0.53590   0.75000   0.45830   0.01267  Uiso   1.00
H49    H     0.56930   0.18140   0.01340   0.01267  Uiso   1.00
H50    H     0.25390   0.45160   0.51810   0.01267  Uiso   1.00
H51    H     0.01690   0.25000   0.07160   0.01267  Uiso   1.00
H52    H     0.74610   0.95160   0.48190   0.01267  Uiso   1.00
H53    H     0.96410   0.25000   0.95830   0.01267  Uiso   1.00
H54    H     0.81270   0.06940   0.53280   0.01267  Uiso   1.00
H55    H     0.75390   0.45160   0.98190   0.01267  Uiso   1.00
H56    H     0.52790   0.67100   0.04430   0.01267  Uiso   1.00
H57    H     0.43070   0.68140   0.98660   0.01267  Uiso   1.00
H58    H     0.47600   0.99190   0.17280   0.01267  Uiso   1.00
H59    H     0.45830   0.89210   0.87900   0.01267  Uiso   1.00
H60    H     0.81270   0.43060   0.53280   0.01267  Uiso   1.00
H61    H     0.03590   0.75000   0.04170   0.01267  Uiso   1.00
H62    H     0.25390   0.04840   0.51810   0.01267  Uiso   1.00
H63    H     0.74610   0.54840   0.48190   0.01267  Uiso   1.00
H64    H     0.95830   0.60790   0.62100   0.01267  Uiso   1.00
C1     C     0.48270   0.32390   0.00430   0.01267  Uiso   1.00
C2     C     0.15390   0.55360   0.50840   0.01267  Uiso   1.00
C3     C     0.80580   0.51730   0.46090   0.01267  Uiso   1.00
C4     C     0.94300   0.00680   0.36880   0.01267  Uiso   1.00
C5     C     0.36540   0.75000   0.42210   0.01267  Uiso   1.00
C6     C     0.79080   0.25000   0.49110   0.01267  Uiso   1.00
C7     C     0.68740   0.11770   0.86640   0.01267  Uiso   1.00
C8     C     0.20920   0.75000   0.50890   0.01267  Uiso   1.00
C9     C     0.04590   0.25000   0.97080   0.01267  Uiso   1.00
C10    C     0.44300   0.49320   0.13120   0.01267  Uiso   1.00
C11    C     0.43520   0.39940   0.03850   0.01267  Uiso   1.00
C12    C     0.80030   0.75000   0.94160   0.01267  Uiso   1.00
C13    C     0.31260   0.88230   0.13360   0.01267  Uiso   1.00
C14    C     0.68740   0.38230   0.86640   0.01267  Uiso   1.00
C15    C     0.81260   0.88230   0.36640   0.01267  Uiso   1.00
C16    C     0.19420   0.48270   0.53910   0.01267  Uiso   1.00
C17    C     0.13460   0.25000   0.92210   0.01267  Uiso   1.00
C18    C     0.64620   0.04210   0.89910   0.01267  Uiso   1.00
C19    C     0.51730   0.67610   0.99570   0.01267  Uiso   1.00
C20    C     0.35380   0.95790   0.10090   0.01267  Uiso   1.00
C21    C     0.14620   0.04210   0.60090   0.01267  Uiso   1.00
C22    C     0.51730   0.82390   0.99570   0.01267  Uiso   1.00
C23    C     0.89760   0.75000   0.15290   0.01267  Uiso   1.00
C24    C     0.01730   0.82390   0.50430   0.01267  Uiso   1.00
C25    C     0.65390   0.94640   0.99160   0.01267  Uiso   1.00
C26    C     0.93520   0.39940   0.46150   0.01267  Uiso   1.00
C27    C     0.54590   0.25000   0.52920   0.01267  Uiso   1.00
C28    C     0.64620   0.45790   0.89910   0.01267  Uiso   1.00
C29    C     0.14620   0.45790   0.60090   0.01267  Uiso   1.00
C30    C     0.80580   0.98270   0.46090   0.01267  Uiso   1.00
C31    C     0.72690   0.25000   0.36700   0.01267  Uiso   1.00
C32    C     0.48230   0.07640   0.10010   0.01267  Uiso   1.00
C33    C     0.77310   0.75000   0.86700   0.01267  Uiso   1.00
C34    C     0.05700   0.50680   0.63120   0.01267  Uiso   1.00
C35    C     0.06480   0.60060   0.53850   0.01267  Uiso   1.00
C36    C     0.85380   0.95790   0.39910   0.01267  Uiso   1.00
C37    C     0.34610   0.05360   0.00840   0.01267  Uiso   1.00
C38    C     0.01770   0.92360   0.60010   0.01267  Uiso   1.00
C39    C     0.94300   0.49320   0.36880   0.01267  Uiso   1.00
C40    C     0.39760   0.75000   0.34710   0.01267  Uiso   1.00
C41    C     0.10240   0.25000   0.84710   0.01267  Uiso   1.00
C42    C     0.63460   0.25000   0.57790   0.01267  Uiso   1.00
C43    C     0.07770   0.25000   0.03880   0.01267  Uiso   1.00
C44    C     0.45410   0.75000   0.47080   0.01267  Uiso   1.00
C45    C     0.95410   0.75000   0.02920   0.01267  Uiso   1.00
C46    C     0.98230   0.42360   0.39990   0.01267  Uiso   1.00
C47    C     0.30580   0.98270   0.03910   0.01267  Uiso   1.00
C48    C     0.34610   0.44640   0.00840   0.01267  Uiso   1.00
C49    C     0.48230   0.42360   0.10010   0.01267  Uiso   1.00
C50    C     0.05700   0.99320   0.63120   0.01267  Uiso   1.00
C51    C     0.30580   0.51730   0.03910   0.01267  Uiso   1.00
C52    C     0.93520   0.10060   0.46150   0.01267  Uiso   1.00
C53    C     0.55700   0.50680   0.86880   0.01267  Uiso   1.00
C54    C     0.19420   0.01730   0.53910   0.01267  Uiso   1.00
C55    C     0.70920   0.75000   0.99110   0.01267  Uiso   1.00
C56    C     0.57770   0.25000   0.46120   0.01267  Uiso   1.00
C57    C     0.56480   0.60060   0.96150   0.01267  Uiso   1.00
C58    C     0.18740   0.11770   0.63360   0.01267  Uiso   1.00
C59    C     0.51770   0.92360   0.89990   0.01267  Uiso   1.00
C60    C     0.18740   0.38230   0.63360   0.01267  Uiso   1.00
C61    C     0.65390   0.55360   0.99160   0.01267  Uiso   1.00
C62    C     0.86540   0.75000   0.07790   0.01267  Uiso   1.00
C63    C     0.69420   0.48270   0.96090   0.01267  Uiso   1.00
C64    C     0.51770   0.57640   0.89990   0.01267  Uiso   1.00
C65    C     0.01770   0.57640   0.60010   0.01267  Uiso   1.00
C66    C     0.30030   0.75000   0.55840   0.01267  Uiso   1.00
C67    C     0.92230   0.75000   0.96120   0.01267  Uiso   1.00
C68    C     0.75570   0.25000   0.55990   0.01267  Uiso   1.00
C69    C     0.74430   0.75000   0.05990   0.01267  Uiso   1.00
C70    C     0.35380   0.54210   0.10090   0.01267  Uiso   1.00
C71    C     0.85380   0.54210   0.39910   0.01267  Uiso   1.00
C72    C     0.01730   0.67610   0.50430   0.01267  Uiso   1.00
C73    C     0.69420   0.01730   0.96090   0.01267  Uiso   1.00
C74    C     0.43520   0.10060   0.03850   0.01267  Uiso   1.00
C75    C     0.98270   0.32390   0.49570   0.01267  Uiso   1.00
C76    C     0.98270   0.17610   0.49570   0.01267  Uiso   1.00
C77    C     0.84610   0.44640   0.49160   0.01267  Uiso   1.00
C78    C     0.06480   0.89940   0.53850   0.01267  Uiso   1.00
C79    C     0.48270   0.17610   0.00430   0.01267  Uiso   1.00
C80    C     0.98230   0.07640   0.39990   0.01267  Uiso   1.00
C81    C     0.27310   0.75000   0.63300   0.01267  Uiso   1.00
C82    C     0.25570   0.25000   0.94010   0.01267  Uiso   1.00
C83    C     0.60240   0.25000   0.65290   0.01267  Uiso   1.00
C84    C     0.31260   0.61770   0.13360   0.01267  Uiso   1.00
C85    C     0.15390   0.94640   0.50840   0.01267  Uiso   1.00
C86    C     0.84610   0.05360   0.49160   0.01267  Uiso   1.00
C87    C     0.19970   0.25000   0.05840   0.01267  Uiso   1.00
C88    C     0.55700   0.99320   0.86880   0.01267  Uiso   1.00
C89    C     0.29080   0.25000   0.00890   0.01267  Uiso   1.00
C90    C     0.56480   0.89940   0.96150   0.01267  Uiso   1.00
C91    C     0.69970   0.25000   0.44160   0.01267  Uiso   1.00
C92    C     0.42230   0.75000   0.53880   0.01267  Uiso   1.00
C93    C     0.24430   0.75000   0.44010   0.01267  Uiso   1.00
C94    C     0.81260   0.61770   0.36640   0.01267  Uiso   1.00
C95    C     0.22690   0.25000   0.13300   0.01267  Uiso   1.00
C96    C     0.44300   0.00680   0.13120   0.01267  Uiso   1.00
N1     N     0.58180   0.75000   0.97160   0.01267  Uiso   1.00
N2     N     0.08180   0.75000   0.52840   0.01267  Uiso   1.00
N3     N     0.41820   0.25000   0.02840   0.01267  Uiso   1.00
N4     N     0.91820   0.25000   0.47160   0.01267  Uiso   1.00
O1     O     0.18610   0.25000   0.80540   0.01267  Uiso   1.00
O2     O     0.34280   0.25000   0.14970   0.01267  Uiso   1.00
O3     O     0.22280   0.65470   0.10960   0.01267  Uiso   1.00
O4     O     0.13580   0.35610   0.68630   0.01267  Uiso   1.00
O5     O     0.65720   0.75000   0.85030   0.01267  Uiso   1.00
O6     O     0.64760   0.25000   0.32590   0.01267  Uiso   1.00
O7     O     0.31390   0.75000   0.30540   0.01267  Uiso   1.00
O8     O     0.77720   0.34530   0.89040   0.01267  Uiso   1.00
O9     O     0.13580   0.14390   0.68630   0.01267  Uiso   1.00
O10    O     0.63580   0.35610   0.81370   0.01267  Uiso   1.00
O11    O     0.49240   0.25000   0.66720   0.01267  Uiso   1.00
O12    O     0.63580   0.14390   0.81370   0.01267  Uiso   1.00
O13    O     0.77720   0.15470   0.89040   0.01267  Uiso   1.00
O14    O     0.72280   0.84530   0.39040   0.01267  Uiso   1.00
O15    O     0.00760   0.75000   0.16720   0.01267  Uiso   1.00
O16    O     0.22280   0.84530   0.10960   0.01267  Uiso   1.00
O17    O     0.27720   0.34530   0.60960   0.01267  Uiso   1.00
O18    O     0.36420   0.64390   0.18630   0.01267  Uiso   1.00
O19    O     0.14760   0.25000   0.17410   0.01267  Uiso   1.00
O20    O     0.72280   0.65470   0.39040   0.01267  Uiso   1.00
O21    O     0.99240   0.25000   0.83280   0.01267  Uiso   1.00
O22    O     0.35240   0.75000   0.67410   0.01267  Uiso   1.00
O23    O     0.36420   0.85610   0.18630   0.01267  Uiso   1.00
O24    O     0.15720   0.75000   0.64970   0.01267  Uiso   1.00
O25    O     0.85240   0.75000   0.82590   0.01267  Uiso   1.00
O26    O     0.50760   0.75000   0.33280   0.01267  Uiso   1.00
O27    O     0.84280   0.25000   0.35030   0.01267  Uiso   1.00
O28    O     0.86420   0.64390   0.31370   0.01267  Uiso   1.00
O29    O     0.86420   0.85610   0.31370   0.01267  Uiso   1.00
O30    O     0.27720   0.15470   0.60960   0.01267  Uiso   1.00
O31    O     0.68610   0.25000   0.69460   0.01267  Uiso   1.00
O32    O     0.81390   0.75000   0.19460   0.01267  Uiso   1.00
