data_image0
_cell_length_a       10.929
_cell_length_b       16.586
_cell_length_c       19.396
_cell_angle_alpha    90
_cell_angle_beta     90
_cell_angle_gamma    90

_symmetry_space_group_name_H-M    "P 1"
_symmetry_int_tables_number       1

loop_
  _symmetry_equiv_pos_as_xyz
  'x, y, z'

loop_
  _atom_site_label
  _atom_site_occupancy
  _atom_site_fract_x
  _atom_site_fract_y
  _atom_site_fract_z
  _atom_site_thermal_displace_type
  _atom_site_B_iso_or_equiv
  _atom_site_type_symbol
  O1       1.0000 0.36850  0.85360  0.18462  Biso   1.000  O
  O2       1.0000 0.22230  0.84430  0.10860  Biso   1.000  O
  C1       1.0000 0.48120  0.17590  0.00240  Biso   1.000  C
  H1       1.0000 0.56840  0.18070  0.01100  Biso   1.000  H
  H2       1.0000 0.46920  0.17150  0.95300  Biso   1.000  H
  C2       1.0000 0.43350  0.10020  0.03730  Biso   1.000  C
  C3       1.0000 0.48190  0.07540  0.09950  Biso   1.000  C
  H3       1.0000 0.54080  0.10690  0.12120  Biso   1.000  H
  C4       1.0000 0.44410  0.00480  0.12980  Biso   1.000  C
  H4       1.0000 0.48010  0.98800  0.17080  Biso   1.000  H
  C5       1.0000 0.35390  0.95880  0.10030  Biso   1.000  C
  C6       1.0000 0.30310  0.98350  0.03810  Biso   1.000  C
  H5       1.0000 0.24200  0.95280  0.01750  Biso   1.000  H
  C7       1.0000 0.34310  0.05340  0.00670  Biso   1.000  C
  H6       1.0000 0.30930  0.06930  0.96490  Biso   1.000  H
  C8       1.0000 0.31300  0.88130  0.13290  Biso   1.000  C
  O3       1.0000 0.13150  0.14640  0.68462  Biso   1.000  O
  O4       1.0000 0.27770  0.15570  0.60860  Biso   1.000  O
  C9       1.0000 0.01880  0.82410  0.50240  Biso   1.000  C
  H7       1.0000 0.93160  0.81930  0.51100  Biso   1.000  H
  H8       1.0000 0.03080  0.82850  0.45300  Biso   1.000  H
  C10      1.0000 0.06650  0.89980  0.53730  Biso   1.000  C
  C11      1.0000 0.01810  0.92460  0.59950  Biso   1.000  C
  H9       1.0000 0.95920  0.89310  0.62120  Biso   1.000  H
  C12      1.0000 0.05590  0.99520  0.62980  Biso   1.000  C
  H10      1.0000 0.01990  0.01200  0.67080  Biso   1.000  H
  C13      1.0000 0.14610  0.04120  0.60030  Biso   1.000  C
  C14      1.0000 0.19690  0.01650  0.53810  Biso   1.000  C
  H11      1.0000 0.25800  0.04720  0.51750  Biso   1.000  H
  C15      1.0000 0.15690  0.94660  0.50670  Biso   1.000  C
  H12      1.0000 0.19070  0.93070  0.46490  Biso   1.000  H
  C16      1.0000 0.18700  0.11870  0.63290  Biso   1.000  C
  O5       1.0000 0.63150  0.35360  0.81538  Biso   1.000  O
  O6       1.0000 0.77770  0.34430  0.89140  Biso   1.000  O
  C17      1.0000 0.51880  0.67590  0.99760  Biso   1.000  C
  H13      1.0000 0.43160  0.68070  0.98900  Biso   1.000  H
  H14      1.0000 0.53080  0.67150  0.04700  Biso   1.000  H
  C18      1.0000 0.56650  0.60020  0.96270  Biso   1.000  C
  C19      1.0000 0.51810  0.57540  0.90050  Biso   1.000  C
  H15      1.0000 0.45920  0.60690  0.87880  Biso   1.000  H
  C20      1.0000 0.55590  0.50480  0.87020  Biso   1.000  C
  H16      1.0000 0.51990  0.48800  0.82920  Biso   1.000  H
  C21      1.0000 0.64610  0.45880  0.89970  Biso   1.000  C
  C22      1.0000 0.69690  0.48350  0.96190  Biso   1.000  C
  H17      1.0000 0.75800  0.45280  0.98250  Biso   1.000  H
  C23      1.0000 0.65690  0.55340  0.99330  Biso   1.000  C
  H18      1.0000 0.69070  0.56930  0.03510  Biso   1.000  H
  C24      1.0000 0.68700  0.38130  0.86710  Biso   1.000  C
  O7       1.0000 0.86850  0.64640  0.31538  Biso   1.000  O
  O8       1.0000 0.72230  0.65570  0.39140  Biso   1.000  O
  C25      1.0000 0.98120  0.32410  0.49760  Biso   1.000  C
  H19      1.0000 0.06840  0.31930  0.48900  Biso   1.000  H
  H20      1.0000 0.96920  0.32850  0.54700  Biso   1.000  H
  C26      1.0000 0.93350  0.39980  0.46270  Biso   1.000  C
  C27      1.0000 0.98190  0.42460  0.40050  Biso   1.000  C
  H21      1.0000 0.04080  0.39310  0.37880  Biso   1.000  H
  C28      1.0000 0.94410  0.49520  0.37020  Biso   1.000  C
  H22      1.0000 0.98010  0.51200  0.32920  Biso   1.000  H
  C29      1.0000 0.85390  0.54120  0.39970  Biso   1.000  C
  C30      1.0000 0.80310  0.51650  0.46190  Biso   1.000  C
  H23      1.0000 0.74200  0.54720  0.48250  Biso   1.000  H
  C31      1.0000 0.84310  0.44660  0.49330  Biso   1.000  C
  H24      1.0000 0.80930  0.43070  0.53510  Biso   1.000  H
  C32      1.0000 0.81300  0.61870  0.36710  Biso   1.000  C
  O9       1.0000 0.63150  0.14640  0.81538  Biso   1.000  O
  O10      1.0000 0.77770  0.15570  0.89140  Biso   1.000  O
  C33      1.0000 0.51880  0.82410  0.99760  Biso   1.000  C
  H25      1.0000 0.43160  0.81930  0.98900  Biso   1.000  H
  H26      1.0000 0.53080  0.82850  0.04700  Biso   1.000  H
  C34      1.0000 0.56650  0.89980  0.96270  Biso   1.000  C
  C35      1.0000 0.51810  0.92460  0.90050  Biso   1.000  C
  H27      1.0000 0.45920  0.89310  0.87880  Biso   1.000  H
  C36      1.0000 0.55590  0.99520  0.87020  Biso   1.000  C
  H28      1.0000 0.51990  0.01200  0.82920  Biso   1.000  H
  C37      1.0000 0.64610  0.04120  0.89970  Biso   1.000  C
  C38      1.0000 0.69690  0.01650  0.96190  Biso   1.000  C
  H29      1.0000 0.75800  0.04720  0.98250  Biso   1.000  H
  C39      1.0000 0.65690  0.94660  0.99330  Biso   1.000  C
  H30      1.0000 0.69070  0.93070  0.03510  Biso   1.000  H
  C40      1.0000 0.68700  0.11870  0.86710  Biso   1.000  C
  O11      1.0000 0.86850  0.85360  0.31538  Biso   1.000  O
  O12      1.0000 0.72230  0.84430  0.39140  Biso   1.000  O
  C41      1.0000 0.98120  0.17590  0.49760  Biso   1.000  C
  H31      1.0000 0.06840  0.18070  0.48900  Biso   1.000  H
  H32      1.0000 0.96920  0.17150  0.54700  Biso   1.000  H
  C42      1.0000 0.93350  0.10020  0.46270  Biso   1.000  C
  C43      1.0000 0.98190  0.07540  0.40050  Biso   1.000  C
  H33      1.0000 0.04080  0.10690  0.37880  Biso   1.000  H
  C44      1.0000 0.94410  0.00480  0.37020  Biso   1.000  C
  H34      1.0000 0.98010  0.98800  0.32920  Biso   1.000  H
  C45      1.0000 0.85390  0.95880  0.39970  Biso   1.000  C
  C46      1.0000 0.80310  0.98350  0.46190  Biso   1.000  C
  H35      1.0000 0.74200  0.95280  0.48250  Biso   1.000  H
  C47      1.0000 0.84310  0.05340  0.49330  Biso   1.000  C
  H36      1.0000 0.80930  0.06930  0.53510  Biso   1.000  H
  C48      1.0000 0.81300  0.88130  0.36710  Biso   1.000  C
  O13      1.0000 0.36850  0.64640  0.18462  Biso   1.000  O
  O14      1.0000 0.22230  0.65570  0.10860  Biso   1.000  O
  C49      1.0000 0.48120  0.32410  0.00240  Biso   1.000  C
  H37      1.0000 0.56840  0.31930  0.01100  Biso   1.000  H
  H38      1.0000 0.46920  0.32850  0.95300  Biso   1.000  H
  C50      1.0000 0.43350  0.39980  0.03730  Biso   1.000  C
  C51      1.0000 0.48190  0.42460  0.09950  Biso   1.000  C
  H39      1.0000 0.54080  0.39310  0.12120  Biso   1.000  H
  C52      1.0000 0.44410  0.49520  0.12980  Biso   1.000  C
  H40      1.0000 0.48010  0.51200  0.17080  Biso   1.000  H
  C53      1.0000 0.35390  0.54120  0.10030  Biso   1.000  C
  C54      1.0000 0.30310  0.51650  0.03810  Biso   1.000  C
  H41      1.0000 0.24200  0.54720  0.01750  Biso   1.000  H
  C55      1.0000 0.34310  0.44660  0.00670  Biso   1.000  C
  H42      1.0000 0.30930  0.43070  0.96490  Biso   1.000  H
  C56      1.0000 0.31300  0.61870  0.13290  Biso   1.000  C
  O15      1.0000 0.13150  0.35360  0.68462  Biso   1.000  O
  O16      1.0000 0.27770  0.34430  0.60860  Biso   1.000  O
  C57      1.0000 0.01880  0.67590  0.50240  Biso   1.000  C
  H43      1.0000 0.93160  0.68070  0.51100  Biso   1.000  H
  H44      1.0000 0.03080  0.67150  0.45300  Biso   1.000  H
  C58      1.0000 0.06650  0.60020  0.53730  Biso   1.000  C
  C59      1.0000 0.01810  0.57540  0.59950  Biso   1.000  C
  H45      1.0000 0.95920  0.60690  0.62120  Biso   1.000  H
  C60      1.0000 0.05590  0.50480  0.62980  Biso   1.000  C
  H46      1.0000 0.01990  0.48800  0.67080  Biso   1.000  H
  C61      1.0000 0.14610  0.45880  0.60030  Biso   1.000  C
  C62      1.0000 0.19690  0.48350  0.53810  Biso   1.000  C
  H47      1.0000 0.25800  0.45280  0.51750  Biso   1.000  H
  C63      1.0000 0.15690  0.55340  0.50670  Biso   1.000  C
  H48      1.0000 0.19070  0.56930  0.46490  Biso   1.000  H
  C64      1.0000 0.18700  0.38130  0.63290  Biso   1.000  C
  N1       1.0000 0.41790  0.25000  0.02820  Biso   1.000  N
  Tb1      1.0000 0.28820  0.25000  0.70407  Biso   1.000  Tb
  O17      1.0000 0.18040  0.25000  0.80460  Biso   1.000  O
  O18      1.0000 0.98570  0.25000  0.83270  Biso   1.000  O
  O19      1.0000 0.34670  0.25000  0.15260  Biso   1.000  O
  H49      1.0000 0.35480  0.25000  0.19460  Biso   1.000  H
  O20      1.0000 0.14960  0.25000  0.18010  Biso   1.000  O
  C65      1.0000 0.09560  0.25000  0.84750  Biso   1.000  C
  C66      1.0000 0.13010  0.25000  0.92260  Biso   1.000  C
  C67      1.0000 0.04150  0.25000  0.97350  Biso   1.000  C
  H50      1.0000 0.95910  0.25000  0.96170  Biso   1.000  H
  C68      1.0000 0.07650  0.25000  0.04230  Biso   1.000  C
  H51      1.0000 0.01690  0.25000  0.07650  Biso   1.000  H
  C69      1.0000 0.19990  0.25000  0.06070  Biso   1.000  C
  C70      1.0000 0.28690  0.25000  0.00950  Biso   1.000  C
  C71      1.0000 0.25270  0.25000  0.94010  Biso   1.000  C
  H52      1.0000 0.31210  0.25000  0.90590  Biso   1.000  H
  C72      1.0000 0.22890  0.25000  0.13700  Biso   1.000  C
  N2       1.0000 0.08210  0.75000  0.52820  Biso   1.000  N
  Tb2      1.0000 0.21180  0.75000  0.20407  Biso   1.000  Tb
  O21      1.0000 0.31960  0.75000  0.30460  Biso   1.000  O
  O22      1.0000 0.51430  0.75000  0.33270  Biso   1.000  O
  O23      1.0000 0.15330  0.75000  0.65260  Biso   1.000  O
  H53      1.0000 0.14520  0.75000  0.69460  Biso   1.000  H
  O24      1.0000 0.35040  0.75000  0.68010  Biso   1.000  O
  C73      1.0000 0.40440  0.75000  0.34750  Biso   1.000  C
  C74      1.0000 0.36990  0.75000  0.42260  Biso   1.000  C
  C75      1.0000 0.45850  0.75000  0.47350  Biso   1.000  C
  H54      1.0000 0.54090  0.75000  0.46170  Biso   1.000  H
  C76      1.0000 0.42350  0.75000  0.54230  Biso   1.000  C
  H55      1.0000 0.48310  0.75000  0.57650  Biso   1.000  H
  C77      1.0000 0.30010  0.75000  0.56070  Biso   1.000  C
  C78      1.0000 0.21310  0.75000  0.50950  Biso   1.000  C
  C79      1.0000 0.24730  0.75000  0.44010  Biso   1.000  C
  H56      1.0000 0.18790  0.75000  0.40590  Biso   1.000  H
  C80      1.0000 0.27110  0.75000  0.63700  Biso   1.000  C
  N3       1.0000 0.58210  0.75000  0.97180  Biso   1.000  N
  Tb3      1.0000 0.71180  0.75000  0.29593  Biso   1.000  Tb
  O25      1.0000 0.81960  0.75000  0.19540  Biso   1.000  O
  O26      1.0000 0.01430  0.75000  0.16730  Biso   1.000  O
  O27      1.0000 0.65330  0.75000  0.84740  Biso   1.000  O
  H57      1.0000 0.64520  0.75000  0.80540  Biso   1.000  H
  O28      1.0000 0.85040  0.75000  0.81990  Biso   1.000  O
  C81      1.0000 0.90440  0.75000  0.15250  Biso   1.000  C
  C82      1.0000 0.86990  0.75000  0.07740  Biso   1.000  C
  C83      1.0000 0.95850  0.75000  0.02650  Biso   1.000  C
  H58      1.0000 0.04090  0.75000  0.03830  Biso   1.000  H
  C84      1.0000 0.92350  0.75000  0.95770  Biso   1.000  C
  H59      1.0000 0.98310  0.75000  0.92350  Biso   1.000  H
  C85      1.0000 0.80010  0.75000  0.93930  Biso   1.000  C
  C86      1.0000 0.71310  0.75000  0.99050  Biso   1.000  C
  C87      1.0000 0.74730  0.75000  0.05990  Biso   1.000  C
  H60      1.0000 0.68790  0.75000  0.09410  Biso   1.000  H
  C88      1.0000 0.77110  0.75000  0.86300  Biso   1.000  C
  N4       1.0000 0.91790  0.25000  0.47180  Biso   1.000  N
  Tb4      1.0000 0.78820  0.25000  0.79593  Biso   1.000  Tb
  O29      1.0000 0.68040  0.25000  0.69540  Biso   1.000  O
  O30      1.0000 0.48570  0.25000  0.66730  Biso   1.000  O
  O31      1.0000 0.84670  0.25000  0.34740  Biso   1.000  O
  H61      1.0000 0.85480  0.25000  0.30540  Biso   1.000  H
  O32      1.0000 0.64960  0.25000  0.31990  Biso   1.000  O
  C89      1.0000 0.59560  0.25000  0.65250  Biso   1.000  C
  C90      1.0000 0.63010  0.25000  0.57740  Biso   1.000  C
  C91      1.0000 0.54150  0.25000  0.52650  Biso   1.000  C
  H62      1.0000 0.45910  0.25000  0.53830  Biso   1.000  H
  C92      1.0000 0.57650  0.25000  0.45770  Biso   1.000  C
  H63      1.0000 0.51690  0.25000  0.42350  Biso   1.000  H
  C93      1.0000 0.69990  0.25000  0.43930  Biso   1.000  C
  C94      1.0000 0.78690  0.25000  0.49050  Biso   1.000  C
  C95      1.0000 0.75270  0.25000  0.55990  Biso   1.000  C
  H64      1.0000 0.81210  0.25000  0.59410  Biso   1.000  H
  C96      1.0000 0.72890  0.25000  0.36300  Biso   1.000  C
