data_TORPUN_clean
_audit_creation_date              2015-10-16
_audit_creation_method            'Materials Studio'
_symmetry_space_group_name_H-M    'P1'
_symmetry_Int_Tables_number       1
_symmetry_cell_setting            triclinic
loop_
_symmetry_equiv_pos_as_xyz
  x,y,z
_cell_length_a                    8.4870
_cell_length_b                    17.9240
_cell_length_c                    26.5616
_cell_angle_alpha                 87.8328
_cell_angle_beta                  80.8076
_cell_angle_gamma                 76.3057
loop_
_atom_site_label
_atom_site_type_symbol
_atom_site_fract_x
_atom_site_fract_y
_atom_site_fract_z
_atom_site_U_iso_or_equiv
_atom_site_adp_type
_atom_site_occupancy
Tb1    Tb    0.88132   0.50000   0.23736   0.01267  Uiso   1.00
Tb2    Tb    0.13132   0.00000   0.73736   0.01267  Uiso   1.00
Tb3    Tb    0.60565   0.00000   0.78870   0.01267  Uiso   1.00
Tb4    Tb    0.35565   0.50000   0.28870   0.01267  Uiso   1.00
H1     H     0.37020   0.61260   0.50500   0.01267  Uiso   1.00
H2     H     0.62280   0.24040   0.33120   0.01267  Uiso   1.00
H3     H     0.72890   0.79420   0.20580   0.01267  Uiso   1.00
H4     H     0.99860   0.17420   0.72560   0.01267  Uiso   1.00
H5     H     0.80100   0.11940   0.97980   0.01267  Uiso   1.00
H6     H     0.55940   0.22640   0.71360   0.01267  Uiso   1.00
H7     H     0.74970   0.40240   0.39160   0.01267  Uiso   1.00
H8     H     0.84980   0.61940   0.47980   0.01267  Uiso   1.00
H9     H     0.25060   0.72640   0.21360   0.01267  Uiso   1.00
H10    H     0.37370   0.60080   0.41780   0.01267  Uiso   1.00
H11    H     0.53880   0.34040   0.67240   0.01267  Uiso   1.00
H12    H     0.70620   0.67780   0.13660   0.01267  Uiso   1.00
H13    H     0.54530   0.61780   0.81000   0.01267  Uiso   1.00
H14    H     0.81270   0.35940   0.65420   0.01267  Uiso   1.00
H15    H     0.35770   0.10080   0.91780   0.01267  Uiso   1.00
H16    H     0.13400   0.82220   0.63660   0.01267  Uiso   1.00
H17    H     0.50010   0.50120   0.54500   0.01267  Uiso   1.00
H18    H     0.95490   0.49880   0.54500   0.01267  Uiso   1.00
H19    H     0.20630   0.90240   0.89160   0.01267  Uiso   1.00
H20    H     0.91310   0.88220   0.31000   0.01267  Uiso   1.00
H21    H     0.27310   0.70580   0.70580   0.01267  Uiso   1.00
H22    H     0.20850   0.39920   0.41780   0.01267  Uiso   1.00
H23    H     0.77690   0.11780   0.31000   0.01267  Uiso   1.00
H24    H     0.90210   0.09760   0.89160   0.01267  Uiso   1.00
H25    H     0.21680   0.29100   0.59320   0.01267  Uiso   1.00
H26    H     0.92210   0.14060   0.15420   0.01267  Uiso   1.00
H27    H     0.26000   0.95620   0.19180   0.01267  Uiso   1.00
H28    H     0.04600   0.75960   0.33120   0.01267  Uiso   1.00
H29    H     0.54820   0.04380   0.19180   0.01267  Uiso   1.00
H30    H     0.73280   0.88740   0.00500   0.01267  Uiso   1.00
H31    H     0.02110   0.29420   0.70580   0.01267  Uiso   1.00
H32    H     0.67040   0.38060   0.47980   0.01267  Uiso   1.00
H33    H     0.15720   0.32220   0.13660   0.01267  Uiso   1.00
H34    H     0.19840   0.84040   0.17240   0.01267  Uiso   1.00
H35    H     0.64470   0.38220   0.81000   0.01267  Uiso   1.00
H36    H     0.53580   0.27360   0.21360   0.01267  Uiso   1.00
H37    H     0.61320   0.25960   0.83120   0.01267  Uiso   1.00
H38    H     0.21920   0.88060   0.97980   0.01267  Uiso   1.00
H39    H     0.25780   0.20900   0.09320   0.01267  Uiso   1.00
H40    H     0.12480   0.38740   0.50500   0.01267  Uiso   1.00
H41    H     0.27580   0.82580   0.72560   0.01267  Uiso   1.00
H42    H     0.19000   0.70900   0.59320   0.01267  Uiso   1.00
H43    H     0.75130   0.99880   0.04500   0.01267  Uiso   1.00
H44    H     0.85870   0.59760   0.39160   0.01267  Uiso   1.00
H45    H     0.26220   0.11260   0.00500   0.01267  Uiso   1.00
H46    H     0.92370   0.85940   0.15420   0.01267  Uiso   1.00
H47    H     0.72700   0.77360   0.71360   0.01267  Uiso   1.00
H48    H     0.78880   0.65960   0.67240   0.01267  Uiso   1.00
H49    H     0.62920   0.15960   0.17240   0.01267  Uiso   1.00
H50    H     0.34200   0.45620   0.69180   0.01267  Uiso   1.00
H51    H     0.06530   0.20580   0.20580   0.01267  Uiso   1.00
H52    H     0.96620   0.54380   0.69180   0.01267  Uiso   1.00
H53    H     0.55560   0.74040   0.83120   0.01267  Uiso   1.00
H54    H     0.72450   0.89920   0.91780   0.01267  Uiso   1.00
H55    H     0.22940   0.17780   0.63660   0.01267  Uiso   1.00
H56    H     0.92280   0.32580   0.22560   0.01267  Uiso   1.00
H57    H     0.64900   0.79100   0.09320   0.01267  Uiso   1.00
H58    H     0.85160   0.67420   0.22560   0.01267  Uiso   1.00
H59    H     0.53310   0.64060   0.65420   0.01267  Uiso   1.00
H60    H     0.20370   0.00120   0.04500   0.01267  Uiso   1.00
C1     C     0.20540   0.07640   0.84140   0.01267  Uiso   1.00
C2     C     0.02240   0.06840   0.23840   0.01267  Uiso   1.00
C3     C     0.05050   0.07980   0.09280   0.01267  Uiso   1.00
C4     C     0.73680   0.94800   0.18200   0.01267  Uiso   1.00
C5     C     0.92370   0.21520   0.74280   0.01267  Uiso   1.00
C6     C     0.80380   0.15980   0.29220   0.01267  Uiso   1.00
C7     C     0.63080   0.03300   0.11680   0.01267  Uiso   1.00
C8     C     0.38150   0.89940   0.09860   0.01267  Uiso   1.00
C9     C     0.48330   0.69060   0.17960   0.01267  Uiso   1.00
C10    C     0.85920   0.69260   0.66500   0.01267  Uiso   1.00
C11    C     0.42080   0.56840   0.73840   0.01267  Uiso   1.00
C12    C     0.50300   0.59740   0.64440   0.01267  Uiso   1.00
C13    C     0.88320   0.44800   0.68200   0.01267  Uiso   1.00
C14    C     0.98230   0.76620   0.30520   0.01267  Uiso   1.00
C15    C     0.10000   0.39860   0.43060   0.01267  Uiso   1.00
C16    C     0.38890   0.48640   0.66720   0.01267  Uiso   1.00
C17    C     0.56970   0.77860   0.11820   0.01267  Uiso   1.00
C18    C     0.77050   0.12220   0.78920   0.01267  Uiso   1.00
C19    C     0.90400   0.84020   0.29220   0.01267  Uiso   1.00
C20    C     0.49420   0.65980   0.79220   0.01267  Uiso   1.00
C21    C     0.46940   0.60140   0.43060   0.01267  Uiso   1.00
C22    C     0.45200   0.17080   0.12960   0.01267  Uiso   1.00
C23    C     0.88890   0.28480   0.24280   0.01267  Uiso   1.00
C24    C     0.48840   0.23960   0.68960   0.01267  Uiso   1.00
C25    C     0.71360   0.34020   0.79220   0.01267  Uiso   1.00
C26    C     0.98860   0.87360   0.05760   0.01267  Uiso   1.00
C27    C     0.95380   0.12640   0.05760   0.01267  Uiso   1.00
C28    C     0.43480   0.55200   0.68200   0.01267  Uiso   1.00
C29    C     0.85040   0.90260   0.14440   0.01267  Uiso   1.00
C30    C     0.11290   0.89920   0.91440   0.01267  Uiso   1.00
C31    C     0.29290   0.21080   0.64360   0.01267  Uiso   1.00
C32    C     0.79590   0.78720   0.23100   0.01267  Uiso   1.00
C33    C     0.99760   0.67080   0.62960   0.01267  Uiso   1.00
C34    C     0.33240   0.73960   0.18960   0.01267  Uiso   1.00
C35    C     0.30180   0.80740   0.16500   0.01267  Uiso   1.00
C36    C     0.46660   0.61040   0.48240   0.01267  Uiso   1.00
C37    C     0.60270   0.71080   0.14360   0.01267  Uiso   1.00
C38    C     0.31210   0.22140   0.11820   0.01267  Uiso   1.00
C39    C     0.08120   0.05200   0.18200   0.01267  Uiso   1.00
C40    C     0.96940   0.53300   0.61680   0.01267  Uiso   1.00
C41    C     0.91240   0.11320   0.96760   0.01267  Uiso   1.00
C42    C     0.41380   0.46700   0.61680   0.01267  Uiso   1.00
C43    C     0.93120   0.14940   0.25360   0.01267  Uiso   1.00
C44    C     0.84080   0.43160   0.73840   0.01267  Uiso   1.00
C45    C     0.88410   0.88640   0.70620   0.01267  Uiso   1.00
C46    C     0.41580   0.64940   0.75360   0.01267  Uiso   1.00
C47    C     0.62680   0.57640   0.34140   0.01267  Uiso   1.00
C48    C     0.40970   0.11360   0.70620   0.01267  Uiso   1.00
C49    C     0.83020   0.37360   0.55760   0.01267  Uiso   1.00
C50    C     0.69630   0.26620   0.80520   0.01267  Uiso   1.00
C51    C     0.27330   0.38640   0.20620   0.01267  Uiso   1.00
C52    C     0.75240   0.29880   0.28020   0.01267  Uiso   1.00
C53    C     0.00520   0.09740   0.14440   0.01267  Uiso   1.00
C54    C     0.13960   0.09360   0.89760   0.01267  Uiso   1.00
C55    C     0.03090   0.60060   0.59860   0.01267  Uiso   1.00
C56    C     0.82200   0.76040   0.68960   0.01267  Uiso   1.00
C57    C     0.09830   0.72140   0.61820   0.01267  Uiso   1.00
C58    C     0.88550   0.38420   0.50080   0.01267  Uiso   1.00
C59    C     0.12000   0.88680   0.96760   0.01267  Uiso   1.00
C60    C     0.85670   0.92020   0.09280   0.01267  Uiso   1.00
C61    C     0.73920   0.93160   0.23840   0.01267  Uiso   1.00
C62    C     0.71250   0.23380   0.30520   0.01267  Uiso   1.00
C63    C     0.96740   0.70120   0.28020   0.01267  Uiso   1.00
C64    C     0.64270   0.37780   0.28920   0.01267  Uiso   1.00
C65    C     0.25370   0.28920   0.14360   0.01267  Uiso   1.00
C66    C     0.52050   0.61360   0.20620   0.01267  Uiso   1.00
C67    C     0.88030   0.42020   0.59280   0.01267  Uiso   1.00
C68    C     0.33310   0.71280   0.73100   0.01267  Uiso   1.00
C69    C     0.06810   0.62220   0.28920   0.01267  Uiso   1.00
C70    C     0.85260   0.40260   0.64440   0.01267  Uiso   1.00
C71    C     0.82080   0.89860   0.93060   0.01267  Uiso   1.00
C72    C     0.93590   0.28720   0.73100   0.01267  Uiso   1.00
C73    C     0.76210   0.60080   0.41440   0.01267  Uiso   1.00
C74    C     0.51990   0.10060   0.09860   0.01267  Uiso   1.00
C75    C     0.17260   0.01460   0.07920   0.01267  Uiso   1.00
C76    C     0.37280   0.32920   0.62960   0.01267  Uiso   1.00
C77    C     0.20750   0.98640   0.16720   0.01267  Uiso   1.00
C78    C     0.33350   0.78480   0.74280   0.01267  Uiso   1.00
C79    C     0.82700   0.88960   0.98240   0.01267  Uiso   1.00
C80    C     0.41860   0.79880   0.78020   0.01267  Uiso   1.00
C81    C     0.62530   0.01360   0.16720   0.01267  Uiso   1.00
C82    C     0.28350   0.27860   0.61820   0.01267  Uiso   1.00
C83    C     0.82350   0.39920   0.41440   0.01267  Uiso   1.00
C84    C     0.97310   0.21280   0.23100   0.01267  Uiso   1.00
C85    C     0.33710   0.30940   0.17960   0.01267  Uiso   1.00
C86    C     0.95320   0.92360   0.84140   0.01267  Uiso   1.00
C87    C     0.03180   0.42360   0.34140   0.01267  Uiso   1.00
C88    C     0.81520   0.85060   0.25360   0.01267  Uiso   1.00
C89    C     0.37050   0.39940   0.59860   0.01267  Uiso   1.00
C90    C     0.25240   0.96700   0.11680   0.01267  Uiso   1.00
C91    C     0.80120   0.20120   0.78020   0.01267  Uiso   1.00
C92    C     0.61220   0.62640   0.55760   0.01267  Uiso   1.00
C93    C     0.48360   0.51460   0.57920   0.01267  Uiso   1.00
C94    C     0.01970   0.11580   0.00080   0.01267  Uiso   1.00
C95    C     0.52690   0.57980   0.59280   0.01267  Uiso   1.00
C96    C     0.44030   0.87780   0.78920   0.01267  Uiso   1.00
C97    C     0.83060   0.35060   0.75360   0.01267  Uiso   1.00
C98    C     0.94390   0.51360   0.66720   0.01267  Uiso   1.00
C99    C     0.05100   0.38960   0.48240   0.01267  Uiso   1.00
C100   C     0.39650   0.19060   0.67960   0.01267  Uiso   1.00
C101   C     0.19060   0.11040   0.98240   0.01267  Uiso   1.00
C102   C     0.98320   0.40640   0.39760   0.01267  Uiso   1.00
C103   C     0.61920   0.59360   0.39760   0.01267  Uiso   1.00
C104   C     0.86830   0.71520   0.24280   0.01267  Uiso   1.00
C105   C     0.92390   0.80940   0.67960   0.01267  Uiso   1.00
C106   C     0.75680   0.61320   0.46760   0.01267  Uiso   1.00
C107   C     0.06350   0.78920   0.64360   0.01267  Uiso   1.00
C108   C     0.93720   0.48540   0.57920   0.01267  Uiso   1.00
C109   C     0.41840   0.82920   0.12960   0.01267  Uiso   1.00
C110   C     0.24860   0.10140   0.93060   0.01267  Uiso   1.00
C111   C     0.49850   0.73380   0.80520   0.01267  Uiso   1.00
C112   C     0.97270   0.10080   0.91440   0.01267  Uiso   1.00
C113   C     0.47580   0.30740   0.66500   0.01267  Uiso   1.00
C114   C     0.53320   0.19260   0.16500   0.01267  Uiso   1.00
C115   C     0.47800   0.26040   0.18960   0.01267  Uiso   1.00
C116   C     0.74820   0.98540   0.07920   0.01267  Uiso   1.00
C117   C     0.77560   0.38680   0.46760   0.01267  Uiso   1.00
C118   C     0.61370   0.61580   0.50080   0.01267  Uiso   1.00
C119   C     0.96280   0.90640   0.89760   0.01267  Uiso   1.00
C120   C     0.97950   0.88420   0.00080   0.01267  Uiso   1.00
O1     O     0.68645   0.67020   0.56990   0.01267  Uiso   1.00
O2     O     0.80550   0.94080   0.83280   0.01267  Uiso   1.00
O3     O     0.33163   0.40240   0.55494   0.01267  Uiso   1.00
O4     O     0.38558   0.93324   0.76140   0.01267  Uiso   1.00
O5     O     0.36170   0.05920   0.83280   0.01267  Uiso   1.00
O6     O     0.74620   0.57580   0.31100   0.01267  Uiso   1.00
O7     O     0.04200   0.01780   0.26940   0.01267  Uiso   1.00
O8     O     0.80980   0.48220   0.76940   0.01267  Uiso   1.00
O9     O     0.82345   0.17020   0.06990   0.01267  Uiso   1.00
O10    O     0.07200   0.92420   0.81100   0.01267  Uiso   1.00
O11    O     0.46103   0.90240   0.05494   0.01267  Uiso   1.00
O12    O     0.37890   0.41600   0.22360   0.01267  Uiso   1.00
O13    O     0.49630   0.55920   0.33280   0.01267  Uiso   1.00
O14    O     0.52590   0.88480   0.82300   0.01267  Uiso   1.00
O15    O     0.17090   0.44080   0.33280   0.01267  Uiso   1.00
O16    O     0.42080   0.51780   0.76940   0.01267  Uiso   1.00
O17    O     0.11700   0.07580   0.81100   0.01267  Uiso   1.00
O18    O     0.73150   0.91600   0.72360   0.01267  Uiso   1.00
O19    O     0.06882   0.56676   0.26140   0.01267  Uiso   1.00
O20    O     0.66990   0.58340   0.20740   0.01267  Uiso   1.00
O21    O     0.74365   0.32980   0.56990   0.01267  Uiso   1.00
O22    O     0.51630   0.38480   0.32300   0.01267  Uiso   1.00
O23    O     0.00330   0.91660   0.70740   0.01267  Uiso   1.00
O24    O     0.94280   0.42420   0.31100   0.01267  Uiso   1.00
O25    O     0.28930   0.08340   0.70740   0.01267  Uiso   1.00
O26    O     0.85302   0.06676   0.76140   0.01267  Uiso   1.00
O27    O     0.39750   0.58400   0.22360   0.01267  Uiso   1.00
O28    O     0.48403   0.09760   0.05494   0.01267  Uiso   1.00
O29    O     0.54490   0.08400   0.72360   0.01267  Uiso   1.00
O30    O     0.10665   0.82980   0.06990   0.01267  Uiso   1.00
O31    O     0.65110   0.11520   0.82300   0.01267  Uiso   1.00
O32    O     0.66978   0.43324   0.26140   0.01267  Uiso   1.00
O33    O     0.12270   0.41660   0.20740   0.01267  Uiso   1.00
O34    O     0.68860   0.98220   0.26940   0.01267  Uiso   1.00
O35    O     0.16070   0.61520   0.32300   0.01267  Uiso   1.00
O36    O     0.11343   0.59760   0.55494   0.01267  Uiso   1.00
