data_image0
_cell_length_a       11.6119
_cell_length_b       8.6116
_cell_length_c       8.8761
_cell_angle_alpha    90
_cell_angle_beta     90
_cell_angle_gamma    90

_symmetry_space_group_name_H-M    "P 1"
_symmetry_int_tables_number       1

loop_
  _symmetry_equiv_pos_as_xyz
  'x, y, z'

loop_
  _atom_site_label
  _atom_site_occupancy
  _atom_site_fract_x
  _atom_site_fract_y
  _atom_site_fract_z
  _atom_site_thermal_displace_type
  _atom_site_B_iso_or_equiv
  _atom_site_type_symbol
  N1       1.0000 0.71980  0.58470  0.33950  Biso   1.000  N
  N2       1.0000 0.62560  0.49300  0.34240  Biso   1.000  N
  N3       1.0000 0.63060  0.38890  0.23670  Biso   1.000  N
  N4       1.0000 0.72960  0.41050  0.16190  Biso   1.000  N
  C1       1.0000 0.78220  0.53070  0.22570  Biso   1.000  C
  H1       1.0000 0.85270  0.57120  0.19500  Biso   1.000  H
  N5       1.0000 0.28020  0.41530  0.33950  Biso   1.000  N
  N6       1.0000 0.37440  0.50700  0.34240  Biso   1.000  N
  N7       1.0000 0.36940  0.61110  0.23670  Biso   1.000  N
  N8       1.0000 0.27040  0.58950  0.16190  Biso   1.000  N
  C2       1.0000 0.21780  0.46930  0.22570  Biso   1.000  C
  H2       1.0000 0.14730  0.42880  0.19500  Biso   1.000  H
  N9       1.0000 0.78020  0.08470  0.16050  Biso   1.000  N
  N10      1.0000 0.87440  0.99300  0.15760  Biso   1.000  N
  N11      1.0000 0.86940  0.88890  0.26330  Biso   1.000  N
  N12      1.0000 0.77040  0.91050  0.33810  Biso   1.000  N
  C3       1.0000 0.71780  0.03070  0.27430  Biso   1.000  C
  H3       1.0000 0.64730  0.07120  0.30500  Biso   1.000  H
  N13      1.0000 0.21980  0.91530  0.16050  Biso   1.000  N
  N14      1.0000 0.12560  0.00700  0.15760  Biso   1.000  N
  N15      1.0000 0.13060  0.11110  0.26330  Biso   1.000  N
  N16      1.0000 0.22960  0.08950  0.33810  Biso   1.000  N
  C4       1.0000 0.28220  0.96930  0.27430  Biso   1.000  C
  H4       1.0000 0.35270  0.92880  0.30500  Biso   1.000  H
  N17      1.0000 0.28020  0.41530  0.66050  Biso   1.000  N
  N18      1.0000 0.37440  0.50700  0.65760  Biso   1.000  N
  N19      1.0000 0.36940  0.61110  0.76330  Biso   1.000  N
  N20      1.0000 0.27040  0.58950  0.83810  Biso   1.000  N
  C5       1.0000 0.21780  0.46930  0.77430  Biso   1.000  C
  H5       1.0000 0.14730  0.42880  0.80500  Biso   1.000  H
  N21      1.0000 0.71980  0.58470  0.66050  Biso   1.000  N
  N22      1.0000 0.62560  0.49300  0.65760  Biso   1.000  N
  N23      1.0000 0.63060  0.38890  0.76330  Biso   1.000  N
  N24      1.0000 0.72960  0.41050  0.83810  Biso   1.000  N
  C6       1.0000 0.78220  0.53070  0.77430  Biso   1.000  C
  H6       1.0000 0.85270  0.57120  0.80500  Biso   1.000  H
  N25      1.0000 0.21980  0.91530  0.83950  Biso   1.000  N
  N26      1.0000 0.12560  0.00700  0.84240  Biso   1.000  N
  N27      1.0000 0.13060  0.11110  0.73670  Biso   1.000  N
  N28      1.0000 0.22960  0.08950  0.66190  Biso   1.000  N
  C7       1.0000 0.28220  0.96930  0.72570  Biso   1.000  C
  H7       1.0000 0.35270  0.92880  0.69500  Biso   1.000  H
  N29      1.0000 0.78020  0.08470  0.83950  Biso   1.000  N
  N30      1.0000 0.87440  0.99300  0.84240  Biso   1.000  N
  N31      1.0000 0.86940  0.88890  0.73670  Biso   1.000  N
  N32      1.0000 0.77040  0.91050  0.66190  Biso   1.000  N
  C8       1.0000 0.71780  0.03070  0.72570  Biso   1.000  C
  H8       1.0000 0.64730  0.07120  0.69500  Biso   1.000  H
  Cu1      1.0000 0.73167  0.75605  0.50000  Biso   1.000  Cu
  Cl1      1.0000 0.52122  0.80114  0.50000  Biso   1.000  Cl
  Cu2      1.0000 0.26833  0.24395  0.50000  Biso   1.000  Cu
  Cl2      1.0000 0.47878  0.19886  0.50000  Biso   1.000  Cl
  Cu3      1.0000 0.76833  0.25605  0.00000  Biso   1.000  Cu
  Cl3      1.0000 0.97878  0.30114  0.00000  Biso   1.000  Cl
  Cu4      1.0000 0.23167  0.74395  0.00000  Biso   1.000  Cu
  Cl4      1.0000 0.02122  0.69886  0.00000  Biso   1.000  Cl
  Cu5      1.0000 0.50000  0.50000  0.50000  Biso   1.000  Cu
  Cu6      1.0000 0.00000  0.00000  0.00000  Biso   1.000  Cu
