data_image0
_cell_length_a       12.3275
_cell_length_b       12.3275
_cell_length_c       12.5415
_cell_angle_alpha    90
_cell_angle_beta     90
_cell_angle_gamma    120

_symmetry_space_group_name_H-M    "P 1"
_symmetry_int_tables_number       1

loop_
  _symmetry_equiv_pos_as_xyz
  'x, y, z'

loop_
  _atom_site_label
  _atom_site_occupancy
  _atom_site_fract_x
  _atom_site_fract_y
  _atom_site_fract_z
  _atom_site_thermal_displace_type
  _atom_site_B_iso_or_equiv
  _atom_site_type_symbol
  N1       1.0000 0.35110  0.22670  0.09320  Biso   1.000  N
  N2       1.0000 0.44580  0.30890  0.03260  Biso   1.000  N
  N3       1.0000 0.50300  0.25050  0.99650  Biso   1.000  N
  N4       1.0000 0.44670  0.13380  0.03300  Biso   1.000  N
  N5       1.0000 0.52740  0.47350  0.83610  Biso   1.000  N
  N6       1.0000 0.58790  0.41260  0.80160  Biso   1.000  N
  C1       1.0000 0.35150  0.12050  0.09280  Biso   1.000  C
  H1       1.0000 0.29470  0.04780  0.12850  Biso   1.000  H
  N7       1.0000 0.77330  0.12440  0.09320  Biso   1.000  N
  N8       1.0000 0.69110  0.13690  0.03260  Biso   1.000  N
  N9       1.0000 0.74950  0.25250  0.99650  Biso   1.000  N
  N10      1.0000 0.86620  0.31290  0.03300  Biso   1.000  N
  N11      1.0000 0.52650  0.05390  0.83610  Biso   1.000  N
  N12      1.0000 0.58740  0.17530  0.80160  Biso   1.000  N
  C2       1.0000 0.87950  0.23100  0.09280  Biso   1.000  C
  H2       1.0000 0.95220  0.24690  0.12850  Biso   1.000  H
  N13      1.0000 0.87560  0.64890  0.09320  Biso   1.000  N
  N14      1.0000 0.86310  0.55420  0.03260  Biso   1.000  N
  N15      1.0000 0.74750  0.49700  0.99650  Biso   1.000  N
  N16      1.0000 0.68710  0.55330  0.03300  Biso   1.000  N
  N17      1.0000 0.94610  0.47260  0.83610  Biso   1.000  N
  N18      1.0000 0.82470  0.41210  0.80160  Biso   1.000  N
  C3       1.0000 0.76900  0.64850  0.09280  Biso   1.000  C
  H3       1.0000 0.75310  0.70530  0.12850  Biso   1.000  H
  N19      1.0000 0.77330  0.64890  0.40680  Biso   1.000  N
  N20      1.0000 0.69110  0.55420  0.46740  Biso   1.000  N
  N21      1.0000 0.74950  0.49700  0.50350  Biso   1.000  N
  N22      1.0000 0.86620  0.55330  0.46700  Biso   1.000  N
  N23      1.0000 0.52650  0.47260  0.66390  Biso   1.000  N
  N24      1.0000 0.58740  0.41210  0.69840  Biso   1.000  N
  C4       1.0000 0.87950  0.64850  0.40720  Biso   1.000  C
  H4       1.0000 0.95220  0.70530  0.37150  Biso   1.000  H
  N25      1.0000 0.87560  0.22670  0.40680  Biso   1.000  N
  N26      1.0000 0.86310  0.30890  0.46740  Biso   1.000  N
  N27      1.0000 0.74750  0.25050  0.50350  Biso   1.000  N
  N28      1.0000 0.68710  0.13380  0.46700  Biso   1.000  N
  N29      1.0000 0.94610  0.47350  0.66390  Biso   1.000  N
  N30      1.0000 0.82470  0.41260  0.69840  Biso   1.000  N
  C5       1.0000 0.76900  0.12050  0.40720  Biso   1.000  C
  H5       1.0000 0.75310  0.04780  0.37150  Biso   1.000  H
  N31      1.0000 0.35110  0.12440  0.40680  Biso   1.000  N
  N32      1.0000 0.44580  0.13690  0.46740  Biso   1.000  N
  N33      1.0000 0.50300  0.25250  0.50350  Biso   1.000  N
  N34      1.0000 0.44670  0.31290  0.46700  Biso   1.000  N
  N35      1.0000 0.52740  0.05390  0.66390  Biso   1.000  N
  N36      1.0000 0.58790  0.17530  0.69840  Biso   1.000  N
  C6       1.0000 0.35150  0.23100  0.40720  Biso   1.000  C
  H6       1.0000 0.29470  0.24690  0.37150  Biso   1.000  H
  N37      1.0000 0.64890  0.77330  0.90680  Biso   1.000  N
  N38      1.0000 0.55420  0.69110  0.96740  Biso   1.000  N
  N39      1.0000 0.49700  0.74950  0.00350  Biso   1.000  N
  N40      1.0000 0.55330  0.86620  0.96700  Biso   1.000  N
  N41      1.0000 0.47260  0.52650  0.16390  Biso   1.000  N
  N42      1.0000 0.41210  0.58740  0.19840  Biso   1.000  N
  C7       1.0000 0.64850  0.87950  0.90720  Biso   1.000  C
  H7       1.0000 0.70530  0.95220  0.87150  Biso   1.000  H
  N43      1.0000 0.22670  0.87560  0.90680  Biso   1.000  N
  N44      1.0000 0.30890  0.86310  0.96740  Biso   1.000  N
  N45      1.0000 0.25050  0.74750  0.00350  Biso   1.000  N
  N46      1.0000 0.13380  0.68710  0.96700  Biso   1.000  N
  N47      1.0000 0.47350  0.94610  0.16390  Biso   1.000  N
  N48      1.0000 0.41260  0.82470  0.19840  Biso   1.000  N
  C8       1.0000 0.12050  0.76900  0.90720  Biso   1.000  C
  H8       1.0000 0.04780  0.75310  0.87150  Biso   1.000  H
  N49      1.0000 0.12440  0.35110  0.90680  Biso   1.000  N
  N50      1.0000 0.13690  0.44580  0.96740  Biso   1.000  N
  N51      1.0000 0.25250  0.50300  0.00350  Biso   1.000  N
  N52      1.0000 0.31290  0.44670  0.96700  Biso   1.000  N
  N53      1.0000 0.05390  0.52740  0.16390  Biso   1.000  N
  N54      1.0000 0.17530  0.58790  0.19840  Biso   1.000  N
  C9       1.0000 0.23100  0.35150  0.90720  Biso   1.000  C
  H9       1.0000 0.24690  0.29470  0.87150  Biso   1.000  H
  N55      1.0000 0.22670  0.35110  0.59320  Biso   1.000  N
  N56      1.0000 0.30890  0.44580  0.53260  Biso   1.000  N
  N57      1.0000 0.25050  0.50300  0.49650  Biso   1.000  N
  N58      1.0000 0.13380  0.44670  0.53300  Biso   1.000  N
  N59      1.0000 0.47350  0.52740  0.33610  Biso   1.000  N
  N60      1.0000 0.41260  0.58790  0.30160  Biso   1.000  N
  C10      1.0000 0.12050  0.35150  0.59280  Biso   1.000  C
  H10      1.0000 0.04780  0.29470  0.62850  Biso   1.000  H
  N61      1.0000 0.12440  0.77330  0.59320  Biso   1.000  N
  N62      1.0000 0.13690  0.69110  0.53260  Biso   1.000  N
  N63      1.0000 0.25250  0.74950  0.49650  Biso   1.000  N
  N64      1.0000 0.31290  0.86620  0.53300  Biso   1.000  N
  N65      1.0000 0.05390  0.52650  0.33610  Biso   1.000  N
  N66      1.0000 0.17530  0.58740  0.30160  Biso   1.000  N
  C11      1.0000 0.23100  0.87950  0.59280  Biso   1.000  C
  H11      1.0000 0.24690  0.95220  0.62850  Biso   1.000  H
  N67      1.0000 0.64890  0.87560  0.59320  Biso   1.000  N
  N68      1.0000 0.55420  0.86310  0.53260  Biso   1.000  N
  N69      1.0000 0.49700  0.74750  0.49650  Biso   1.000  N
  N70      1.0000 0.55330  0.68710  0.53300  Biso   1.000  N
  N71      1.0000 0.47260  0.94610  0.33610  Biso   1.000  N
  N72      1.0000 0.41210  0.82470  0.30160  Biso   1.000  N
  C12      1.0000 0.64850  0.76900  0.59280  Biso   1.000  C
  H12      1.0000 0.70530  0.75310  0.62850  Biso   1.000  H
  Cu1      1.0000 0.50000  0.50000  0.00000  Biso   1.000  Cu
  Cu2      1.0000 0.50000  0.00000  0.00000  Biso   1.000  Cu
  Cu3      1.0000 0.00000  0.50000  0.00000  Biso   1.000  Cu
  Cu4      1.0000 0.50000  0.50000  0.50000  Biso   1.000  Cu
  Cu5      1.0000 0.00000  0.50000  0.50000  Biso   1.000  Cu
  Cu6      1.0000 0.50000  0.00000  0.50000  Biso   1.000  Cu
  Cu7      1.0000 0.66667  0.33333  0.90079  Biso   1.000  Cu
  Cu8      1.0000 0.66667  0.33333  0.59921  Biso   1.000  Cu
  Cu9      1.0000 0.33333  0.66667  0.09921  Biso   1.000  Cu
  Cu10     1.0000 0.33333  0.66667  0.40079  Biso   1.000  Cu
  C13      1.0000 0.49080  0.50920  0.75000  Biso   1.000  C
  H13      1.0000 0.44730  0.55270  0.75000  Biso   1.000  H
  C14      1.0000 0.49080  0.98160  0.75000  Biso   1.000  C
  H14      1.0000 0.44730  0.89460  0.75000  Biso   1.000  H
  C15      1.0000 0.01840  0.50920  0.75000  Biso   1.000  C
  H15      1.0000 0.10540  0.55270  0.75000  Biso   1.000  H
  C16      1.0000 0.50920  0.49080  0.25000  Biso   1.000  C
  H16      1.0000 0.55270  0.44730  0.25000  Biso   1.000  H
  C17      1.0000 0.50920  0.01840  0.25000  Biso   1.000  C
  H17      1.0000 0.55270  0.10540  0.25000  Biso   1.000  H
  C18      1.0000 0.98160  0.49080  0.25000  Biso   1.000  C
  H18      1.0000 0.89460  0.44730  0.25000  Biso   1.000  H
