data_TOTVUV_clean
_audit_creation_date              2015-10-16
_audit_creation_method            'Materials Studio'
_symmetry_space_group_name_H-M    'P1'
_symmetry_Int_Tables_number       1
_symmetry_cell_setting            triclinic
loop_
_symmetry_equiv_pos_as_xyz
  x,y,z
_cell_length_a                    7.3781
_cell_length_b                    13.5740
_cell_length_c                    13.5780
_cell_angle_alpha                 113.1810
_cell_angle_beta                  103.8410
_cell_angle_gamma                 90.9520
loop_
_atom_site_label
_atom_site_type_symbol
_atom_site_fract_x
_atom_site_fract_y
_atom_site_fract_z
_atom_site_U_iso_or_equiv
_atom_site_adp_type
_atom_site_occupancy
Cd1    Cd    0.31565   0.22785   0.98577   0.01267  Uiso   1.00
Cd2    Cd    0.36573   0.76845   0.60502   0.01267  Uiso   1.00
Cd3    Cd    0.82032   0.24499   0.00416   0.01267  Uiso   1.00
Cd4    Cd    0.60071   0.43771   0.23774   0.01267  Uiso   1.00
Cd5    Cd    0.17968   0.75501   0.99584   0.01267  Uiso   1.00
Cd6    Cd    0.39929   0.56229   0.76226   0.01267  Uiso   1.00
Cd7    Cd    0.68435   0.77215   0.01423   0.01267  Uiso   1.00
Cd8    Cd    0.63427   0.23155   0.39498   0.01267  Uiso   1.00
Cd9    Cd    0.50000   0.50000   0.50000   0.01267  Uiso   1.00
H1     H     0.08040   0.22530   0.51850   0.01267  Uiso   1.00
H2     H     0.78380   0.40020   0.75360   0.01267  Uiso   1.00
H3     H     0.80650   0.71690   0.35630   0.01267  Uiso   1.00
H4     H     0.90460   0.40520   0.86730   0.01267  Uiso   1.00
H5     H     0.82580   0.89370   0.73380   0.01267  Uiso   1.00
H6     H     0.07060   0.99920   0.16540   0.01267  Uiso   1.00
H7     H     0.09540   0.59480   0.13270   0.01267  Uiso   1.00
H8     H     0.91960   0.77470   0.48150   0.01267  Uiso   1.00
H9     H     0.17420   0.10630   0.26620   0.01267  Uiso   1.00
H10    H     0.21620   0.59980   0.24640   0.01267  Uiso   1.00
H11    H     0.92940   0.00080   0.83460   0.01267  Uiso   1.00
H12    H     0.19350   0.28310   0.64370   0.01267  Uiso   1.00
C1     C     0.95890   0.61760   0.41170   0.01267  Uiso   1.00
C2     C     0.37160   0.59680   0.14250   0.01267  Uiso   1.00
C3     C     0.83090   0.94140   0.80990   0.01267  Uiso   1.00
C4     C     0.66690   0.69390   0.46040   0.01267  Uiso   1.00
C5     C     0.62840   0.40320   0.85750   0.01267  Uiso   1.00
C6     C     0.16910   0.05860   0.19010   0.01267  Uiso   1.00
C7     C     0.64680   0.98450   0.81400   0.01267  Uiso   1.00
C8     C     0.19880   0.56540   0.16660   0.01267  Uiso   1.00
C9     C     0.15700   0.29140   0.57410   0.01267  Uiso   1.00
C10    C     0.14020   0.44490   0.12800   0.01267  Uiso   1.00
C11    C     0.33310   0.30610   0.53960   0.01267  Uiso   1.00
C12    C     0.35320   0.01550   0.18600   0.01267  Uiso   1.00
C13    C     0.80120   0.43460   0.83340   0.01267  Uiso   1.00
C14    C     0.85980   0.55510   0.87200   0.01267  Uiso   1.00
C15    C     0.12230   0.12060   0.11610   0.01267  Uiso   1.00
C16    C     0.04110   0.38240   0.58830   0.01267  Uiso   1.00
C17    C     0.84300   0.70860   0.42590   0.01267  Uiso   1.00
C18    C     0.87770   0.87940   0.88390   0.01267  Uiso   1.00
N1     N     0.62660   0.08220   0.88290   0.01267  Uiso   1.00
N2     N     0.65830   0.60690   0.13200   0.01267  Uiso   1.00
N3     N     0.34830   0.98920   0.79440   0.01267  Uiso   1.00
N4     N     0.04810   0.81440   0.21130   0.01267  Uiso   1.00
N5     N     0.88490   0.16650   0.69880   0.01267  Uiso   1.00
N6     N     0.18900   0.52750   0.43190   0.01267  Uiso   1.00
N7     N     0.43770   0.08230   0.86870   0.01267  Uiso   1.00
N8     N     0.04290   0.45810   0.36450   0.01267  Uiso   1.00
N9     N     0.65170   0.01080   0.20560   0.01267  Uiso   1.00
N10    N     0.98540   0.79130   0.11540   0.01267  Uiso   1.00
N11    N     0.10200   0.48610   0.64860   0.01267  Uiso   1.00
N12    N     0.61460   0.33490   0.90410   0.01267  Uiso   1.00
N13    N     0.34170   0.39310   0.86800   0.01267  Uiso   1.00
N14    N     0.37340   0.91780   0.11710   0.01267  Uiso   1.00
N15    N     0.95190   0.18560   0.78870   0.01267  Uiso   1.00
N16    N     0.53790   0.55910   0.16470   0.01267  Uiso   1.00
N17    N     0.11510   0.83350   0.30120   0.01267  Uiso   1.00
N18    N     0.56570   0.66920   0.09040   0.01267  Uiso   1.00
N19    N     0.95710   0.54190   0.63550   0.01267  Uiso   1.00
N20    N     0.46210   0.44090   0.83530   0.01267  Uiso   1.00
N21    N     0.81100   0.47250   0.56810   0.01267  Uiso   1.00
N22    N     0.38540   0.66510   0.09590   0.01267  Uiso   1.00
N23    N     0.86010   0.37200   0.53740   0.01267  Uiso   1.00
N24    N     0.56230   0.91770   0.13130   0.01267  Uiso   1.00
N25    N     0.89800   0.51390   0.35140   0.01267  Uiso   1.00
N26    N     0.01460   0.20870   0.88460   0.01267  Uiso   1.00
N27    N     0.13990   0.62800   0.46260   0.01267  Uiso   1.00
N28    N     0.52040   0.07360   0.24210   0.01267  Uiso   1.00
N29    N     0.47960   0.92640   0.75790   0.01267  Uiso   1.00
N30    N     0.43430   0.33080   0.90960   0.01267  Uiso   1.00
O1     O     0.57310   0.60100   0.41150   0.01267  Uiso   1.00
O2     O     0.62060   0.77370   0.53040   0.01267  Uiso   1.00
O3     O     0.02880   0.83760   0.88500   0.01267  Uiso   1.00
O4     O     0.42690   0.39900   0.58850   0.01267  Uiso   1.00
O5     O     0.26950   0.38470   0.13350   0.01267  Uiso   1.00
O6     O     0.50280   0.64110   0.66060   0.01267  Uiso   1.00
O7     O     0.37940   0.22630   0.46960   0.01267  Uiso   1.00
O8     O     0.61020   0.27610   0.10800   0.01267  Uiso   1.00
O9     O     0.76510   0.87700   0.93770   0.01267  Uiso   1.00
O10    O     0.23490   0.12300   0.06230   0.01267  Uiso   1.00
O11    O     0.97010   0.41440   0.09600   0.01267  Uiso   1.00
O12    O     0.49720   0.35890   0.33940   0.01267  Uiso   1.00
O13    O     0.73050   0.61530   0.86650   0.01267  Uiso   1.00
O14    O     0.02990   0.58560   0.90400   0.01267  Uiso   1.00
O15    O     0.38980   0.72390   0.89200   0.01267  Uiso   1.00
O16    O     0.97120   0.16240   0.11500   0.01267  Uiso   1.00
