data_image0
_cell_length_a       16.852
_cell_length_b       17.116
_cell_length_c       9.7103
_cell_angle_alpha    90
_cell_angle_beta     118.683
_cell_angle_gamma    90

_symmetry_space_group_name_H-M    "P 1"
_symmetry_int_tables_number       1

loop_
  _symmetry_equiv_pos_as_xyz
  'x, y, z'

loop_
  _atom_site_label
  _atom_site_occupancy
  _atom_site_fract_x
  _atom_site_fract_y
  _atom_site_fract_z
  _atom_site_thermal_displace_type
  _atom_site_B_iso_or_equiv
  _atom_site_type_symbol
  O1       1.0000 0.14040  0.18910  0.59360  Biso   1.000  O
  C1       1.0000 0.06300  0.16010  0.50280  Biso   1.000  C
  Zn1      1.0000 0.73316  0.39211  0.15579  Biso   1.000  Zn
  N1       1.0000 0.74530  0.47520  0.30960  Biso   1.000  N
  N2       1.0000 0.84320  0.32020  0.26580  Biso   1.000  N
  C2       1.0000 0.92540  0.34570  0.36300  Biso   1.000  C
  H1       1.0000 0.93400  0.39930  0.37860  Biso   1.000  H
  C3       1.0000 0.83090  0.24260  0.24220  Biso   1.000  C
  H2       1.0000 0.77370  0.22370  0.17270  Biso   1.000  H
  C4       1.0000 0.90160  0.19010  0.31900  Biso   1.000  C
  H3       1.0000 0.89140  0.13670  0.30180  Biso   1.000  H
  C5       1.0000 0.70910  0.48880  0.40060  Biso   1.000  C
  N3       1.0000 0.74630  0.55320  0.48550  Biso   1.000  N
  N4       1.0000 0.80690  0.53280  0.33830  Biso   1.000  N
  N5       1.0000 0.80700  0.57940  0.44380  Biso   1.000  N
  C6       1.0000 0.98650  0.21720  0.42010  Biso   1.000  C
  C7       1.0000 0.63860  0.44030  0.40810  Biso   1.000  C
  H4       1.0000 0.58180  0.44850  0.31510  Biso   1.000  H
  H5       1.0000 0.63310  0.45490  0.49860  Biso   1.000  H
  H6       1.0000 0.65510  0.38620  0.41560  Biso   1.000  H
  C8       1.0000 0.99970  0.29740  0.44320  Biso   1.000  C
  H7       1.0000 0.05650  0.31790  0.51010  Biso   1.000  H
  O2       1.0000 0.04830  0.09000  0.47740  Biso   1.000  O
  O3       1.0000 0.64040  0.68910  0.59360  Biso   1.000  O
  C9       1.0000 0.56300  0.66010  0.50280  Biso   1.000  C
  Zn2      1.0000 0.23316  0.89211  0.15579  Biso   1.000  Zn
  N6       1.0000 0.24530  0.97520  0.30960  Biso   1.000  N
  N7       1.0000 0.34320  0.82020  0.26580  Biso   1.000  N
  C10      1.0000 0.42540  0.84570  0.36300  Biso   1.000  C
  H8       1.0000 0.43400  0.89930  0.37860  Biso   1.000  H
  C11      1.0000 0.33090  0.74260  0.24220  Biso   1.000  C
  H9       1.0000 0.27370  0.72370  0.17270  Biso   1.000  H
  C12      1.0000 0.40160  0.69010  0.31900  Biso   1.000  C
  H10      1.0000 0.39140  0.63670  0.30180  Biso   1.000  H
  C13      1.0000 0.20910  0.98880  0.40060  Biso   1.000  C
  N8       1.0000 0.24630  0.05320  0.48550  Biso   1.000  N
  N9       1.0000 0.30690  0.03280  0.33830  Biso   1.000  N
  N10      1.0000 0.30700  0.07940  0.44380  Biso   1.000  N
  C14      1.0000 0.48650  0.71720  0.42010  Biso   1.000  C
  C15      1.0000 0.13860  0.94030  0.40810  Biso   1.000  C
  H11      1.0000 0.08180  0.94850  0.31510  Biso   1.000  H
  H12      1.0000 0.13310  0.95490  0.49860  Biso   1.000  H
  H13      1.0000 0.15510  0.88620  0.41560  Biso   1.000  H
  C16      1.0000 0.49970  0.79740  0.44320  Biso   1.000  C
  H14      1.0000 0.55650  0.81790  0.51010  Biso   1.000  H
  O4       1.0000 0.54830  0.59000  0.47740  Biso   1.000  O
  O5       1.0000 0.14040  0.81090  0.09360  Biso   1.000  O
  C17      1.0000 0.06300  0.83990  0.00280  Biso   1.000  C
  Zn3      1.0000 0.73316  0.60789  0.65579  Biso   1.000  Zn
  N11      1.0000 0.74530  0.52480  0.80960  Biso   1.000  N
  N12      1.0000 0.84320  0.67980  0.76580  Biso   1.000  N
  C18      1.0000 0.92540  0.65430  0.86300  Biso   1.000  C
  H15      1.0000 0.93400  0.60070  0.87860  Biso   1.000  H
  C19      1.0000 0.83090  0.75740  0.74220  Biso   1.000  C
  H16      1.0000 0.77370  0.77630  0.67270  Biso   1.000  H
  C20      1.0000 0.90160  0.80990  0.81900  Biso   1.000  C
  H17      1.0000 0.89140  0.86330  0.80180  Biso   1.000  H
  C21      1.0000 0.70910  0.51120  0.90060  Biso   1.000  C
  N13      1.0000 0.74630  0.44680  0.98550  Biso   1.000  N
  N14      1.0000 0.80690  0.46720  0.83830  Biso   1.000  N
  N15      1.0000 0.80700  0.42060  0.94380  Biso   1.000  N
  C22      1.0000 0.98650  0.78280  0.92010  Biso   1.000  C
  C23      1.0000 0.63860  0.55970  0.90810  Biso   1.000  C
  H18      1.0000 0.58180  0.55150  0.81510  Biso   1.000  H
  H19      1.0000 0.63310  0.54510  0.99860  Biso   1.000  H
  H20      1.0000 0.65510  0.61380  0.91560  Biso   1.000  H
  C24      1.0000 0.99970  0.70260  0.94320  Biso   1.000  C
  H21      1.0000 0.05650  0.68210  0.01010  Biso   1.000  H
  O6       1.0000 0.04830  0.91000  0.97740  Biso   1.000  O
  O7       1.0000 0.64040  0.31090  0.09360  Biso   1.000  O
  C25      1.0000 0.56300  0.33990  0.00280  Biso   1.000  C
  Zn4      1.0000 0.23316  0.10789  0.65579  Biso   1.000  Zn
  N16      1.0000 0.24530  0.02480  0.80960  Biso   1.000  N
  N17      1.0000 0.34320  0.17980  0.76580  Biso   1.000  N
  C26      1.0000 0.42540  0.15430  0.86300  Biso   1.000  C
  H22      1.0000 0.43400  0.10070  0.87860  Biso   1.000  H
  C27      1.0000 0.33090  0.25740  0.74220  Biso   1.000  C
  H23      1.0000 0.27370  0.27630  0.67270  Biso   1.000  H
  C28      1.0000 0.40160  0.30990  0.81900  Biso   1.000  C
  H24      1.0000 0.39140  0.36330  0.80180  Biso   1.000  H
  C29      1.0000 0.20910  0.01120  0.90060  Biso   1.000  C
  N18      1.0000 0.24630  0.94680  0.98550  Biso   1.000  N
  N19      1.0000 0.30690  0.96720  0.83830  Biso   1.000  N
  N20      1.0000 0.30700  0.92060  0.94380  Biso   1.000  N
  C30      1.0000 0.48650  0.28280  0.92010  Biso   1.000  C
  C31      1.0000 0.13860  0.05970  0.90810  Biso   1.000  C
  H25      1.0000 0.08180  0.05150  0.81510  Biso   1.000  H
  H26      1.0000 0.13310  0.04510  0.99860  Biso   1.000  H
  H27      1.0000 0.15510  0.11380  0.91560  Biso   1.000  H
  C32      1.0000 0.49970  0.20260  0.94320  Biso   1.000  C
  H28      1.0000 0.55650  0.18210  0.01010  Biso   1.000  H
  O8       1.0000 0.54830  0.41000  0.97740  Biso   1.000  O
  O9       1.0000 0.85960  0.18910  0.90640  Biso   1.000  O
  C33      1.0000 0.93700  0.16010  0.99720  Biso   1.000  C
  Zn5      1.0000 0.26684  0.39211  0.34421  Biso   1.000  Zn
  N21      1.0000 0.25470  0.47520  0.19040  Biso   1.000  N
  N22      1.0000 0.15680  0.32020  0.23420  Biso   1.000  N
  C34      1.0000 0.07460  0.34570  0.13700  Biso   1.000  C
  H29      1.0000 0.06600  0.39930  0.12140  Biso   1.000  H
  C35      1.0000 0.16910  0.24260  0.25780  Biso   1.000  C
  H30      1.0000 0.22630  0.22370  0.32730  Biso   1.000  H
  C36      1.0000 0.09840  0.19010  0.18100  Biso   1.000  C
  H31      1.0000 0.10860  0.13670  0.19820  Biso   1.000  H
  C37      1.0000 0.29090  0.48880  0.09940  Biso   1.000  C
  N23      1.0000 0.25370  0.55320  0.01450  Biso   1.000  N
  N24      1.0000 0.19310  0.53280  0.16170  Biso   1.000  N
  N25      1.0000 0.19300  0.57940  0.05620  Biso   1.000  N
  C38      1.0000 0.01350  0.21720  0.07990  Biso   1.000  C
  C39      1.0000 0.36140  0.44030  0.09190  Biso   1.000  C
  H32      1.0000 0.41820  0.44850  0.18490  Biso   1.000  H
  H33      1.0000 0.36690  0.45490  0.00140  Biso   1.000  H
  H34      1.0000 0.34490  0.38620  0.08440  Biso   1.000  H
  C40      1.0000 0.00030  0.29740  0.05680  Biso   1.000  C
  H35      1.0000 0.94350  0.31790  0.98990  Biso   1.000  H
  O10      1.0000 0.95170  0.09000  0.02260  Biso   1.000  O
  O11      1.0000 0.35960  0.68910  0.90640  Biso   1.000  O
  C41      1.0000 0.43700  0.66010  0.99720  Biso   1.000  C
  Zn6      1.0000 0.76684  0.89211  0.34421  Biso   1.000  Zn
  N26      1.0000 0.75470  0.97520  0.19040  Biso   1.000  N
  N27      1.0000 0.65680  0.82020  0.23420  Biso   1.000  N
  C42      1.0000 0.57460  0.84570  0.13700  Biso   1.000  C
  H36      1.0000 0.56600  0.89930  0.12140  Biso   1.000  H
  C43      1.0000 0.66910  0.74260  0.25780  Biso   1.000  C
  H37      1.0000 0.72630  0.72370  0.32730  Biso   1.000  H
  C44      1.0000 0.59840  0.69010  0.18100  Biso   1.000  C
  H38      1.0000 0.60860  0.63670  0.19820  Biso   1.000  H
  C45      1.0000 0.79090  0.98880  0.09940  Biso   1.000  C
  N28      1.0000 0.75370  0.05320  0.01450  Biso   1.000  N
  N29      1.0000 0.69310  0.03280  0.16170  Biso   1.000  N
  N30      1.0000 0.69300  0.07940  0.05620  Biso   1.000  N
  C46      1.0000 0.51350  0.71720  0.07990  Biso   1.000  C
  C47      1.0000 0.86140  0.94030  0.09190  Biso   1.000  C
  H39      1.0000 0.91820  0.94850  0.18490  Biso   1.000  H
  H40      1.0000 0.86690  0.95490  0.00140  Biso   1.000  H
  H41      1.0000 0.84490  0.88620  0.08440  Biso   1.000  H
  C48      1.0000 0.50030  0.79740  0.05680  Biso   1.000  C
  H42      1.0000 0.44350  0.81790  0.98990  Biso   1.000  H
  O12      1.0000 0.45170  0.59000  0.02260  Biso   1.000  O
  O13      1.0000 0.85960  0.81090  0.40640  Biso   1.000  O
  C49      1.0000 0.93700  0.83990  0.49720  Biso   1.000  C
  Zn7      1.0000 0.26684  0.60789  0.84421  Biso   1.000  Zn
  N31      1.0000 0.25470  0.52480  0.69040  Biso   1.000  N
  N32      1.0000 0.15680  0.67980  0.73420  Biso   1.000  N
  C50      1.0000 0.07460  0.65430  0.63700  Biso   1.000  C
  H43      1.0000 0.06600  0.60070  0.62140  Biso   1.000  H
  C51      1.0000 0.16910  0.75740  0.75780  Biso   1.000  C
  H44      1.0000 0.22630  0.77630  0.82730  Biso   1.000  H
  C52      1.0000 0.09840  0.80990  0.68100  Biso   1.000  C
  H45      1.0000 0.10860  0.86330  0.69820  Biso   1.000  H
  C53      1.0000 0.29090  0.51120  0.59940  Biso   1.000  C
  N33      1.0000 0.25370  0.44680  0.51450  Biso   1.000  N
  N34      1.0000 0.19310  0.46720  0.66170  Biso   1.000  N
  N35      1.0000 0.19300  0.42060  0.55620  Biso   1.000  N
  C54      1.0000 0.01350  0.78280  0.57990  Biso   1.000  C
  C55      1.0000 0.36140  0.55970  0.59190  Biso   1.000  C
  H46      1.0000 0.41820  0.55150  0.68490  Biso   1.000  H
  H47      1.0000 0.36690  0.54510  0.50140  Biso   1.000  H
  H48      1.0000 0.34490  0.61380  0.58440  Biso   1.000  H
  C56      1.0000 0.00030  0.70260  0.55680  Biso   1.000  C
  H49      1.0000 0.94350  0.68210  0.48990  Biso   1.000  H
  O14      1.0000 0.95170  0.91000  0.52260  Biso   1.000  O
  O15      1.0000 0.35960  0.31090  0.40640  Biso   1.000  O
  C57      1.0000 0.43700  0.33990  0.49720  Biso   1.000  C
  Zn8      1.0000 0.76684  0.10789  0.84421  Biso   1.000  Zn
  N36      1.0000 0.75470  0.02480  0.69040  Biso   1.000  N
  N37      1.0000 0.65680  0.17980  0.73420  Biso   1.000  N
  C58      1.0000 0.57460  0.15430  0.63700  Biso   1.000  C
  H50      1.0000 0.56600  0.10070  0.62140  Biso   1.000  H
  C59      1.0000 0.66910  0.25740  0.75780  Biso   1.000  C
  H51      1.0000 0.72630  0.27630  0.82730  Biso   1.000  H
  C60      1.0000 0.59840  0.30990  0.68100  Biso   1.000  C
  H52      1.0000 0.60860  0.36330  0.69820  Biso   1.000  H
  C61      1.0000 0.79090  0.01120  0.59940  Biso   1.000  C
  N38      1.0000 0.75370  0.94680  0.51450  Biso   1.000  N
  N39      1.0000 0.69310  0.96720  0.66170  Biso   1.000  N
  N40      1.0000 0.69300  0.92060  0.55620  Biso   1.000  N
  C62      1.0000 0.51350  0.28280  0.57990  Biso   1.000  C
  C63      1.0000 0.86140  0.05970  0.59190  Biso   1.000  C
  H53      1.0000 0.91820  0.05150  0.68490  Biso   1.000  H
  H54      1.0000 0.86690  0.04510  0.50140  Biso   1.000  H
  H55      1.0000 0.84490  0.11380  0.58440  Biso   1.000  H
  C64      1.0000 0.50030  0.20260  0.55680  Biso   1.000  C
  H56      1.0000 0.44350  0.18210  0.48990  Biso   1.000  H
  O16      1.0000 0.45170  0.41000  0.52260  Biso   1.000  O
