data_TOVHUJ_clean
_audit_creation_date              2015-10-16
_audit_creation_method            'Materials Studio'
_symmetry_space_group_name_H-M    'P1'
_symmetry_Int_Tables_number       1
_symmetry_cell_setting            triclinic
loop_
_symmetry_equiv_pos_as_xyz
  x,y,z
_cell_length_a                    9.8918
_cell_length_b                    23.5700
_cell_length_c                    15.3668
_cell_angle_alpha                 90.0000
_cell_angle_beta                  90.0000
_cell_angle_gamma                 90.0000
loop_
_atom_site_label
_atom_site_type_symbol
_atom_site_fract_x
_atom_site_fract_y
_atom_site_fract_z
_atom_site_U_iso_or_equiv
_atom_site_adp_type
_atom_site_occupancy
Fe1    Fe    0.29528   0.56928   0.13681   0.01267  Uiso   1.00
Fe2    Fe    0.49071   0.50000   0.27423   0.01267  Uiso   1.00
Fe3    Fe    0.70472   0.93072   0.63681   0.01267  Uiso   1.00
Fe4    Fe    0.70472   0.06928   0.63681   0.01267  Uiso   1.00
Fe5    Fe    0.50929   0.00000   0.77423   0.01267  Uiso   1.00
Fe6    Fe    0.29528   0.43072   0.13681   0.01267  Uiso   1.00
H1     H     0.61290   0.79690   0.07160   0.01267  Uiso   1.00
H2     H     0.08640   0.24750   0.40930   0.01267  Uiso   1.00
H3     H     0.91360   0.25250   0.90930   0.01267  Uiso   1.00
H4     H     0.13170   0.67490   0.31900   0.01267  Uiso   1.00
H5     H     0.13170   0.32510   0.31900   0.01267  Uiso   1.00
H6     H     0.00450   0.21010   0.53750   0.01267  Uiso   1.00
H7     H     0.91360   0.74750   0.90930   0.01267  Uiso   1.00
H8     H     0.56760   0.87450   0.98130   0.01267  Uiso   1.00
H9     H     0.59210   0.30200   0.07980   0.01267  Uiso   1.00
H10    H     0.84260   0.42670   0.16330   0.01267  Uiso   1.00
H11    H     0.43240   0.37450   0.48130   0.01267  Uiso   1.00
H12    H     0.61290   0.20310   0.07160   0.01267  Uiso   1.00
H13    H     0.43240   0.62550   0.48130   0.01267  Uiso   1.00
H14    H     0.40790   0.19800   0.57980   0.01267  Uiso   1.00
H15    H     0.15740   0.92670   0.66330   0.01267  Uiso   1.00
H16    H     0.38710   0.29690   0.57160   0.01267  Uiso   1.00
H17    H     0.56760   0.12550   0.98130   0.01267  Uiso   1.00
H18    H     0.86830   0.17490   0.81900   0.01267  Uiso   1.00
H19    H     0.99550   0.28990   0.03750   0.01267  Uiso   1.00
H20    H     0.15740   0.07330   0.66330   0.01267  Uiso   1.00
H21    H     0.84260   0.57330   0.16330   0.01267  Uiso   1.00
H22    H     0.00450   0.78990   0.53750   0.01267  Uiso   1.00
H23    H     0.59210   0.69800   0.07980   0.01267  Uiso   1.00
H24    H     0.38710   0.70310   0.57160   0.01267  Uiso   1.00
H25    H     0.08640   0.75250   0.40930   0.01267  Uiso   1.00
H26    H     0.99550   0.71010   0.03750   0.01267  Uiso   1.00
H27    H     0.40790   0.80200   0.57980   0.01267  Uiso   1.00
H28    H     0.86830   0.82510   0.81900   0.01267  Uiso   1.00
C1     C     0.82937   0.60872   0.13500   0.01267  Uiso   1.00
C2     C     0.92016   0.31005   0.06010   0.01267  Uiso   1.00
C3     C     0.79057   0.71220   0.05178   0.01267  Uiso   1.00
C4     C     0.20943   0.21220   0.55178   0.01267  Uiso   1.00
C5     C     0.92016   0.68995   0.06010   0.01267  Uiso   1.00
C6     C     0.36220   0.65126   0.46666   0.01267  Uiso   1.00
C7     C     0.23252   0.73517   0.49900   0.01267  Uiso   1.00
C8     C     0.28635   0.35713   0.39162   0.01267  Uiso   1.00
C9     C     0.93947   0.36181   0.10160   0.01267  Uiso   1.00
C10    C     0.30015   0.13105   0.62700   0.01267  Uiso   1.00
C11    C     0.76748   0.76483   0.99900   0.01267  Uiso   1.00
C12    C     0.42030   0.90239   0.65710   0.01267  Uiso   1.00
C13    C     0.17063   0.10872   0.63500   0.01267  Uiso   1.00
C14    C     0.32590   0.40061   0.32650   0.01267  Uiso   1.00
C15    C     0.66473   0.19741   0.02034   0.01267  Uiso   1.00
C16    C     0.71365   0.85713   0.89162   0.01267  Uiso   1.00
C17    C     0.20943   0.78780   0.55178   0.01267  Uiso   1.00
C18    C     0.76748   0.23517   0.99900   0.01267  Uiso   1.00
C19    C     0.84340   0.77328   0.92390   0.01267  Uiso   1.00
C20    C     0.18350   0.31937   0.37027   0.01267  Uiso   1.00
C21    C     0.18350   0.68063   0.37027   0.01267  Uiso   1.00
C22    C     0.33527   0.69741   0.52034   0.01267  Uiso   1.00
C23    C     0.32770   0.50000   0.87980   0.01267  Uiso   1.00
C24    C     0.81650   0.81937   0.87027   0.01267  Uiso   1.00
C25    C     0.69985   0.36895   0.12700   0.01267  Uiso   1.00
C26    C     0.07984   0.81005   0.56010   0.01267  Uiso   1.00
C27    C     0.67230   0.00000   0.37980   0.01267  Uiso   1.00
C28    C     0.31944   0.18277   0.58536   0.01267  Uiso   1.00
C29    C     0.71365   0.14287   0.89162   0.01267  Uiso   1.00
C30    C     0.79057   0.28780   0.05178   0.01267  Uiso   1.00
C31    C     0.57970   0.59761   0.15710   0.01267  Uiso   1.00
C32    C     0.07984   0.18995   0.56010   0.01267  Uiso   1.00
C33    C     0.23252   0.26483   0.49900   0.01267  Uiso   1.00
C34    C     0.06053   0.13819   0.60160   0.01267  Uiso   1.00
C35    C     0.33527   0.30259   0.52034   0.01267  Uiso   1.00
C36    C     0.66473   0.80259   0.02034   0.01267  Uiso   1.00
C37    C     0.81650   0.18063   0.87027   0.01267  Uiso   1.00
C38    C     0.32590   0.59939   0.32650   0.01267  Uiso   1.00
C39    C     0.68056   0.31723   0.08536   0.01267  Uiso   1.00
C40    C     0.57970   0.40239   0.15710   0.01267  Uiso   1.00
C41    C     0.17063   0.89128   0.63500   0.01267  Uiso   1.00
C42    C     0.31944   0.81723   0.58536   0.01267  Uiso   1.00
C43    C     0.84340   0.22672   0.92390   0.01267  Uiso   1.00
C44    C     0.92360   0.11325   0.61200   0.01267  Uiso   1.00
C45    C     0.68650   0.00000   0.47320   0.01267  Uiso   1.00
C46    C     0.15660   0.27328   0.42390   0.01267  Uiso   1.00
C47    C     0.69985   0.63105   0.12700   0.01267  Uiso   1.00
C48    C     0.15660   0.72672   0.42390   0.01267  Uiso   1.00
C49    C     0.82937   0.39128   0.13500   0.01267  Uiso   1.00
C50    C     0.63780   0.84874   0.96666   0.01267  Uiso   1.00
C51    C     0.68056   0.68277   0.08536   0.01267  Uiso   1.00
C52    C     0.67410   0.90061   0.82650   0.01267  Uiso   1.00
C53    C     0.07640   0.38675   0.11200   0.01267  Uiso   1.00
C54    C     0.92360   0.88675   0.61200   0.01267  Uiso   1.00
C55    C     0.06053   0.86181   0.60160   0.01267  Uiso   1.00
C56    C     0.63780   0.15126   0.96666   0.01267  Uiso   1.00
C57    C     0.42030   0.09761   0.65710   0.01267  Uiso   1.00
C58    C     0.36220   0.34874   0.46666   0.01267  Uiso   1.00
C59    C     0.28635   0.64287   0.39162   0.01267  Uiso   1.00
C60    C     0.07640   0.61325   0.11200   0.01267  Uiso   1.00
C61    C     0.67410   0.09939   0.82650   0.01267  Uiso   1.00
C62    C     0.93947   0.63819   0.10160   0.01267  Uiso   1.00
C63    C     0.31350   0.50000   0.97320   0.01267  Uiso   1.00
C64    C     0.30015   0.86895   0.62700   0.01267  Uiso   1.00
O1     O     0.64600   0.00000   0.68280   0.01267  Uiso   1.00
O2     O     0.18039   0.35875   0.09243   0.01267  Uiso   1.00
O3     O     0.08852   0.43716   0.13820   0.01267  Uiso   1.00
O4     O     0.27120   0.39560   0.25197   0.01267  Uiso   1.00
O5     O     0.30840   0.54640   0.01239   0.01267  Uiso   1.00
O6     O     0.08852   0.56284   0.13820   0.01267  Uiso   1.00
O7     O     0.59382   0.93936   0.84746   0.01267  Uiso   1.00
O8     O     0.27120   0.60440   0.25197   0.01267  Uiso   1.00
O9     O     0.60175   0.44115   0.21099   0.01267  Uiso   1.00
O10    O     0.91148   0.93716   0.63820   0.01267  Uiso   1.00
O11    O     0.35400   0.50000   0.18280   0.01267  Uiso   1.00
O12    O     0.53125   0.88966   0.62370   0.01267  Uiso   1.00
O13    O     0.81961   0.85875   0.59243   0.01267  Uiso   1.00
O14    O     0.60175   0.55885   0.21099   0.01267  Uiso   1.00
O15    O     0.72880   0.10440   0.75197   0.01267  Uiso   1.00
O16    O     0.46875   0.38966   0.12370   0.01267  Uiso   1.00
O17    O     0.40618   0.43936   0.34746   0.01267  Uiso   1.00
O18    O     0.81961   0.14125   0.59243   0.01267  Uiso   1.00
O19    O     0.30840   0.45360   0.01239   0.01267  Uiso   1.00
O20    O     0.18039   0.64125   0.09243   0.01267  Uiso   1.00
O21    O     0.40618   0.56064   0.34746   0.01267  Uiso   1.00
O22    O     0.59382   0.06064   0.84746   0.01267  Uiso   1.00
O23    O     0.69160   0.95360   0.51239   0.01267  Uiso   1.00
O24    O     0.46875   0.61034   0.12370   0.01267  Uiso   1.00
O25    O     0.91148   0.06284   0.63820   0.01267  Uiso   1.00
O26    O     0.53125   0.11034   0.62370   0.01267  Uiso   1.00
O27    O     0.69160   0.04640   0.51239   0.01267  Uiso   1.00
O28    O     0.39825   0.05885   0.71099   0.01267  Uiso   1.00
O29    O     0.39825   0.94115   0.71099   0.01267  Uiso   1.00
O30    O     0.72880   0.89560   0.75197   0.01267  Uiso   1.00
