data_image0
_cell_length_a       27.005
_cell_length_b       18.564
_cell_length_c       36.389
_cell_angle_alpha    90
_cell_angle_beta     98.848
_cell_angle_gamma    90

_symmetry_space_group_name_H-M    "P 1"
_symmetry_int_tables_number       1

loop_
  _symmetry_equiv_pos_as_xyz
  'x, y, z'

loop_
  _atom_site_label
  _atom_site_occupancy
  _atom_site_fract_x
  _atom_site_fract_y
  _atom_site_fract_z
  _atom_site_thermal_displace_type
  _atom_site_B_iso_or_equiv
  _atom_site_type_symbol
  Fe1      1.0000 0.23886  0.09177  0.20150  Biso   1.000  Fe
  Fe2      1.0000 0.29651  0.14902  0.13329  Biso   1.000  Fe
  Fe3      1.0000 0.19052  0.22390  0.14685  Biso   1.000  Fe
  O1       1.0000 0.31175  0.10645  0.22492  Biso   1.000  O
  O2       1.0000 0.34884  0.15148  0.17945  Biso   1.000  O
  O3       1.0000 0.69497  0.75712  0.37106  Biso   1.000  O
  O4       1.0000 0.76343  0.80742  0.35516  Biso   1.000  O
  O5       1.0000 0.69661  0.53890  0.36717  Biso   1.000  O
  O6       1.0000 0.74107  0.50245  0.32468  Biso   1.000  O
  O7       1.0000 0.16591  0.06360  0.18470  Biso   1.000  O
  O8       1.0000 0.13409  0.15207  0.14703  Biso   1.000  O
  O9       1.0000 0.81642  0.75488  0.30075  Biso   1.000  O
  O10      1.0000 0.78198  0.66665  0.26399  Biso   1.000  O
  O11      1.0000 0.81395  0.79366  0.90824  Biso   1.000  O
  O12      1.0000 0.74736  0.85702  0.91760  Biso   1.000  O
  O13      1.0000 0.24164  0.15525  0.16039  Biso   1.000  O
  N1       1.0000 0.53913  0.27700  0.30815  Biso   1.000  N
  H1       1.0000 0.55390  0.31860  0.31420  Biso   1.000  H
  H2       1.0000 0.50800  0.27610  0.29660  Biso   1.000  H
  N2       1.0000 0.94854  0.94970  0.05866  Biso   1.000  N
  H3       1.0000 0.97660  0.97430  0.06380  Biso   1.000  H
  H4       1.0000 0.93470  0.94340  0.03540  Biso   1.000  H
  C1       1.0000 0.34819  0.12996  0.21219  Biso   1.000  C
  C2       1.0000 0.39689  0.13548  0.23797  Biso   1.000  C
  C3       1.0000 0.40347  0.10541  0.27215  Biso   1.000  C
  H5       1.0000 0.37630  0.08120  0.28060  Biso   1.000  H
  C4       1.0000 0.45000  0.10950  0.29538  Biso   1.000  C
  H6       1.0000 0.45380  0.08770  0.31930  Biso   1.000  H
  C5       1.0000 0.48978  0.14385  0.28454  Biso   1.000  C
  C6       1.0000 0.48259  0.17670  0.25029  Biso   1.000  C
  H7       1.0000 0.50930  0.20320  0.24260  Biso   1.000  H
  C7       1.0000 0.43665  0.17190  0.22655  Biso   1.000  C
  H8       1.0000 0.43280  0.19350  0.20260  Biso   1.000  H
  C8       1.0000 0.54131  0.14574  0.30764  Biso   1.000  C
  C9       1.0000 0.56601  0.08175  0.31746  Biso   1.000  C
  H9       1.0000 0.54960  0.03710  0.31140  Biso   1.000  H
  C10      1.0000 0.61551  0.08256  0.33650  Biso   1.000  C
  C11      1.0000 0.63845  0.14953  0.34475  Biso   1.000  C
  H10      1.0000 0.67190  0.15080  0.35750  Biso   1.000  H
  C12      1.0000 0.61455  0.21278  0.33509  Biso   1.000  C
  C13      1.0000 0.56558  0.21156  0.31696  Biso   1.000  C
  C14      1.0000 0.64163  0.01380  0.34538  Biso   1.000  C
  C15      1.0000 0.61776  0.95240  0.35510  Biso   1.000  C
  H11      1.0000 0.58320  0.95480  0.35740  Biso   1.000  H
  C16      1.0000 0.64278  0.88769  0.36152  Biso   1.000  C
  H12      1.0000 0.62530  0.84720  0.36910  Biso   1.000  H
  C17      1.0000 0.69184  0.88030  0.35728  Biso   1.000  C
  C18      1.0000 0.71690  0.94180  0.34812  Biso   1.000  C
  H13      1.0000 0.75140  0.93910  0.34570  Biso   1.000  H
  C19      1.0000 0.69162  0.00730  0.34245  Biso   1.000  C
  H14      1.0000 0.70940  0.04870  0.33640  Biso   1.000  H
  C20      1.0000 0.71947  0.80960  0.36154  Biso   1.000  C
  C21      1.0000 0.64112  0.28367  0.34192  Biso   1.000  C
  C22      1.0000 0.68088  0.29786  0.32459  Biso   1.000  C
  H15      1.0000 0.69330  0.26100  0.31030  Biso   1.000  H
  C23      1.0000 0.70435  0.36557  0.32710  Biso   1.000  C
  H16      1.0000 0.73160  0.37370  0.31400  Biso   1.000  H
  C24      1.0000 0.68938  0.41892  0.34743  Biso   1.000  C
  C25      1.0000 0.65168  0.40227  0.36650  Biso   1.000  C
  H17      1.0000 0.64120  0.43730  0.38270  Biso   1.000  H
  C26      1.0000 0.62783  0.33640  0.36331  Biso   1.000  C
  H18      1.0000 0.60090  0.32830  0.37680  Biso   1.000  H
  C27      1.0000 0.71057  0.49194  0.34626  Biso   1.000  C
  C28      1.0000 0.13143  0.09230  0.16265  Biso   1.000  C
  C29      1.0000 0.08397  0.05110  0.15306  Biso   1.000  C
  C30      1.0000 0.04479  0.07980  0.12974  Biso   1.000  C
  H19      1.0000 0.04720  0.12700  0.12010  Biso   1.000  H
  C31      1.0000 0.00118  0.04000  0.11994  Biso   1.000  C
  H20      1.0000 0.97460  0.05980  0.10280  Biso   1.000  H
  C32      1.0000 0.99564  0.97220  0.13453  Biso   1.000  C
  C33      1.0000 0.03575  0.94400  0.15867  Biso   1.000  C
  H21      1.0000 0.03330  0.89730  0.16890  Biso   1.000  H
  C34      1.0000 0.07965  0.98400  0.16789  Biso   1.000  C
  H22      1.0000 0.10680  0.96450  0.18460  Biso   1.000  H
  C35      1.0000 0.94769  0.93034  0.12512  Biso   1.000  C
  C36      1.0000 0.92589  0.89898  0.15298  Biso   1.000  C
  H23      1.0000 0.94200  0.90500  0.17790  Biso   1.000  H
  C37      1.0000 0.88191  0.85910  0.14703  Biso   1.000  C
  C38      1.0000 0.86004  0.85004  0.10959  Biso   1.000  C
  H24      1.0000 0.82980  0.82330  0.10420  Biso   1.000  H
  C39      1.0000 0.88129  0.87898  0.08020  Biso   1.000  C
  C40      1.0000 0.92493  0.91950  0.08871  Biso   1.000  C
  C41      1.0000 0.86073  0.82520  0.17742  Biso   1.000  C
  C42      1.0000 0.83834  0.76060  0.17445  Biso   1.000  C
  H25      1.0000 0.83540  0.73610  0.15130  Biso   1.000  H
  C43      1.0000 0.81921  0.72790  0.20362  Biso   1.000  C
  H26      1.0000 0.80330  0.68220  0.20010  Biso   1.000  H
  C44      1.0000 0.82332  0.76190  0.23767  Biso   1.000  C
  C45      1.0000 0.84533  0.82700  0.24121  Biso   1.000  C
  H27      1.0000 0.84890  0.85110  0.26450  Biso   1.000  H
  C46      1.0000 0.86289  0.85970  0.21141  Biso   1.000  C
  H28      1.0000 0.87670  0.90680  0.21440  Biso   1.000  H
  C47      1.0000 0.80587  0.72370  0.26958  Biso   1.000  C
  C48      1.0000 0.85747  0.86655  0.04100  Biso   1.000  C
  C49      1.0000 0.88135  0.83100  0.01636  Biso   1.000  C
  H29      1.0000 0.91430  0.81370  0.02460  Biso   1.000  H
  C50      1.0000 0.86054  0.81865  0.98005  Biso   1.000  C
  H30      1.0000 0.87900  0.79380  0.96380  Biso   1.000  H
  C51      1.0000 0.81281  0.84247  0.96751  Biso   1.000  C
  C52      1.0000 0.78811  0.87952  0.99138  Biso   1.000  C
  H31      1.0000 0.75540  0.89760  0.98290  Biso   1.000  H
  C53      1.0000 0.81019  0.89132  0.02806  Biso   1.000  C
  H32      1.0000 0.79220  0.91690  0.04440  Biso   1.000  H
  C54      1.0000 0.79007  0.82976  0.92876  Biso   1.000  C
  Fe4      1.0000 0.76114  0.59177  0.29850  Biso   1.000  Fe
  Fe5      1.0000 0.70349  0.64902  0.36671  Biso   1.000  Fe
  Fe6      1.0000 0.80948  0.72390  0.35315  Biso   1.000  Fe
  O14      1.0000 0.68825  0.60645  0.27508  Biso   1.000  O
  O15      1.0000 0.65116  0.65148  0.32055  Biso   1.000  O
  O16      1.0000 0.30503  0.25712  0.12894  Biso   1.000  O
  O17      1.0000 0.23657  0.30742  0.14484  Biso   1.000  O
  O18      1.0000 0.30339  0.03890  0.13283  Biso   1.000  O
  O19      1.0000 0.25893  0.00245  0.17532  Biso   1.000  O
  O20      1.0000 0.83409  0.56360  0.31530  Biso   1.000  O
  O21      1.0000 0.86591  0.65207  0.35297  Biso   1.000  O
  O22      1.0000 0.18358  0.25488  0.19925  Biso   1.000  O
  O23      1.0000 0.21802  0.16665  0.23601  Biso   1.000  O
  O24      1.0000 0.18605  0.29366  0.59176  Biso   1.000  O
  O25      1.0000 0.25264  0.35702  0.58240  Biso   1.000  O
  O26      1.0000 0.75836  0.65525  0.33961  Biso   1.000  O
  N3       1.0000 0.46087  0.77700  0.19185  Biso   1.000  N
  H33      1.0000 0.44610  0.81860  0.18580  Biso   1.000  H
  H34      1.0000 0.49200  0.77610  0.20340  Biso   1.000  H
  N4       1.0000 0.05146  0.44970  0.44134  Biso   1.000  N
  H35      1.0000 0.02340  0.47430  0.43620  Biso   1.000  H
  H36      1.0000 0.06530  0.44340  0.46460  Biso   1.000  H
  C55      1.0000 0.65181  0.62996  0.28781  Biso   1.000  C
  C56      1.0000 0.60311  0.63548  0.26203  Biso   1.000  C
  C57      1.0000 0.59653  0.60541  0.22785  Biso   1.000  C
  H37      1.0000 0.62370  0.58120  0.21940  Biso   1.000  H
  C58      1.0000 0.55000  0.60950  0.20462  Biso   1.000  C
  H38      1.0000 0.54620  0.58770  0.18070  Biso   1.000  H
  C59      1.0000 0.51022  0.64385  0.21546  Biso   1.000  C
  C60      1.0000 0.51741  0.67670  0.24971  Biso   1.000  C
  H39      1.0000 0.49070  0.70320  0.25740  Biso   1.000  H
  C61      1.0000 0.56335  0.67190  0.27345  Biso   1.000  C
  H40      1.0000 0.56720  0.69350  0.29740  Biso   1.000  H
  C62      1.0000 0.45869  0.64574  0.19236  Biso   1.000  C
  C63      1.0000 0.43399  0.58175  0.18254  Biso   1.000  C
  H41      1.0000 0.45040  0.53710  0.18860  Biso   1.000  H
  C64      1.0000 0.38449  0.58256  0.16350  Biso   1.000  C
  C65      1.0000 0.36155  0.64953  0.15525  Biso   1.000  C
  H42      1.0000 0.32810  0.65080  0.14250  Biso   1.000  H
  C66      1.0000 0.38545  0.71278  0.16491  Biso   1.000  C
  C67      1.0000 0.43442  0.71156  0.18304  Biso   1.000  C
  C68      1.0000 0.35837  0.51380  0.15462  Biso   1.000  C
  C69      1.0000 0.38224  0.45240  0.14490  Biso   1.000  C
  H43      1.0000 0.41680  0.45480  0.14260  Biso   1.000  H
  C70      1.0000 0.35722  0.38769  0.13848  Biso   1.000  C
  H44      1.0000 0.37470  0.34720  0.13090  Biso   1.000  H
  C71      1.0000 0.30816  0.38030  0.14272  Biso   1.000  C
  C72      1.0000 0.28310  0.44180  0.15188  Biso   1.000  C
  H45      1.0000 0.24860  0.43910  0.15430  Biso   1.000  H
  C73      1.0000 0.30838  0.50730  0.15755  Biso   1.000  C
  H46      1.0000 0.29060  0.54870  0.16360  Biso   1.000  H
  C74      1.0000 0.28053  0.30960  0.13846  Biso   1.000  C
  C75      1.0000 0.35888  0.78367  0.15808  Biso   1.000  C
  C76      1.0000 0.31912  0.79786  0.17541  Biso   1.000  C
  H47      1.0000 0.30670  0.76100  0.18970  Biso   1.000  H
  C77      1.0000 0.29565  0.86557  0.17290  Biso   1.000  C
  H48      1.0000 0.26840  0.87370  0.18600  Biso   1.000  H
  C78      1.0000 0.31062  0.91892  0.15257  Biso   1.000  C
  C79      1.0000 0.34832  0.90227  0.13350  Biso   1.000  C
  H49      1.0000 0.35880  0.93730  0.11730  Biso   1.000  H
  C80      1.0000 0.37217  0.83640  0.13669  Biso   1.000  C
  H50      1.0000 0.39910  0.82830  0.12320  Biso   1.000  H
  C81      1.0000 0.28943  0.99194  0.15374  Biso   1.000  C
  C82      1.0000 0.86857  0.59230  0.33735  Biso   1.000  C
  C83      1.0000 0.91603  0.55110  0.34694  Biso   1.000  C
  C84      1.0000 0.95521  0.57980  0.37026  Biso   1.000  C
  H51      1.0000 0.95280  0.62700  0.37990  Biso   1.000  H
  C85      1.0000 0.99882  0.54000  0.38006  Biso   1.000  C
  H52      1.0000 0.02540  0.55980  0.39720  Biso   1.000  H
  C86      1.0000 0.00436  0.47220  0.36547  Biso   1.000  C
  C87      1.0000 0.96425  0.44400  0.34133  Biso   1.000  C
  H53      1.0000 0.96670  0.39730  0.33110  Biso   1.000  H
  C88      1.0000 0.92035  0.48400  0.33211  Biso   1.000  C
  H54      1.0000 0.89320  0.46450  0.31540  Biso   1.000  H
  C89      1.0000 0.05231  0.43034  0.37488  Biso   1.000  C
  C90      1.0000 0.07411  0.39898  0.34702  Biso   1.000  C
  H55      1.0000 0.05800  0.40500  0.32210  Biso   1.000  H
  C91      1.0000 0.11809  0.35910  0.35297  Biso   1.000  C
  C92      1.0000 0.13996  0.35004  0.39041  Biso   1.000  C
  H56      1.0000 0.17020  0.32330  0.39580  Biso   1.000  H
  C93      1.0000 0.11871  0.37898  0.41980  Biso   1.000  C
  C94      1.0000 0.07507  0.41950  0.41129  Biso   1.000  C
  C95      1.0000 0.13927  0.32520  0.32258  Biso   1.000  C
  C96      1.0000 0.16166  0.26060  0.32555  Biso   1.000  C
  H57      1.0000 0.16460  0.23610  0.34870  Biso   1.000  H
  C97      1.0000 0.18079  0.22790  0.29638  Biso   1.000  C
  H58      1.0000 0.19670  0.18220  0.29990  Biso   1.000  H
  C98      1.0000 0.17668  0.26190  0.26233  Biso   1.000  C
  C99      1.0000 0.15467  0.32700  0.25879  Biso   1.000  C
  H59      1.0000 0.15110  0.35110  0.23550  Biso   1.000  H
  C100     1.0000 0.13711  0.35970  0.28859  Biso   1.000  C
  H60      1.0000 0.12330  0.40680  0.28560  Biso   1.000  H
  C101     1.0000 0.19413  0.22370  0.23042  Biso   1.000  C
  C102     1.0000 0.14253  0.36655  0.45900  Biso   1.000  C
  C103     1.0000 0.11865  0.33100  0.48364  Biso   1.000  C
  H61      1.0000 0.08570  0.31370  0.47540  Biso   1.000  H
  C104     1.0000 0.13946  0.31865  0.51995  Biso   1.000  C
  H62      1.0000 0.12100  0.29380  0.53620  Biso   1.000  H
  C105     1.0000 0.18719  0.34247  0.53249  Biso   1.000  C
  C106     1.0000 0.21189  0.37952  0.50862  Biso   1.000  C
  H63      1.0000 0.24460  0.39760  0.51710  Biso   1.000  H
  C107     1.0000 0.18981  0.39132  0.47194  Biso   1.000  C
  H64      1.0000 0.20780  0.41690  0.45560  Biso   1.000  H
  C108     1.0000 0.20993  0.32976  0.57124  Biso   1.000  C
  Fe7      1.0000 0.76114  0.90823  0.79850  Biso   1.000  Fe
  Fe8      1.0000 0.70349  0.85098  0.86671  Biso   1.000  Fe
  Fe9      1.0000 0.80948  0.77610  0.85315  Biso   1.000  Fe
  O27      1.0000 0.68825  0.89355  0.77508  Biso   1.000  O
  O28      1.0000 0.65116  0.84852  0.82055  Biso   1.000  O
  O29      1.0000 0.30503  0.24288  0.62894  Biso   1.000  O
  O30      1.0000 0.23657  0.19258  0.64484  Biso   1.000  O
  O31      1.0000 0.30339  0.46110  0.63283  Biso   1.000  O
  O32      1.0000 0.25893  0.49755  0.67532  Biso   1.000  O
  O33      1.0000 0.83409  0.93640  0.81530  Biso   1.000  O
  O34      1.0000 0.86591  0.84793  0.85297  Biso   1.000  O
  O35      1.0000 0.18358  0.24512  0.69925  Biso   1.000  O
  O36      1.0000 0.21802  0.33335  0.73601  Biso   1.000  O
  O37      1.0000 0.18605  0.20634  0.09176  Biso   1.000  O
  O38      1.0000 0.25264  0.14298  0.08240  Biso   1.000  O
  O39      1.0000 0.75836  0.84475  0.83961  Biso   1.000  O
  N5       1.0000 0.46087  0.72300  0.69185  Biso   1.000  N
  H65      1.0000 0.44610  0.68140  0.68580  Biso   1.000  H
  H66      1.0000 0.49200  0.72390  0.70340  Biso   1.000  H
  N6       1.0000 0.05146  0.05030  0.94134  Biso   1.000  N
  H67      1.0000 0.02340  0.02570  0.93620  Biso   1.000  H
  H68      1.0000 0.06530  0.05660  0.96460  Biso   1.000  H
  C109     1.0000 0.65181  0.87004  0.78781  Biso   1.000  C
  C110     1.0000 0.60311  0.86452  0.76203  Biso   1.000  C
  C111     1.0000 0.59653  0.89459  0.72785  Biso   1.000  C
  H69      1.0000 0.62370  0.91880  0.71940  Biso   1.000  H
  C112     1.0000 0.55000  0.89050  0.70462  Biso   1.000  C
  H70      1.0000 0.54620  0.91230  0.68070  Biso   1.000  H
  C113     1.0000 0.51022  0.85615  0.71546  Biso   1.000  C
  C114     1.0000 0.51741  0.82330  0.74971  Biso   1.000  C
  H71      1.0000 0.49070  0.79680  0.75740  Biso   1.000  H
  C115     1.0000 0.56335  0.82810  0.77345  Biso   1.000  C
  H72      1.0000 0.56720  0.80650  0.79740  Biso   1.000  H
  C116     1.0000 0.45869  0.85426  0.69236  Biso   1.000  C
  C117     1.0000 0.43399  0.91825  0.68254  Biso   1.000  C
  H73      1.0000 0.45040  0.96290  0.68860  Biso   1.000  H
  C118     1.0000 0.38449  0.91744  0.66350  Biso   1.000  C
  C119     1.0000 0.36155  0.85047  0.65525  Biso   1.000  C
  H74      1.0000 0.32810  0.84920  0.64250  Biso   1.000  H
  C120     1.0000 0.38545  0.78722  0.66491  Biso   1.000  C
  C121     1.0000 0.43442  0.78844  0.68304  Biso   1.000  C
  C122     1.0000 0.35837  0.98620  0.65462  Biso   1.000  C
  C123     1.0000 0.38224  0.04760  0.64490  Biso   1.000  C
  H75      1.0000 0.41680  0.04520  0.64260  Biso   1.000  H
  C124     1.0000 0.35722  0.11231  0.63848  Biso   1.000  C
  H76      1.0000 0.37470  0.15280  0.63090  Biso   1.000  H
  C125     1.0000 0.30816  0.11970  0.64272  Biso   1.000  C
  C126     1.0000 0.28310  0.05820  0.65188  Biso   1.000  C
  H77      1.0000 0.24860  0.06090  0.65430  Biso   1.000  H
  C127     1.0000 0.30838  0.99270  0.65755  Biso   1.000  C
  H78      1.0000 0.29060  0.95130  0.66360  Biso   1.000  H
  C128     1.0000 0.28053  0.19040  0.63846  Biso   1.000  C
  C129     1.0000 0.35888  0.71633  0.65808  Biso   1.000  C
  C130     1.0000 0.31912  0.70214  0.67541  Biso   1.000  C
  H79      1.0000 0.30670  0.73900  0.68970  Biso   1.000  H
  C131     1.0000 0.29565  0.63443  0.67290  Biso   1.000  C
  H80      1.0000 0.26840  0.62630  0.68600  Biso   1.000  H
  C132     1.0000 0.31062  0.58108  0.65257  Biso   1.000  C
  C133     1.0000 0.34832  0.59773  0.63350  Biso   1.000  C
  H81      1.0000 0.35880  0.56270  0.61730  Biso   1.000  H
  C134     1.0000 0.37217  0.66360  0.63669  Biso   1.000  C
  H82      1.0000 0.39910  0.67170  0.62320  Biso   1.000  H
  C135     1.0000 0.28943  0.50806  0.65374  Biso   1.000  C
  C136     1.0000 0.86857  0.90770  0.83735  Biso   1.000  C
  C137     1.0000 0.91603  0.94890  0.84694  Biso   1.000  C
  C138     1.0000 0.95521  0.92020  0.87026  Biso   1.000  C
  H83      1.0000 0.95280  0.87300  0.87990  Biso   1.000  H
  C139     1.0000 0.99882  0.96000  0.88006  Biso   1.000  C
  H84      1.0000 0.02540  0.94020  0.89720  Biso   1.000  H
  C140     1.0000 0.00436  0.02780  0.86547  Biso   1.000  C
  C141     1.0000 0.96425  0.05600  0.84133  Biso   1.000  C
  H85      1.0000 0.96670  0.10270  0.83110  Biso   1.000  H
  C142     1.0000 0.92035  0.01600  0.83211  Biso   1.000  C
  H86      1.0000 0.89320  0.03550  0.81540  Biso   1.000  H
  C143     1.0000 0.05231  0.06966  0.87488  Biso   1.000  C
  C144     1.0000 0.07411  0.10102  0.84702  Biso   1.000  C
  H87      1.0000 0.05800  0.09500  0.82210  Biso   1.000  H
  C145     1.0000 0.11809  0.14090  0.85297  Biso   1.000  C
  C146     1.0000 0.13996  0.14996  0.89041  Biso   1.000  C
  H88      1.0000 0.17020  0.17670  0.89580  Biso   1.000  H
  C147     1.0000 0.11871  0.12102  0.91980  Biso   1.000  C
  C148     1.0000 0.07507  0.08050  0.91129  Biso   1.000  C
  C149     1.0000 0.13927  0.17480  0.82258  Biso   1.000  C
  C150     1.0000 0.16166  0.23940  0.82555  Biso   1.000  C
  H89      1.0000 0.16460  0.26390  0.84870  Biso   1.000  H
  C151     1.0000 0.18079  0.27210  0.79638  Biso   1.000  C
  H90      1.0000 0.19670  0.31780  0.79990  Biso   1.000  H
  C152     1.0000 0.17668  0.23810  0.76233  Biso   1.000  C
  C153     1.0000 0.15467  0.17300  0.75879  Biso   1.000  C
  H91      1.0000 0.15110  0.14890  0.73550  Biso   1.000  H
  C154     1.0000 0.13711  0.14030  0.78859  Biso   1.000  C
  H92      1.0000 0.12330  0.09320  0.78560  Biso   1.000  H
  C155     1.0000 0.19413  0.27630  0.73042  Biso   1.000  C
  C156     1.0000 0.14253  0.13345  0.95900  Biso   1.000  C
  C157     1.0000 0.11865  0.16900  0.98364  Biso   1.000  C
  H93      1.0000 0.08570  0.18630  0.97540  Biso   1.000  H
  C158     1.0000 0.13946  0.18135  0.01995  Biso   1.000  C
  H94      1.0000 0.12100  0.20620  0.03620  Biso   1.000  H
  C159     1.0000 0.18719  0.15753  0.03249  Biso   1.000  C
  C160     1.0000 0.21189  0.12048  0.00862  Biso   1.000  C
  H95      1.0000 0.24460  0.10240  0.01710  Biso   1.000  H
  C161     1.0000 0.18981  0.10868  0.97194  Biso   1.000  C
  H96      1.0000 0.20780  0.08310  0.95560  Biso   1.000  H
  C162     1.0000 0.20993  0.17024  0.07124  Biso   1.000  C
  Fe10     1.0000 0.23886  0.40823  0.70150  Biso   1.000  Fe
  Fe11     1.0000 0.29651  0.35098  0.63329  Biso   1.000  Fe
  Fe12     1.0000 0.19052  0.27610  0.64685  Biso   1.000  Fe
  O40      1.0000 0.31175  0.39355  0.72492  Biso   1.000  O
  O41      1.0000 0.34884  0.34852  0.67945  Biso   1.000  O
  O42      1.0000 0.69497  0.74288  0.87106  Biso   1.000  O
  O43      1.0000 0.76343  0.69258  0.85516  Biso   1.000  O
  O44      1.0000 0.69661  0.96110  0.86717  Biso   1.000  O
  O45      1.0000 0.74107  0.99755  0.82468  Biso   1.000  O
  O46      1.0000 0.16591  0.43640  0.68470  Biso   1.000  O
  O47      1.0000 0.13409  0.34793  0.64703  Biso   1.000  O
  O48      1.0000 0.81642  0.74512  0.80075  Biso   1.000  O
  O49      1.0000 0.78198  0.83335  0.76399  Biso   1.000  O
  O50      1.0000 0.81395  0.70634  0.40824  Biso   1.000  O
  O51      1.0000 0.74736  0.64298  0.41760  Biso   1.000  O
  O52      1.0000 0.24164  0.34475  0.66039  Biso   1.000  O
  N7       1.0000 0.53913  0.22300  0.80815  Biso   1.000  N
  H97      1.0000 0.55390  0.18140  0.81420  Biso   1.000  H
  H98      1.0000 0.50800  0.22390  0.79660  Biso   1.000  H
  N8       1.0000 0.94854  0.55030  0.55866  Biso   1.000  N
  H99      1.0000 0.97660  0.52570  0.56380  Biso   1.000  H
  H100     1.0000 0.93470  0.55660  0.53540  Biso   1.000  H
  C163     1.0000 0.34819  0.37004  0.71219  Biso   1.000  C
  C164     1.0000 0.39689  0.36452  0.73797  Biso   1.000  C
  C165     1.0000 0.40347  0.39459  0.77215  Biso   1.000  C
  H101     1.0000 0.37630  0.41880  0.78060  Biso   1.000  H
  C166     1.0000 0.45000  0.39050  0.79538  Biso   1.000  C
  H102     1.0000 0.45380  0.41230  0.81930  Biso   1.000  H
  C167     1.0000 0.48978  0.35615  0.78454  Biso   1.000  C
  C168     1.0000 0.48259  0.32330  0.75029  Biso   1.000  C
  H103     1.0000 0.50930  0.29680  0.74260  Biso   1.000  H
  C169     1.0000 0.43665  0.32810  0.72655  Biso   1.000  C
  H104     1.0000 0.43280  0.30650  0.70260  Biso   1.000  H
  C170     1.0000 0.54131  0.35426  0.80764  Biso   1.000  C
  C171     1.0000 0.56601  0.41825  0.81746  Biso   1.000  C
  H105     1.0000 0.54960  0.46290  0.81140  Biso   1.000  H
  C172     1.0000 0.61551  0.41744  0.83650  Biso   1.000  C
  C173     1.0000 0.63845  0.35047  0.84475  Biso   1.000  C
  H106     1.0000 0.67190  0.34920  0.85750  Biso   1.000  H
  C174     1.0000 0.61455  0.28722  0.83509  Biso   1.000  C
  C175     1.0000 0.56558  0.28844  0.81696  Biso   1.000  C
  C176     1.0000 0.64163  0.48620  0.84538  Biso   1.000  C
  C177     1.0000 0.61776  0.54760  0.85510  Biso   1.000  C
  H107     1.0000 0.58320  0.54520  0.85740  Biso   1.000  H
  C178     1.0000 0.64278  0.61231  0.86152  Biso   1.000  C
  H108     1.0000 0.62530  0.65280  0.86910  Biso   1.000  H
  C179     1.0000 0.69184  0.61970  0.85728  Biso   1.000  C
  C180     1.0000 0.71690  0.55820  0.84812  Biso   1.000  C
  H109     1.0000 0.75140  0.56090  0.84570  Biso   1.000  H
  C181     1.0000 0.69162  0.49270  0.84245  Biso   1.000  C
  H110     1.0000 0.70940  0.45130  0.83640  Biso   1.000  H
  C182     1.0000 0.71947  0.69040  0.86154  Biso   1.000  C
  C183     1.0000 0.64112  0.21633  0.84192  Biso   1.000  C
  C184     1.0000 0.68088  0.20214  0.82459  Biso   1.000  C
  H111     1.0000 0.69330  0.23900  0.81030  Biso   1.000  H
  C185     1.0000 0.70435  0.13443  0.82710  Biso   1.000  C
  H112     1.0000 0.73160  0.12630  0.81400  Biso   1.000  H
  C186     1.0000 0.68938  0.08108  0.84743  Biso   1.000  C
  C187     1.0000 0.65168  0.09773  0.86650  Biso   1.000  C
  H113     1.0000 0.64120  0.06270  0.88270  Biso   1.000  H
  C188     1.0000 0.62783  0.16360  0.86331  Biso   1.000  C
  H114     1.0000 0.60090  0.17170  0.87680  Biso   1.000  H
  C189     1.0000 0.71057  0.00806  0.84626  Biso   1.000  C
  C190     1.0000 0.13143  0.40770  0.66265  Biso   1.000  C
  C191     1.0000 0.08397  0.44890  0.65306  Biso   1.000  C
  C192     1.0000 0.04479  0.42020  0.62974  Biso   1.000  C
  H115     1.0000 0.04720  0.37300  0.62010  Biso   1.000  H
  C193     1.0000 0.00118  0.46000  0.61994  Biso   1.000  C
  H116     1.0000 0.97460  0.44020  0.60280  Biso   1.000  H
  C194     1.0000 0.99564  0.52780  0.63453  Biso   1.000  C
  C195     1.0000 0.03575  0.55600  0.65867  Biso   1.000  C
  H117     1.0000 0.03330  0.60270  0.66890  Biso   1.000  H
  C196     1.0000 0.07965  0.51600  0.66789  Biso   1.000  C
  H118     1.0000 0.10680  0.53550  0.68460  Biso   1.000  H
  C197     1.0000 0.94769  0.56966  0.62512  Biso   1.000  C
  C198     1.0000 0.92589  0.60102  0.65298  Biso   1.000  C
  H119     1.0000 0.94200  0.59500  0.67790  Biso   1.000  H
  C199     1.0000 0.88191  0.64090  0.64703  Biso   1.000  C
  C200     1.0000 0.86004  0.64996  0.60959  Biso   1.000  C
  H120     1.0000 0.82980  0.67670  0.60420  Biso   1.000  H
  C201     1.0000 0.88129  0.62102  0.58020  Biso   1.000  C
  C202     1.0000 0.92493  0.58050  0.58871  Biso   1.000  C
  C203     1.0000 0.86073  0.67480  0.67742  Biso   1.000  C
  C204     1.0000 0.83834  0.73940  0.67445  Biso   1.000  C
  H121     1.0000 0.83540  0.76390  0.65130  Biso   1.000  H
  C205     1.0000 0.81921  0.77210  0.70362  Biso   1.000  C
  H122     1.0000 0.80330  0.81780  0.70010  Biso   1.000  H
  C206     1.0000 0.82332  0.73810  0.73767  Biso   1.000  C
  C207     1.0000 0.84533  0.67300  0.74121  Biso   1.000  C
  H123     1.0000 0.84890  0.64890  0.76450  Biso   1.000  H
  C208     1.0000 0.86289  0.64030  0.71141  Biso   1.000  C
  H124     1.0000 0.87670  0.59320  0.71440  Biso   1.000  H
  C209     1.0000 0.80587  0.77630  0.76958  Biso   1.000  C
  C210     1.0000 0.85747  0.63345  0.54100  Biso   1.000  C
  C211     1.0000 0.88135  0.66900  0.51636  Biso   1.000  C
  H125     1.0000 0.91430  0.68630  0.52460  Biso   1.000  H
  C212     1.0000 0.86054  0.68135  0.48005  Biso   1.000  C
  H126     1.0000 0.87900  0.70620  0.46380  Biso   1.000  H
  C213     1.0000 0.81281  0.65753  0.46751  Biso   1.000  C
  C214     1.0000 0.78811  0.62048  0.49138  Biso   1.000  C
  H127     1.0000 0.75540  0.60240  0.48290  Biso   1.000  H
  C215     1.0000 0.81019  0.60868  0.52806  Biso   1.000  C
  H128     1.0000 0.79220  0.58310  0.54440  Biso   1.000  H
  C216     1.0000 0.79007  0.67024  0.42876  Biso   1.000  C
