data_TOVJUL_clean
_audit_creation_date              2015-10-16
_audit_creation_method            'Materials Studio'
_symmetry_space_group_name_H-M    'P1'
_symmetry_Int_Tables_number       1
_symmetry_cell_setting            triclinic
loop_
_symmetry_equiv_pos_as_xyz
  x,y,z
_cell_length_a                    23.0900
_cell_length_b                    24.2400
_cell_length_c                    23.9700
_cell_angle_alpha                 104.2740
_cell_angle_beta                  90.0000
_cell_angle_gamma                 90.0000
loop_
_atom_site_label
_atom_site_type_symbol
_atom_site_fract_x
_atom_site_fract_y
_atom_site_fract_z
_atom_site_U_iso_or_equiv
_atom_site_adp_type
_atom_site_occupancy
Fe1    Fe    0.79485   0.46810   0.23867   0.01267  Uiso   1.00
Fe2    Fe    0.23660   0.02523   0.69842   0.01267  Uiso   1.00
Fe3    Fe    0.78930   0.85483   0.34230   0.01267  Uiso   1.00
Fe4    Fe    0.30301   0.39206   0.22770   0.01267  Uiso   1.00
Fe5    Fe    0.07683   0.46858   0.74669   0.01267  Uiso   1.00
Fe6    Fe    0.76700   0.97561   0.43953   0.01267  Uiso   1.00
Fe7    Fe    0.20515   0.53190   0.76133   0.01267  Uiso   1.00
Fe8    Fe    0.69699   0.60794   0.77230   0.01267  Uiso   1.00
Fe9    Fe    0.80301   0.60794   0.27230   0.01267  Uiso   1.00
Fe10   Fe    0.26340   0.02523   0.19842   0.01267  Uiso   1.00
Fe11   Fe    0.26700   0.02439   0.06047   0.01267  Uiso   1.00
Fe12   Fe    0.28930   0.14517   0.15770   0.01267  Uiso   1.00
Fe13   Fe    0.19699   0.39206   0.72770   0.01267  Uiso   1.00
Fe14   Fe    0.73660   0.97477   0.80158   0.01267  Uiso   1.00
Fe15   Fe    0.73300   0.97561   0.93953   0.01267  Uiso   1.00
Fe16   Fe    0.42317   0.46858   0.24669   0.01267  Uiso   1.00
Fe17   Fe    0.23300   0.02439   0.56047   0.01267  Uiso   1.00
Fe18   Fe    0.21070   0.14517   0.65770   0.01267  Uiso   1.00
Fe19   Fe    0.29485   0.53190   0.26133   0.01267  Uiso   1.00
Fe20   Fe    0.57683   0.53142   0.75331   0.01267  Uiso   1.00
Fe21   Fe    0.76340   0.97477   0.30158   0.01267  Uiso   1.00
Fe22   Fe    0.70515   0.46810   0.73867   0.01267  Uiso   1.00
Fe23   Fe    0.71070   0.85483   0.84230   0.01267  Uiso   1.00
Fe24   Fe    0.92317   0.53142   0.25331   0.01267  Uiso   1.00
Si1    Si    0.49900   0.76100   0.53290   0.01267  Uiso   1.00
Si2    Si    0.50100   0.23900   0.46710   0.01267  Uiso   1.00
Si3    Si    0.99260   0.74960   0.59460   0.01267  Uiso   1.00
Si4    Si    0.99900   0.23900   0.96710   0.01267  Uiso   1.00
Si5    Si    0.00740   0.25040   0.40540   0.01267  Uiso   1.00
Si6    Si    0.50740   0.74960   0.09460   0.01267  Uiso   1.00
Si7    Si    0.49260   0.25040   0.90540   0.01267  Uiso   1.00
Si8    Si    0.00100   0.76100   0.03290   0.01267  Uiso   1.00
H1     H     0.54840   0.87230   0.56420   0.01267  Uiso   1.00
H2     H     0.89950   0.76840   0.09970   0.01267  Uiso   1.00
H3     H     0.05820   0.81790   0.14760   0.01267  Uiso   1.00
H4     H     0.70010   0.57590   0.42080   0.01267  Uiso   1.00
H5     H     0.20010   0.42410   0.07920   0.01267  Uiso   1.00
H6     H     0.97230   0.44590   0.72030   0.01267  Uiso   1.00
H7     H     0.15920   0.22990   0.09050   0.01267  Uiso   1.00
H8     H     0.45910   0.66950   0.99880   0.01267  Uiso   1.00
H9     H     0.16950   0.41420   0.35990   0.01267  Uiso   1.00
H10    H     0.07170   0.16430   0.79660   0.01267  Uiso   1.00
H11    H     0.95710   0.64010   0.61200   0.01267  Uiso   1.00
H12    H     0.85920   0.52920   0.65090   0.01267  Uiso   1.00
H13    H     0.44870   0.68330   0.59450   0.01267  Uiso   1.00
H14    H     0.35520   0.29370   0.06130   0.01267  Uiso   1.00
H15    H     0.99330   0.38030   0.59150   0.01267  Uiso   1.00
H16    H     0.62690   0.10960   0.32480   0.01267  Uiso   1.00
H17    H     0.99960   0.42890   0.34850   0.01267  Uiso   1.00
H18    H     0.38480   0.89920   0.18760   0.01267  Uiso   1.00
H19    H     0.75880   0.04410   0.03390   0.01267  Uiso   1.00
H20    H     0.93210   0.89770   0.51860   0.01267  Uiso   1.00
H21    H     0.98820   0.37050   0.84620   0.01267  Uiso   1.00
H22    H     0.14000   0.28550   0.84100   0.01267  Uiso   1.00
H23    H     0.11080   0.88240   0.51510   0.01267  Uiso   1.00
H24    H     0.04290   0.35990   0.38800   0.01267  Uiso   1.00
H25    H     0.34080   0.22990   0.59050   0.01267  Uiso   1.00
H26    H     0.01180   0.62950   0.15380   0.01267  Uiso   1.00
H27    H     0.72840   0.04090   0.24360   0.01267  Uiso   1.00
H28    H     0.50320   0.42370   0.60430   0.01267  Uiso   1.00
H29    H     0.31290   0.47520   0.89970   0.01267  Uiso   1.00
H30    H     0.58520   0.83270   0.99100   0.01267  Uiso   1.00
H31    H     0.95910   0.33050   0.50120   0.01267  Uiso   1.00
H32    H     0.39220   0.74170   0.47790   0.01267  Uiso   1.00
H33    H     0.55810   0.90050   0.70360   0.01267  Uiso   1.00
H34    H     0.36710   0.09130   0.81410   0.01267  Uiso   1.00
H35    H     0.44180   0.81790   0.64760   0.01267  Uiso   1.00
H36    H     0.83050   0.58580   0.64010   0.01267  Uiso   1.00
H37    H     0.10580   0.73190   0.63690   0.01267  Uiso   1.00
H38    H     0.87090   0.08890   0.98750   0.01267  Uiso   1.00
H39    H     0.49960   0.57110   0.15150   0.01267  Uiso   1.00
H40    H     0.22840   0.95910   0.25640   0.01267  Uiso   1.00
H41    H     0.99680   0.42370   0.10430   0.01267  Uiso   1.00
H42    H     0.77160   0.04090   0.74360   0.01267  Uiso   1.00
H43    H     0.14480   0.29370   0.56130   0.01267  Uiso   1.00
H44    H     0.64480   0.70630   0.93870   0.01267  Uiso   1.00
H45    H     0.37310   0.89040   0.67520   0.01267  Uiso   1.00
H46    H     0.55130   0.31670   0.40550   0.01267  Uiso   1.00
H47    H     0.14080   0.47080   0.34910   0.01267  Uiso   1.00
H48    H     0.83460   0.76000   0.72880   0.01267  Uiso   1.00
H49    H     0.58920   0.71680   0.16960   0.01267  Uiso   1.00
H50    H     0.95260   0.19480   0.49520   0.01267  Uiso   1.00
H51    H     0.04740   0.80520   0.50480   0.01267  Uiso   1.00
H52    H     0.39420   0.73190   0.13690   0.01267  Uiso   1.00
H53    H     0.93960   0.16140   0.01510   0.01267  Uiso   1.00
H54    H     0.41480   0.16730   0.00900   0.01267  Uiso   1.00
H55    H     0.86710   0.90870   0.68590   0.01267  Uiso   1.00
H56    H     0.08520   0.16730   0.50900   0.01267  Uiso   1.00
H57    H     0.00040   0.57110   0.65150   0.01267  Uiso   1.00
H58    H     0.91480   0.83270   0.49100   0.01267  Uiso   1.00
H59    H     0.64000   0.71450   0.65900   0.01267  Uiso   1.00
H60    H     0.60640   0.86580   0.66120   0.01267  Uiso   1.00
H61    H     0.55820   0.18210   0.35240   0.01267  Uiso   1.00
H62    H     0.03960   0.35120   0.03360   0.01267  Uiso   1.00
H63    H     0.88920   0.11760   0.48490   0.01267  Uiso   1.00
H64    H     0.29990   0.42410   0.57920   0.01267  Uiso   1.00
H65    H     0.61060   0.75600   0.02900   0.01267  Uiso   1.00
H66    H     0.60050   0.76840   0.59970   0.01267  Uiso   1.00
H67    H     0.85520   0.70630   0.43870   0.01267  Uiso   1.00
H68    H     0.74120   0.04410   0.53390   0.01267  Uiso   1.00
H69    H     0.14910   0.66290   0.67640   0.01267  Uiso   1.00
H70    H     0.35920   0.47080   0.84910   0.01267  Uiso   1.00
H71    H     0.94190   0.90050   0.20360   0.01267  Uiso   1.00
H72    H     0.38920   0.88240   0.01510   0.01267  Uiso   1.00
H73    H     0.11060   0.24400   0.47100   0.01267  Uiso   1.00
H74    H     0.36000   0.28550   0.34100   0.01267  Uiso   1.00
H75    H     0.34930   0.66910   0.40710   0.01267  Uiso   1.00
H76    H     0.81290   0.52480   0.60030   0.01267  Uiso   1.00
H77    H     0.44330   0.13460   0.87330   0.01267  Uiso   1.00
H78    H     0.41940   0.27360   0.55690   0.01267  Uiso   1.00
H79    H     0.62690   0.91590   0.53060   0.01267  Uiso   1.00
H80    H     0.05130   0.68330   0.09450   0.01267  Uiso   1.00
H81    H     0.47230   0.55410   0.77970   0.01267  Uiso   1.00
H82    H     0.17840   0.48770   0.10630   0.01267  Uiso   1.00
H83    H     0.84930   0.33090   0.09290   0.01267  Uiso   1.00
H84    H     0.89420   0.26810   0.36310   0.01267  Uiso   1.00
H85    H     0.55670   0.86540   0.12670   0.01267  Uiso   1.00
H86    H     0.61080   0.11760   0.98490   0.01267  Uiso   1.00
H87    H     0.16540   0.24000   0.27120   0.01267  Uiso   1.00
H88    H     0.32160   0.48770   0.60630   0.01267  Uiso   1.00
H89    H     0.48820   0.62950   0.65380   0.01267  Uiso   1.00
H90    H     0.54740   0.19480   0.99520   0.01267  Uiso   1.00
H91    H     0.05670   0.13460   0.37330   0.01267  Uiso   1.00
H92    H     0.15070   0.66910   0.90710   0.01267  Uiso   1.00
H93    H     0.92830   0.83570   0.20340   0.01267  Uiso   1.00
H94    H     0.89360   0.86580   0.16120   0.01267  Uiso   1.00
H95    H     0.35620   0.43510   0.61940   0.01267  Uiso   1.00
H96    H     0.95160   0.87230   0.06420   0.01267  Uiso   1.00
H97    H     0.26040   0.63180   0.30580   0.01267  Uiso   1.00
H98    H     0.55180   0.17800   0.82280   0.01267  Uiso   1.00
H99    H     0.51180   0.37050   0.34620   0.01267  Uiso   1.00
H100   H     0.37310   0.08410   0.46940   0.01267  Uiso   1.00
H101   H     0.35090   0.66290   0.17640   0.01267  Uiso   1.00
H102   H     0.64910   0.33710   0.82360   0.01267  Uiso   1.00
H103   H     0.12690   0.89040   0.17520   0.01267  Uiso   1.00
H104   H     0.94330   0.86540   0.62670   0.01267  Uiso   1.00
H105   H     0.39360   0.13420   0.33880   0.01267  Uiso   1.00
H106   H     0.50670   0.38030   0.09150   0.01267  Uiso   1.00
H107   H     0.12910   0.91110   0.01250   0.01267  Uiso   1.00
H108   H     0.57170   0.83570   0.70340   0.01267  Uiso   1.00
H109   H     0.04840   0.12770   0.93580   0.01267  Uiso   1.00
H110   H     0.06040   0.83860   0.98490   0.01267  Uiso   1.00
H111   H     0.05810   0.09950   0.79640   0.01267  Uiso   1.00
H112   H     0.86000   0.71450   0.15900   0.01267  Uiso   1.00
H113   H     0.63290   0.90870   0.18590   0.01267  Uiso   1.00
H114   H     0.87310   0.10960   0.82480   0.01267  Uiso   1.00
H115   H     0.25880   0.95590   0.46610   0.01267  Uiso   1.00
H116   H     0.49680   0.57630   0.39570   0.01267  Uiso   1.00
H117   H     0.04090   0.66950   0.49880   0.01267  Uiso   1.00
H118   H     0.37090   0.91110   0.51250   0.01267  Uiso   1.00
H119   H     0.44820   0.82200   0.17720   0.01267  Uiso   1.00
H120   H     0.66540   0.76000   0.22880   0.01267  Uiso   1.00
H121   H     0.54090   0.33050   0.00120   0.01267  Uiso   1.00
H122   H     0.08920   0.28320   0.33040   0.01267  Uiso   1.00
H123   H     0.00670   0.61970   0.40850   0.01267  Uiso   1.00
H124   H     0.53960   0.64880   0.46640   0.01267  Uiso   1.00
H125   H     0.95730   0.86520   0.45700   0.01267  Uiso   1.00
H126   H     0.49330   0.61970   0.90850   0.01267  Uiso   1.00
H127   H     0.45710   0.35990   0.88800   0.01267  Uiso   1.00
H128   H     0.94820   0.17800   0.32280   0.01267  Uiso   1.00
H129   H     0.91080   0.71680   0.66960   0.01267  Uiso   1.00
H130   H     0.06790   0.10230   0.48140   0.01267  Uiso   1.00
H131   H     0.41080   0.28320   0.83040   0.01267  Uiso   1.00
H132   H     0.33050   0.41420   0.85990   0.01267  Uiso   1.00
H133   H     0.62910   0.08890   0.48750   0.01267  Uiso   1.00
H134   H     0.27160   0.95910   0.75640   0.01267  Uiso   1.00
H135   H     0.88480   0.10080   0.31240   0.01267  Uiso   1.00
H136   H     0.91940   0.72640   0.94310   0.01267  Uiso   1.00
H137   H     0.65920   0.77010   0.40950   0.01267  Uiso   1.00
H138   H     0.96040   0.64880   0.96640   0.01267  Uiso   1.00
H139   H     0.50040   0.42890   0.84850   0.01267  Uiso   1.00
H140   H     0.87310   0.91590   0.03060   0.01267  Uiso   1.00
H141   H     0.66950   0.58580   0.14010   0.01267  Uiso   1.00
H142   H     0.44190   0.09950   0.29640   0.01267  Uiso   1.00
H143   H     0.02770   0.55410   0.27970   0.01267  Uiso   1.00
H144   H     0.45730   0.13480   0.04300   0.01267  Uiso   1.00
H145   H     0.33460   0.24000   0.77120   0.01267  Uiso   1.00
H146   H     0.54290   0.64010   0.11200   0.01267  Uiso   1.00
H147   H     0.56040   0.16140   0.51510   0.01267  Uiso   1.00
H148   H     0.58060   0.72640   0.44310   0.01267  Uiso   1.00
H149   H     0.43960   0.83860   0.48490   0.01267  Uiso   1.00
H150   H     0.42830   0.16430   0.29660   0.01267  Uiso   1.00
H151   H     0.85090   0.33710   0.32360   0.01267  Uiso   1.00
H152   H     0.85620   0.56490   0.88060   0.01267  Uiso   1.00
H153   H     0.45160   0.12770   0.43580   0.01267  Uiso   1.00
H154   H     0.68710   0.52480   0.10030   0.01267  Uiso   1.00
H155   H     0.64380   0.56490   0.38060   0.01267  Uiso   1.00
H156   H     0.76040   0.36820   0.19420   0.01267  Uiso   1.00
H157   H     0.54270   0.86520   0.95700   0.01267  Uiso   1.00
H158   H     0.18710   0.47520   0.39970   0.01267  Uiso   1.00
H159   H     0.64080   0.52920   0.15090   0.01267  Uiso   1.00
H160   H     0.39950   0.23160   0.40030   0.01267  Uiso   1.00
H161   H     0.11520   0.89920   0.68760   0.01267  Uiso   1.00
H162   H     0.60580   0.26810   0.86310   0.01267  Uiso   1.00
H163   H     0.10640   0.13420   0.83880   0.01267  Uiso   1.00
H164   H     0.23960   0.63180   0.80580   0.01267  Uiso   1.00
H165   H     0.84080   0.77010   0.90950   0.01267  Uiso   1.00
H166   H     0.52770   0.44590   0.22030   0.01267  Uiso   1.00
H167   H     0.24120   0.95590   0.96610   0.01267  Uiso   1.00
H168   H     0.89220   0.25830   0.02210   0.01267  Uiso   1.00
H169   H     0.65070   0.33090   0.59290   0.01267  Uiso   1.00
H170   H     0.61520   0.10080   0.81240   0.01267  Uiso   1.00
H171   H     0.14380   0.43510   0.11940   0.01267  Uiso   1.00
H172   H     0.13290   0.09130   0.31410   0.01267  Uiso   1.00
H173   H     0.08060   0.27360   0.05690   0.01267  Uiso   1.00
H174   H     0.10780   0.74170   0.97790   0.01267  Uiso   1.00
H175   H     0.56790   0.89770   0.01860   0.01267  Uiso   1.00
H176   H     0.43210   0.10230   0.98140   0.01267  Uiso   1.00
H177   H     0.12690   0.08410   0.96940   0.01267  Uiso   1.00
H178   H     0.45260   0.80520   0.00480   0.01267  Uiso   1.00
H179   H     0.67840   0.51230   0.39370   0.01267  Uiso   1.00
H180   H     0.94180   0.18210   0.85240   0.01267  Uiso   1.00
H181   H     0.88940   0.75600   0.52900   0.01267  Uiso   1.00
H182   H     0.00320   0.57630   0.89570   0.01267  Uiso   1.00
H183   H     0.73960   0.36820   0.69420   0.01267  Uiso   1.00
H184   H     0.10050   0.23160   0.90030   0.01267  Uiso   1.00
H185   H     0.94870   0.31670   0.90550   0.01267  Uiso   1.00
H186   H     0.38940   0.24400   0.97100   0.01267  Uiso   1.00
H187   H     0.79990   0.57590   0.92080   0.01267  Uiso   1.00
H188   H     0.82160   0.51230   0.89370   0.01267  Uiso   1.00
H189   H     0.04270   0.13480   0.54300   0.01267  Uiso   1.00
H190   H     0.05180   0.82200   0.67720   0.01267  Uiso   1.00
H191   H     0.60780   0.25830   0.52210   0.01267  Uiso   1.00
H192   H     0.46040   0.35120   0.53360   0.01267  Uiso   1.00
C1     C     0.92740   0.16320   0.87980   0.01267  Uiso   1.00
C2     C     0.13410   0.10870   0.75490   0.01267  Uiso   1.00
C3     C     0.92120   0.38950   0.33230   0.01267  Uiso   1.00
C4     C     0.51100   0.65770   0.64280   0.01267  Uiso   1.00
C5     C     0.48290   0.35260   0.06700   0.01267  Uiso   1.00
C6     C     0.11200   0.66500   0.91920   0.01267  Uiso   1.00
C7     C     0.39450   0.56690   0.19340   0.01267  Uiso   1.00
C8     C     0.52090   0.73100   0.59150   0.01267  Uiso   1.00
C9     C     0.07260   0.83680   0.12020   0.01267  Uiso   1.00
C10    C     0.06790   0.33310   0.83800   0.01267  Uiso   1.00
C11    C     0.88530   0.10780   0.96010   0.01267  Uiso   1.00
C12    C     0.34960   0.15290   0.53310   0.01267  Uiso   1.00
C13    C     0.09590   0.36930   0.64100   0.01267  Uiso   1.00
C14    C     0.57260   0.16320   0.37980   0.01267  Uiso   1.00
C15    C     0.11900   0.89810   0.60230   0.01267  Uiso   1.00
C16    C     0.56120   0.17570   0.95810   0.01267  Uiso   1.00
C17    C     0.84960   0.84710   0.96690   0.01267  Uiso   1.00
C18    C     0.61200   0.33500   0.58080   0.01267  Uiso   1.00
C19    C     0.57770   0.74020   0.61070   0.01267  Uiso   1.00
C20    C     0.18220   0.44960   0.11290   0.01267  Uiso   1.00
C21    C     0.22440   0.45860   0.31940   0.01267  Uiso   1.00
C22    C     0.72440   0.54140   0.18060   0.01267  Uiso   1.00
C23    C     0.47820   0.60370   0.14860   0.01267  Uiso   1.00
C24    C     0.15630   0.16160   0.28710   0.01267  Uiso   1.00
C25    C     0.89860   0.11980   0.34950   0.01267  Uiso   1.00
C26    C     0.39880   0.29180   0.35410   0.01267  Uiso   1.00
C27    C     0.52450   0.39020   0.58760   0.01267  Uiso   1.00
C28    C     0.36590   0.10870   0.25490   0.01267  Uiso   1.00
C29    C     0.36550   0.90760   0.59640   0.01267  Uiso   1.00
C30    C     0.08860   0.12840   0.80070   0.01267  Uiso   1.00
C31    C     0.99610   0.64470   0.62510   0.01267  Uiso   1.00
C32    C     0.97550   0.39020   0.08760   0.01267  Uiso   1.00
C33    C     0.50320   0.32310   0.01340   0.01267  Uiso   1.00
C34    C     0.42120   0.61050   0.16770   0.01267  Uiso   1.00
C35    C     0.42910   0.14850   0.46720   0.01267  Uiso   1.00
C36    C     0.81780   0.55040   0.88710   0.01267  Uiso   1.00
C37    C     0.01250   0.68970   0.10760   0.01267  Uiso   1.00
C38    C     0.59440   0.63240   0.69980   0.01267  Uiso   1.00
C39    C     0.02090   0.26900   0.90850   0.01267  Uiso   1.00
C40    C     0.50390   0.64470   0.12510   0.01267  Uiso   1.00
C41    C     0.08440   0.69920   0.63990   0.01267  Uiso   1.00
C42    C     0.07640   0.13060   0.51740   0.01267  Uiso   1.00
C43    C     0.54370   0.19360   0.90990   0.01267  Uiso   1.00
C44    C     0.56580   0.78710   0.14260   0.01267  Uiso   1.00
C45    C     0.52180   0.39630   0.85140   0.01267  Uiso   1.00
C46    C     0.02740   0.69250   0.62070   0.01267  Uiso   1.00
C47    C     0.92130   0.84400   0.64740   0.01267  Uiso   1.00
C48    C     0.35660   0.21860   0.79190   0.01267  Uiso   1.00
C49    C     0.47550   0.60980   0.41240   0.01267  Uiso   1.00
C50    C     0.94290   0.79520   0.00680   0.01267  Uiso   1.00
C51    C     0.48750   0.68970   0.60760   0.01267  Uiso   1.00
C52    C     0.20130   0.13480   0.24300   0.01267  Uiso   1.00
C53    C     0.59880   0.12980   0.95200   0.01267  Uiso   1.00
C54    C     0.01710   0.35260   0.56700   0.01267  Uiso   1.00
C55    C     0.86930   0.88990   0.45210   0.01267  Uiso   1.00
C56    C     0.43210   0.33310   0.33800   0.01267  Uiso   1.00
C57    C     0.97820   0.39630   0.35140   0.01267  Uiso   1.00
C58    C     0.15040   0.15290   0.03310   0.01267  Uiso   1.00
C59    C     0.31780   0.44960   0.61290   0.01267  Uiso   1.00
C60    C     0.42360   0.13060   0.01740   0.01267  Uiso   1.00
C61    C     0.09880   0.87020   0.54800   0.01267  Uiso   1.00
C62    C     0.84370   0.83840   0.71290   0.01267  Uiso   1.00
C63    C     0.41320   0.27160   0.99540   0.01267  Uiso   1.00
C64    C     0.61900   0.10190   0.89770   0.01267  Uiso   1.00
C65    C     0.10140   0.88020   0.65050   0.01267  Uiso   1.00
C66    C     0.17890   0.95460   0.11000   0.01267  Uiso   1.00
C67    C     0.38800   0.66500   0.41920   0.01267  Uiso   1.00
C68    C     0.90190   0.75580   0.67290   0.01267  Uiso   1.00
C69    C     0.60550   0.43310   0.80660   0.01267  Uiso   1.00
C70    C     0.06380   0.83430   0.64430   0.01267  Uiso   1.00
C71    C     0.04370   0.80640   0.59010   0.01267  Uiso   1.00
C72    C     0.41340   0.70810   0.46120   0.01267  Uiso   1.00
C73    C     0.42130   0.15600   0.85260   0.01267  Uiso   1.00
C74    C     0.38530   0.89220   0.53990   0.01267  Uiso   1.00
C75    C     0.32110   0.95460   0.61000   0.01267  Uiso   1.00
C76    C     0.84040   0.05470   0.38690   0.01267  Uiso   1.00
C77    C     0.44290   0.20480   0.49320   0.01267  Uiso   1.00
C78    C     0.70130   0.86520   0.25700   0.01267  Uiso   1.00
C79    C     0.42610   0.84910   0.52350   0.01267  Uiso   1.00
C80    C     0.03010   0.70210   0.97880   0.01267  Uiso   1.00
C81    C     0.08660   0.70810   0.96120   0.01267  Uiso   1.00
C82    C     0.19850   0.12480   0.05860   0.01267  Uiso   1.00
C83    C     0.65960   0.05470   0.88690   0.01267  Uiso   1.00
C84    C     0.52740   0.30750   0.87930   0.01267  Uiso   1.00
C85    C     0.89880   0.70820   0.14590   0.01267  Uiso   1.00
C86    C     0.57880   0.38950   0.83230   0.01267  Uiso   1.00
C87    C     0.07390   0.84910   0.02350   0.01267  Uiso   1.00
C88    C     0.07090   0.14850   0.96720   0.01267  Uiso   1.00
C89    C     0.63670   0.79080   0.44090   0.01267  Uiso   1.00
C90    C     0.88660   0.12010   0.86350   0.01267  Uiso   1.00
C91    C     0.46990   0.70210   0.47880   0.01267  Uiso   1.00
C92    C     0.09000   0.23510   0.03910   0.01267  Uiso   1.00
C93    C     0.43620   0.83430   0.14430   0.01267  Uiso   1.00
C94    C     0.09440   0.36760   0.80020   0.01267  Uiso   1.00
C95    C     0.86590   0.89130   0.24510   0.01267  Uiso   1.00
C96    C     0.50100   0.65300   0.45440   0.01267  Uiso   1.00
C97    C     0.89290   0.69880   0.45090   0.01267  Uiso   1.00
C98    C     0.61340   0.12010   0.36350   0.01267  Uiso   1.00
C99    C     0.85660   0.78140   0.70810   0.01267  Uiso   1.00
C100   C     0.98900   0.65770   0.14280   0.01267  Uiso   1.00
C101   C     0.51250   0.31030   0.39240   0.01267  Uiso   1.00
C102   C     0.13670   0.20920   0.05910   0.01267  Uiso   1.00
C103   C     0.40410   0.36930   0.14100   0.01267  Uiso   1.00
C104   C     0.63450   0.09240   0.40360   0.01267  Uiso   1.00
C105   C     0.87600   0.86970   0.68260   0.01267  Uiso   1.00
C106   C     0.07230   0.34170   0.58490   0.01267  Uiso   1.00
C107   C     0.92610   0.15090   0.97650   0.01267  Uiso   1.00
C108   C     0.65630   0.83840   0.21290   0.01267  Uiso   1.00
C109   C     0.82370   0.54570   0.63940   0.01267  Uiso   1.00
C110   C     0.14340   0.21860   0.29190   0.01267  Uiso   1.00
C111   C     0.38990   0.65830   0.16330   0.01267  Uiso   1.00
C112   C     0.57390   0.15090   0.47650   0.01267  Uiso   1.00
C113   C     0.91140   0.87160   0.19930   0.01267  Uiso   1.00
C114   C     0.32370   0.45430   0.86060   0.01267  Uiso   1.00
C115   C     0.56380   0.16570   0.85570   0.01267  Uiso   1.00
C116   C     0.78020   0.54750   0.83490   0.01267  Uiso   1.00
C117   C     0.47260   0.69250   0.12070   0.01267  Uiso   1.00
C118   C     0.45630   0.80640   0.09010   0.01267  Uiso   1.00
C119   C     0.92910   0.85150   0.03280   0.01267  Uiso   1.00
C120   C     0.91560   0.30080   0.36010   0.01267  Uiso   1.00
C121   C     0.48900   0.34230   0.35720   0.01267  Uiso   1.00
C122   C     0.07770   0.25980   0.88930   0.01267  Uiso   1.00
C123   C     0.96840   0.71740   0.52240   0.01267  Uiso   1.00
C124   C     0.60560   0.42930   0.65430   0.01267  Uiso   1.00
C125   C     0.88990   0.34170   0.33670   0.01267  Uiso   1.00
C126   C     0.41000   0.23510   0.53910   0.01267  Uiso   1.00
C127   C     0.43880   0.82430   0.04190   0.01267  Uiso   1.00
C128   C     0.98290   0.64740   0.43300   0.01267  Uiso   1.00
C129   C     0.63410   0.89130   0.74510   0.01267  Uiso   1.00
C130   C     0.60140   0.11980   0.84950   0.01267  Uiso   1.00
C131   C     0.30150   0.12480   0.55860   0.01267  Uiso   1.00
C132   C     0.41900   0.61590   0.39480   0.01267  Uiso   1.00
C133   C     0.59000   0.76490   0.46090   0.01267  Uiso   1.00
C134   C     0.07870   0.15600   0.35260   0.01267  Uiso   1.00
C135   C     0.93620   0.16570   0.35570   0.01267  Uiso   1.00
C136   C     0.05280   0.82140   0.06370   0.01267  Uiso   1.00
C137   C     0.11010   0.65830   0.66330   0.01267  Uiso   1.00
C138   C     0.59810   0.75580   0.17290   0.01267  Uiso   1.00
C139   C     0.13450   0.90760   0.09640   0.01267  Uiso   1.00
C140   C     0.99900   0.65300   0.95440   0.01267  Uiso   1.00
C141   C     0.49610   0.35530   0.87490   0.01267  Uiso   1.00
C142   C     0.55710   0.79520   0.50680   0.01267  Uiso   1.00
C143   C     0.34370   0.16160   0.78710   0.01267  Uiso   1.00
C144   C     0.39860   0.88020   0.15050   0.01267  Uiso   1.00
C145   C     0.00390   0.35530   0.37490   0.01267  Uiso   1.00
C146   C     0.42770   0.34170   0.08490   0.01267  Uiso   1.00
C147   C     0.01100   0.34230   0.85720   0.01267  Uiso   1.00
C148   C     0.00320   0.67690   0.48660   0.01267  Uiso   1.00
C149   C     0.34040   0.94530   0.11310   0.01267  Uiso   1.00
C150   C     0.53010   0.29790   0.52120   0.01267  Uiso   1.00
C151   C     0.10550   0.56690   0.69340   0.01267  Uiso   1.00
C152   C     0.37600   0.13030   0.81740   0.01267  Uiso   1.00
C153   C     0.89450   0.43310   0.30660   0.01267  Uiso   1.00
C154   C     0.38100   0.89810   0.10230   0.01267  Uiso   1.00
C155   C     0.71980   0.54750   0.33490   0.01267  Uiso   1.00
C156   C     0.06580   0.21290   0.35740   0.01267  Uiso   1.00
C157   C     0.38660   0.87990   0.63650   0.01267  Uiso   1.00
C158   C     0.60710   0.69880   0.95090   0.01267  Uiso   1.00
C159   C     0.93210   0.66690   0.16200   0.01267  Uiso   1.00
C160   C     0.69850   0.87520   0.44140   0.01267  Uiso   1.00
C161   C     0.90120   0.12980   0.45200   0.01267  Uiso   1.00
C162   C     0.56790   0.66690   0.66200   0.01267  Uiso   1.00
C163   C     0.10710   0.30120   0.54910   0.01267  Uiso   1.00
C164   C     0.91320   0.72840   0.50460   0.01267  Uiso   1.00
C165   C     0.17630   0.45430   0.36060   0.01267  Uiso   1.00
C166   C     0.38250   0.12250   0.48710   0.01267  Uiso   1.00
C167   C     0.68220   0.55040   0.38710   0.01267  Uiso   1.00
C168   C     0.15960   0.94530   0.61310   0.01267  Uiso   1.00
C169   C     0.92230   0.74020   0.11070   0.01267  Uiso   1.00
C170   C     0.89440   0.42930   0.15430   0.01267  Uiso   1.00
C171   C     0.41140   0.12840   0.30070   0.01267  Uiso   1.00
C172   C     0.63070   0.88990   0.95210   0.01267  Uiso   1.00
C173   C     0.10560   0.57070   0.84570   0.01267  Uiso   1.00
C174   C     0.36930   0.11010   0.04790   0.01267  Uiso   1.00
C175   C     0.61470   0.10780   0.46010   0.01267  Uiso   1.00
C176   C     0.90410   0.63070   0.35900   0.01267  Uiso   1.00
C177   C     0.93880   0.17570   0.45810   0.01267  Uiso   1.00
C178   C     0.11340   0.87990   0.13650   0.01267  Uiso   1.00
C179   C     0.29870   0.13480   0.74300   0.01267  Uiso   1.00
C180   C     0.12400   0.13030   0.31740   0.01267  Uiso   1.00
C181   C     0.88250   0.87750   0.01290   0.01267  Uiso   1.00
C182   C     0.58440   0.30080   0.86010   0.01267  Uiso   1.00
C183   C     0.58680   0.72840   0.00460   0.01267  Uiso   1.00
C184   C     0.59590   0.63070   0.85900   0.01267  Uiso   1.00
C185   C     0.57870   0.84400   0.14740   0.01267  Uiso   1.00
C186   C     0.94720   0.17860   0.93630   0.01267  Uiso   1.00
C187   C     0.57230   0.65830   0.91510   0.01267  Uiso   1.00
C188   C     0.28020   0.45250   0.66510   0.01267  Uiso   1.00
C189   C     0.58660   0.29190   0.53880   0.01267  Uiso   1.00
C190   C     0.36330   0.20920   0.55910   0.01267  Uiso   1.00
C191   C     0.61750   0.87750   0.51290   0.01267  Uiso   1.00
C192   C     0.10120   0.29180   0.85410   0.01267  Uiso   1.00
C193   C     0.79870   0.86520   0.75700   0.01267  Uiso   1.00
C194   C     0.92770   0.65830   0.41510   0.01267  Uiso   1.00
C195   C     0.77560   0.54140   0.68060   0.01267  Uiso   1.00
C196   C     0.65040   0.84710   0.46690   0.01267  Uiso   1.00
C197   C     0.07880   0.61050   0.66770   0.01267  Uiso   1.00
C198   C     0.21980   0.45250   0.16510   0.01267  Uiso   1.00
C199   C     0.49680   0.67690   0.98660   0.01267  Uiso   1.00
C200   C     0.90560   0.63240   0.19980   0.01267  Uiso   1.00
C201   C     0.49900   0.34700   0.54560   0.01267  Uiso   1.00
C202   C     0.03160   0.28260   0.47760   0.01267  Uiso   1.00
C203   C     0.86550   0.09240   0.90360   0.01267  Uiso   1.00
C204   C     0.00100   0.34700   0.04560   0.01267  Uiso   1.00
C205   C     0.27560   0.45860   0.81940   0.01267  Uiso   1.00
C206   C     0.47910   0.26900   0.40850   0.01267  Uiso   1.00
C207   C     0.09810   0.24420   0.32710   0.01267  Uiso   1.00
C208   C     0.61010   0.34170   0.83670   0.01267  Uiso   1.00
C209   C     0.92360   0.86940   0.48260   0.01267  Uiso   1.00
C210   C     0.91000   0.76490   0.96090   0.01267  Uiso   1.00
C211   C     0.42230   0.25980   0.38930   0.01267  Uiso   1.00
C212   C     0.67630   0.54570   0.13940   0.01267  Uiso   1.00
C213   C     0.80150   0.87520   0.94140   0.01267  Uiso   1.00
C214   C     0.40120   0.87020   0.04800   0.01267  Uiso   1.00
C215   C     0.58100   0.38410   0.60520   0.01267  Uiso   1.00
C216   C     0.67890   0.04540   0.39000   0.01267  Uiso   1.00
C217   C     0.93420   0.78710   0.64260   0.01267  Uiso   1.00
C218   C     0.88800   0.33500   0.08080   0.01267  Uiso   1.00
C219   C     0.91340   0.29190   0.03880   0.01267  Uiso   1.00
C220   C     0.55280   0.17860   0.43630   0.01267  Uiso   1.00
C221   C     0.98750   0.31030   0.89240   0.01267  Uiso   1.00
C222   C     0.02450   0.60980   0.91240   0.01267  Uiso   1.00
C223   C     0.96990   0.29790   0.02120   0.01267  Uiso   1.00
C224   C     0.58860   0.87160   0.69930   0.01267  Uiso   1.00
C225   C     0.86330   0.79080   0.94090   0.01267  Uiso   1.00
C226   C     0.05710   0.20480   0.99320   0.01267  Uiso   1.00
C227   C     0.11750   0.12250   0.98710   0.01267  Uiso   1.00
C228   C     0.99680   0.32310   0.51340   0.01267  Uiso   1.00
C229   C     0.06120   0.82430   0.54190   0.01267  Uiso   1.00
C230   C     0.57640   0.86940   0.98260   0.01267  Uiso   1.00
C231   C     0.51710   0.64740   0.93300   0.01267  Uiso   1.00
C232   C     0.08100   0.61590   0.89480   0.01267  Uiso   1.00
C233   C     0.13070   0.11010   0.54790   0.01267  Uiso   1.00
C234   C     0.82110   0.04540   0.89000   0.01267  Uiso   1.00
C235   C     0.43420   0.21290   0.85740   0.01267  Uiso   1.00
C236   C     0.64340   0.78140   0.20810   0.01267  Uiso   1.00
C237   C     0.62400   0.86970   0.18260   0.01267  Uiso   1.00
C238   C     0.39290   0.30120   0.04910   0.01267  Uiso   1.00
C239   C     0.97260   0.30750   0.37930   0.01267  Uiso   1.00
C240   C     0.11470   0.89220   0.03990   0.01267  Uiso   1.00
C241   C     0.57090   0.85150   0.53280   0.01267  Uiso   1.00
C242   C     0.97910   0.73100   0.09150   0.01267  Uiso   1.00
C243   C     0.95630   0.19360   0.40990   0.01267  Uiso   1.00
C244   C     0.60120   0.70820   0.64590   0.01267  Uiso   1.00
C245   C     0.91900   0.38410   0.10520   0.01267  Uiso   1.00
C246   C     0.40190   0.24420   0.82710   0.01267  Uiso   1.00
C247   C     0.08680   0.27160   0.49540   0.01267  Uiso   1.00
C248   C     0.44720   0.82140   0.56370   0.01267  Uiso   1.00
C249   C     0.53160   0.71740   0.02240   0.01267  Uiso   1.00
C250   C     0.39440   0.57070   0.34570   0.01267  Uiso   1.00
C251   C     0.40560   0.36760   0.30020   0.01267  Uiso   1.00
C252   C     0.46840   0.28260   0.97760   0.01267  Uiso   1.00
C253   C     0.41560   0.69920   0.13990   0.01267  Uiso   1.00
C254   C     0.02180   0.60370   0.64860   0.01267  Uiso   1.00
C255   C     0.88100   0.10190   0.39770   0.01267  Uiso   1.00
C256   C     0.42740   0.83680   0.62020   0.01267  Uiso   1.00
O1     O     0.22980   0.06540   0.63780   0.01267  Uiso   1.00
O2     O     0.74540   0.58730   0.20760   0.01267  Uiso   1.00
O3     O     0.57400   0.47110   0.79680   0.01267  Uiso   1.00
O4     O     0.70820   0.91440   0.25160   0.01267  Uiso   1.00
O5     O     0.85720   0.85520   0.40630   0.01267  Uiso   1.00
O6     O     0.06720   0.40800   0.67240   0.01267  Uiso   1.00
O7     O     0.34270   0.57210   0.33230   0.01267  Uiso   1.00
O8     O     0.92480   0.47100   0.17680   0.01267  Uiso   1.00
O9     O     0.76780   0.84380   0.90760   0.01267  Uiso   1.00
O10    O     0.56720   0.59200   0.82760   0.01267  Uiso   1.00
O11    O     0.16430   0.06500   0.74530   0.01267  Uiso   1.00
O12    O     0.92600   0.47110   0.29680   0.01267  Uiso   1.00
O13    O     0.81760   0.03750   0.33890   0.01267  Uiso   1.00
O14    O     0.33570   0.06500   0.24530   0.01267  Uiso   1.00
O15    O     0.64290   0.85990   0.77790   0.01267  Uiso   1.00
O16    O     0.64470   0.63830   0.84080   0.01267  Uiso   1.00
O17    O     0.22990   0.40920   0.18250   0.01267  Uiso   1.00
O18    O     0.27020   0.06540   0.13780   0.01267  Uiso   1.00
O19    O     0.28010   0.15170   0.70130   0.01267  Uiso   1.00
O20    O     0.65670   0.42970   0.79050   0.01267  Uiso   1.00
O21    O     0.24130   0.49840   0.19180   0.01267  Uiso   1.00
O22    O     0.29430   0.07350   0.53590   0.01267  Uiso   1.00
O23    O     0.14430   0.35860   0.78100   0.01267  Uiso   1.00
O24    O     0.43280   0.40800   0.17240   0.01267  Uiso   1.00
O25    O     0.65730   0.42790   0.66770   0.01267  Uiso   1.00
O26    O     0.25680   0.98140   0.26320   0.01267  Uiso   1.00
O27    O     0.19460   0.97020   0.16090   0.01267  Uiso   1.00
O28    O     0.75330   0.39170   0.72300   0.01267  Uiso   1.00
O29    O     0.07400   0.52890   0.70320   0.01267  Uiso   1.00
O30    O     0.79860   0.03300   0.93230   0.01267  Uiso   1.00
O31    O     0.35570   0.35860   0.28100   0.01267  Uiso   1.00
O32    O     0.67480   0.03800   0.92950   0.01267  Uiso   1.00
O33    O     0.66430   0.93500   0.75470   0.01267  Uiso   1.00
O34    O     0.14290   0.14010   0.72210   0.01267  Uiso   1.00
O35    O     0.72980   0.93460   0.86220   0.01267  Uiso   1.00
O36    O     0.42480   0.52900   0.32320   0.01267  Uiso   1.00
O37    O     0.25870   0.49840   0.69180   0.01267  Uiso   1.00
O38    O     0.16040   0.06640   0.53230   0.01267  Uiso   1.00
O39    O     0.79430   0.92650   0.96410   0.01267  Uiso   1.00
O40    O     0.69460   0.02980   0.33910   0.01267  Uiso   1.00
O41    O     0.65290   0.53470   0.75540   0.01267  Uiso   1.00
O42    O     0.74110   0.49440   0.18630   0.01267  Uiso   1.00
O43    O     0.24540   0.41270   0.29240   0.01267  Uiso   1.00
O44    O     0.85530   0.63830   0.34080   0.01267  Uiso   1.00
O45    O     0.68240   0.03750   0.83890   0.01267  Uiso   1.00
O46    O     0.21990   0.15170   0.20130   0.01267  Uiso   1.00
O47    O     0.43580   0.40770   0.29350   0.01267  Uiso   1.00
O48    O     0.07520   0.52900   0.82320   0.01267  Uiso   1.00
O49    O     0.78010   0.84830   0.79870   0.01267  Uiso   1.00
O50    O     0.74130   0.50160   0.30820   0.01267  Uiso   1.00
O51    O     0.23220   0.15620   0.09240   0.01267  Uiso   1.00
O52    O     0.66040   0.93360   0.96770   0.01267  Uiso   1.00
O53    O     0.72990   0.59080   0.31750   0.01267  Uiso   1.00
O54    O     0.74670   0.39170   0.22300   0.01267  Uiso   1.00
O55    O     0.17480   0.96200   0.57050   0.01267  Uiso   1.00
O56    O     0.34330   0.57030   0.20950   0.01267  Uiso   1.00
O57    O     0.70570   0.92650   0.46410   0.01267  Uiso   1.00
O58    O     0.79180   0.91440   0.75160   0.01267  Uiso   1.00
O59    O     0.98530   0.46920   0.74950   0.01267  Uiso   1.00
O60    O     0.32520   0.96200   0.07050   0.01267  Uiso   1.00
O61    O     0.83570   0.93500   0.25470   0.01267  Uiso   1.00
O62    O     0.34710   0.46530   0.24460   0.01267  Uiso   1.00
O63    O     0.76810   0.02000   0.52740   0.01267  Uiso   1.00
O64    O     0.56420   0.59230   0.70650   0.01267  Uiso   1.00
O65    O     0.51470   0.46920   0.24950   0.01267  Uiso   1.00
O66    O     0.23190   0.98000   0.47260   0.01267  Uiso   1.00
O67    O     0.25330   0.60830   0.77700   0.01267  Uiso   1.00
O68    O     0.71990   0.84830   0.29870   0.01267  Uiso   1.00
O69    O     0.20820   0.08560   0.24840   0.01267  Uiso   1.00
O70    O     0.80540   0.02980   0.83910   0.01267  Uiso   1.00
O71    O     0.01470   0.53080   0.25050   0.01267  Uiso   1.00
O72    O     0.25460   0.41270   0.79240   0.01267  Uiso   1.00
O73    O     0.35710   0.14010   0.22210   0.01267  Uiso   1.00
O74    O     0.27010   0.40920   0.68250   0.01267  Uiso   1.00
O75    O     0.15290   0.46530   0.74460   0.01267  Uiso   1.00
O76    O     0.33960   0.06640   0.03230   0.01267  Uiso   1.00
O77    O     0.24670   0.60830   0.27700   0.01267  Uiso   1.00
O78    O     0.15670   0.57030   0.70950   0.01267  Uiso   1.00
O79    O     0.75460   0.58730   0.70760   0.01267  Uiso   1.00
O80    O     0.30540   0.97020   0.66090   0.01267  Uiso   1.00
O81    O     0.31760   0.96250   0.16110   0.01267  Uiso   1.00
O82    O     0.85710   0.85990   0.27790   0.01267  Uiso   1.00
O83    O     0.84270   0.42790   0.16770   0.01267  Uiso   1.00
O84    O     0.73220   0.84380   0.40760   0.01267  Uiso   1.00
O85    O     0.35530   0.36170   0.15920   0.01267  Uiso   1.00
O86    O     0.70140   0.03300   0.43230   0.01267  Uiso   1.00
O87    O     0.75680   0.01860   0.23680   0.01267  Uiso   1.00
O88    O     0.42600   0.52890   0.20320   0.01267  Uiso   1.00
O89    O     0.77010   0.59080   0.81750   0.01267  Uiso   1.00
O90    O     0.06420   0.40770   0.79350   0.01267  Uiso   1.00
O91    O     0.26780   0.15620   0.59240   0.01267  Uiso   1.00
O92    O     0.24110   0.50560   0.31370   0.01267  Uiso   1.00
O93    O     0.84330   0.42970   0.29050   0.01267  Uiso   1.00
O94    O     0.83960   0.93360   0.46770   0.01267  Uiso   1.00
O95    O     0.26810   0.98000   0.97260   0.01267  Uiso   1.00
O96    O     0.82520   0.03800   0.42950   0.01267  Uiso   1.00
O97    O     0.73190   0.02000   0.02740   0.01267  Uiso   1.00
O98    O     0.57520   0.47100   0.67680   0.01267  Uiso   1.00
O99    O     0.93580   0.59230   0.20650   0.01267  Uiso   1.00
O100   O     0.24320   0.98140   0.76320   0.01267  Uiso   1.00
O101   O     0.93280   0.59200   0.32760   0.01267  Uiso   1.00
O102   O     0.64280   0.85520   0.90630   0.01267  Uiso   1.00
O103   O     0.74320   0.01860   0.73680   0.01267  Uiso   1.00
O104   O     0.64430   0.64140   0.71900   0.01267  Uiso   1.00
O105   O     0.85570   0.64140   0.21900   0.01267  Uiso   1.00
O106   O     0.18240   0.96250   0.66110   0.01267  Uiso   1.00
O107   O     0.25890   0.50560   0.81370   0.01267  Uiso   1.00
O108   O     0.77020   0.93460   0.36220   0.01267  Uiso   1.00
O109   O     0.48530   0.53080   0.75050   0.01267  Uiso   1.00
O110   O     0.75890   0.49440   0.68630   0.01267  Uiso   1.00
O111   O     0.29860   0.96700   0.56770   0.01267  Uiso   1.00
O112   O     0.35720   0.14480   0.09370   0.01267  Uiso   1.00
O113   O     0.29180   0.08560   0.74840   0.01267  Uiso   1.00
O114   O     0.75870   0.50160   0.80820   0.01267  Uiso   1.00
O115   O     0.15730   0.57210   0.83230   0.01267  Uiso   1.00
O116   O     0.84710   0.53470   0.25540   0.01267  Uiso   1.00
O117   O     0.20570   0.07350   0.03590   0.01267  Uiso   1.00
O118   O     0.14470   0.36170   0.65920   0.01267  Uiso   1.00
O119   O     0.14280   0.14480   0.59370   0.01267  Uiso   1.00
O120   O     0.20140   0.96700   0.06770   0.01267  Uiso   1.00
