data_TOVJAP_charged
_audit_creation_date              2014-07-02
_audit_creation_method            'Materials Studio'
_symmetry_space_group_name_H-M    'P1'
_symmetry_Int_Tables_number       1
_symmetry_cell_setting            triclinic
loop_
_symmetry_equiv_pos_as_xyz
  x,y,z
_cell_length_a                    10.1500
_cell_length_b                    14.3830
_cell_length_c                    18.3550
_cell_angle_alpha                 90.3900
_cell_angle_beta                  90.0000
_cell_angle_gamma                 90.0000
loop_
_atom_site_label
_atom_site_type_symbol
_atom_site_fract_x
_atom_site_fract_y
_atom_site_fract_z
_atom_site_U_iso_or_equiv
_atom_site_adp_type
_atom_site_occupancy
V1     V     0.81620   0.75890   0.89600   0.01267  Uiso   1.00
V2     V     0.30170   0.71220   0.80350   0.01267  Uiso   1.00
V3     V     0.65150   0.74690   0.19660   0.01267  Uiso   1.00
V4     V     0.13890   0.74690   0.10730   0.01267  Uiso   1.00
V5     V     0.31620   0.74110   0.60400   0.01267  Uiso   1.00
V6     V     0.80170   0.78780   0.69650   0.01267  Uiso   1.00
V7     V     0.15150   0.75310   0.30340   0.01267  Uiso   1.00
V8     V     0.63890   0.75310   0.39270   0.01267  Uiso   1.00
V9     V     0.18380   0.24110   0.10400   0.01267  Uiso   1.00
V10    V     0.69830   0.28780   0.19650   0.01267  Uiso   1.00
V11    V     0.34850   0.25310   0.80340   0.01267  Uiso   1.00
V12    V     0.86110   0.25310   0.89270   0.01267  Uiso   1.00
V13    V     0.68380   0.25890   0.39600   0.01267  Uiso   1.00
V14    V     0.19830   0.21220   0.30350   0.01267  Uiso   1.00
V15    V     0.84850   0.24690   0.69660   0.01267  Uiso   1.00
V16    V     0.36110   0.24690   0.60730   0.01267  Uiso   1.00
Fe1    Fe    0.00000   0.00000   0.00000   0.01267  Uiso   1.00
Fe2    Fe    0.50000   0.50000   0.50000   0.01267  Uiso   1.00
P1     P     0.36300   0.84650   0.19900   0.01267  Uiso   1.00
P2     P     0.57180   0.83530   0.81330   0.01267  Uiso   1.00
P3     P     0.85640   0.81660   0.06930   0.01267  Uiso   1.00
P4     P     0.11180   0.80210   0.93360   0.01267  Uiso   1.00
P5     P     0.86300   0.65350   0.30100   0.01267  Uiso   1.00
P6     P     0.07180   0.66470   0.68670   0.01267  Uiso   1.00
P7     P     0.35640   0.68340   0.43070   0.01267  Uiso   1.00
P8     P     0.61180   0.69790   0.56640   0.01267  Uiso   1.00
P9     P     0.63700   0.15350   0.80100   0.01267  Uiso   1.00
P10    P     0.42820   0.16470   0.18670   0.01267  Uiso   1.00
P11    P     0.14360   0.18340   0.93070   0.01267  Uiso   1.00
P12    P     0.88820   0.19790   0.06640   0.01267  Uiso   1.00
P13    P     0.13700   0.34650   0.69900   0.01267  Uiso   1.00
P14    P     0.92820   0.33530   0.31330   0.01267  Uiso   1.00
P15    P     0.64360   0.31660   0.56930   0.01267  Uiso   1.00
P16    P     0.38820   0.30210   0.43360   0.01267  Uiso   1.00
H1     H     0.38620   0.97770   0.22550   0.01267  Uiso   1.00
H2     H     0.49600   0.93180   0.75060   0.01267  Uiso   1.00
H3     H     0.88620   0.52230   0.27450   0.01267  Uiso   1.00
H4     H     0.99600   0.56820   0.74940   0.01267  Uiso   1.00
H5     H     0.61380   0.02230   0.77450   0.01267  Uiso   1.00
H6     H     0.50400   0.06820   0.24940   0.01267  Uiso   1.00
H7     H     0.11380   0.47770   0.72550   0.01267  Uiso   1.00
H8     H     0.00400   0.43180   0.25060   0.01267  Uiso   1.00
O1     O     0.75120   0.65560   0.89050   0.01267  Uiso   1.00
O2     O     0.61200   0.65800   0.14850   0.01267  Uiso   1.00
O3     O     0.18470   0.64110   0.11370   0.01267  Uiso   1.00
O4     O     0.31830   0.61080   0.83210   0.01267  Uiso   1.00
O5     O     0.29320   0.82470   0.12710   0.01267  Uiso   1.00
O6     O     0.51150   0.84260   0.18730   0.01267  Uiso   1.00
O7     O     0.32530   0.77290   0.25650   0.01267  Uiso   1.00
O8     O     0.32200   0.94310   0.22550   0.01267  Uiso   1.00
O9     O     0.67550   0.84780   0.87200   0.01267  Uiso   1.00
O10    O     0.62780   0.78840   0.74560   0.01267  Uiso   1.00
O11    O     0.46050   0.77480   0.84000   0.01267  Uiso   1.00
O12    O     0.51470   0.93060   0.79410   0.01267  Uiso   1.00
O13    O     0.78600   0.80320   0.99710   0.01267  Uiso   1.00
O14    O     0.94640   0.73300   0.08520   0.01267  Uiso   1.00
O15    O     0.75050   0.82890   0.12910   0.01267  Uiso   1.00
O16    O     0.94180   0.90550   0.07110   0.01267  Uiso   1.00
O17    O     0.00110   0.73080   0.91830   0.01267  Uiso   1.00
O18    O     0.21660   0.79380   0.87410   0.01267  Uiso   1.00
O19    O     0.17480   0.78350   0.00710   0.01267  Uiso   1.00
O20    O     0.05600   0.90220   0.92960   0.01267  Uiso   1.00
O21    O     0.88470   0.78400   0.79450   0.01267  Uiso   1.00
O22    O     0.57380   0.71830   0.29370   0.01267  Uiso   1.00
O23    O     0.82530   0.00290   0.95130   0.01267  Uiso   1.00
O24    O     0.25120   0.84440   0.60950   0.01267  Uiso   1.00
O25    O     0.11200   0.84200   0.35150   0.01267  Uiso   1.00
O26    O     0.68470   0.85890   0.38630   0.01267  Uiso   1.00
O27    O     0.81830   0.88920   0.66790   0.01267  Uiso   1.00
O28    O     0.79320   0.67530   0.37290   0.01267  Uiso   1.00
O29    O     0.01150   0.65740   0.31270   0.01267  Uiso   1.00
O30    O     0.82530   0.72710   0.24350   0.01267  Uiso   1.00
O31    O     0.82200   0.55690   0.27450   0.01267  Uiso   1.00
O32    O     0.17550   0.65220   0.62800   0.01267  Uiso   1.00
O33    O     0.12780   0.71160   0.75440   0.01267  Uiso   1.00
O34    O     0.96050   0.72520   0.66000   0.01267  Uiso   1.00
O35    O     0.01470   0.56940   0.70590   0.01267  Uiso   1.00
O36    O     0.28600   0.69680   0.50290   0.01267  Uiso   1.00
O37    O     0.44640   0.76700   0.41480   0.01267  Uiso   1.00
O38    O     0.25050   0.67110   0.37090   0.01267  Uiso   1.00
O39    O     0.44180   0.59450   0.42890   0.01267  Uiso   1.00
O40    O     0.50110   0.76920   0.58170   0.01267  Uiso   1.00
O41    O     0.71660   0.70620   0.62590   0.01267  Uiso   1.00
O42    O     0.67480   0.71650   0.49290   0.01267  Uiso   1.00
O43    O     0.55600   0.59780   0.57040   0.01267  Uiso   1.00
O44    O     0.38470   0.71600   0.70550   0.01267  Uiso   1.00
O45    O     0.07380   0.78170   0.20630   0.01267  Uiso   1.00
O46    O     0.32530   0.49710   0.54870   0.01267  Uiso   1.00
O47    O     0.24880   0.34440   0.10950   0.01267  Uiso   1.00
O48    O     0.38800   0.34200   0.85150   0.01267  Uiso   1.00
O49    O     0.81530   0.35890   0.88630   0.01267  Uiso   1.00
O50    O     0.68170   0.38920   0.16790   0.01267  Uiso   1.00
O51    O     0.70680   0.17530   0.87290   0.01267  Uiso   1.00
O52    O     0.48850   0.15740   0.81270   0.01267  Uiso   1.00
O53    O     0.67470   0.22710   0.74350   0.01267  Uiso   1.00
O54    O     0.67800   0.05690   0.77450   0.01267  Uiso   1.00
O55    O     0.32450   0.15220   0.12800   0.01267  Uiso   1.00
O56    O     0.37220   0.21160   0.25440   0.01267  Uiso   1.00
O57    O     0.53950   0.22520   0.16000   0.01267  Uiso   1.00
O58    O     0.48530   0.06940   0.20590   0.01267  Uiso   1.00
O59    O     0.21400   0.19680   0.00290   0.01267  Uiso   1.00
O60    O     0.05360   0.26700   0.91480   0.01267  Uiso   1.00
O61    O     0.24950   0.17110   0.87090   0.01267  Uiso   1.00
O62    O     0.05820   0.09450   0.92890   0.01267  Uiso   1.00
O63    O     0.99890   0.26920   0.08170   0.01267  Uiso   1.00
O64    O     0.78340   0.20620   0.12590   0.01267  Uiso   1.00
O65    O     0.82520   0.21650   0.99290   0.01267  Uiso   1.00
O66    O     0.94400   0.09780   0.07040   0.01267  Uiso   1.00
O67    O     0.11530   0.21600   0.20550   0.01267  Uiso   1.00
O68    O     0.42620   0.28170   0.70630   0.01267  Uiso   1.00
O69    O     0.17470   0.99710   0.04870   0.01267  Uiso   1.00
O70    O     0.74880   0.15560   0.39050   0.01267  Uiso   1.00
O71    O     0.88800   0.15800   0.64850   0.01267  Uiso   1.00
O72    O     0.31530   0.14110   0.61370   0.01267  Uiso   1.00
O73    O     0.18170   0.11080   0.33210   0.01267  Uiso   1.00
O74    O     0.20680   0.32470   0.62710   0.01267  Uiso   1.00
O75    O     0.98850   0.34260   0.68730   0.01267  Uiso   1.00
O76    O     0.17470   0.27290   0.75650   0.01267  Uiso   1.00
O77    O     0.17800   0.44310   0.72550   0.01267  Uiso   1.00
O78    O     0.82450   0.34780   0.37200   0.01267  Uiso   1.00
O79    O     0.87220   0.28840   0.24560   0.01267  Uiso   1.00
O80    O     0.03950   0.27480   0.34000   0.01267  Uiso   1.00
O81    O     0.98530   0.43060   0.29410   0.01267  Uiso   1.00
O82    O     0.71400   0.30320   0.49710   0.01267  Uiso   1.00
O83    O     0.55360   0.23300   0.58520   0.01267  Uiso   1.00
O84    O     0.74950   0.32890   0.62910   0.01267  Uiso   1.00
O85    O     0.55820   0.40550   0.57110   0.01267  Uiso   1.00
O86    O     0.49890   0.23080   0.41830   0.01267  Uiso   1.00
O87    O     0.28340   0.29380   0.37410   0.01267  Uiso   1.00
O88    O     0.32520   0.28350   0.50710   0.01267  Uiso   1.00
O89    O     0.44400   0.40220   0.42960   0.01267  Uiso   1.00
O90    O     0.61530   0.28400   0.29450   0.01267  Uiso   1.00
O91    O     0.92620   0.21830   0.79370   0.01267  Uiso   1.00
O92    O     0.67470   0.50290   0.45130   0.01267  Uiso   1.00
H9     H     0.68010   0.04930   0.17870   0.01267  Uiso   1.00
H10    H     0.73100   0.95510   0.17440   0.01267  Uiso   1.00
H11    H     0.80670   0.03180   0.14430   0.01267  Uiso   1.00
H12    H     0.82480   0.09400   0.25580   0.01267  Uiso   1.00
H13    H     0.75720   0.00440   0.28510   0.01267  Uiso   1.00
H14    H     0.92550   0.92200   0.26670   0.01267  Uiso   1.00
H15    H     0.97060   0.01270   0.30630   0.01267  Uiso   1.00
H16    H     0.02670   0.96480   0.16820   0.01267  Uiso   1.00
H17    H     0.11980   0.98110   0.22710   0.01267  Uiso   1.00
H18    H     0.04980   0.05880   0.19490   0.01267  Uiso   1.00
C1     C     0.81630   0.02750   0.24780   0.01267  Uiso   1.00
C2     C     0.93880   0.98830   0.26020   0.01267  Uiso   1.00
N1     N     0.75280   0.01470   0.18010   0.01267  Uiso   1.00
N2     N     0.04390   0.99930   0.20750   0.01267  Uiso   1.00
H19    H     0.18010   0.45070   0.32130   0.01267  Uiso   1.00
H20    H     0.23100   0.54490   0.32560   0.01267  Uiso   1.00
H21    H     0.30670   0.46820   0.35570   0.01267  Uiso   1.00
H22    H     0.32480   0.40600   0.24420   0.01267  Uiso   1.00
H23    H     0.25720   0.49560   0.21490   0.01267  Uiso   1.00
H24    H     0.42550   0.57800   0.23330   0.01267  Uiso   1.00
H25    H     0.47060   0.48730   0.19370   0.01267  Uiso   1.00
H26    H     0.52670   0.53520   0.33180   0.01267  Uiso   1.00
H27    H     0.61980   0.51890   0.27290   0.01267  Uiso   1.00
H28    H     0.54980   0.44120   0.30510   0.01267  Uiso   1.00
C3     C     0.31630   0.47250   0.25220   0.01267  Uiso   1.00
C4     C     0.43880   0.51170   0.23980   0.01267  Uiso   1.00
N3     N     0.25280   0.48530   0.31990   0.01267  Uiso   1.00
N4     N     0.54390   0.50070   0.29250   0.01267  Uiso   1.00
H29    H     0.31990   0.95070   0.82130   0.01267  Uiso   1.00
H30    H     0.26900   0.04490   0.82560   0.01267  Uiso   1.00
H31    H     0.19330   0.96820   0.85570   0.01267  Uiso   1.00
H32    H     0.17520   0.90600   0.74420   0.01267  Uiso   1.00
H33    H     0.24280   0.99560   0.71490   0.01267  Uiso   1.00
H34    H     0.07450   0.07800   0.73330   0.01267  Uiso   1.00
H35    H     0.02940   0.98730   0.69370   0.01267  Uiso   1.00
H36    H     0.97330   0.03520   0.83180   0.01267  Uiso   1.00
H37    H     0.88020   0.01890   0.77290   0.01267  Uiso   1.00
H38    H     0.95020   0.94120   0.80510   0.01267  Uiso   1.00
C5     C     0.18370   0.97250   0.75220   0.01267  Uiso   1.00
C6     C     0.06120   0.01170   0.73980   0.01267  Uiso   1.00
N5     N     0.24720   0.98530   0.81990   0.01267  Uiso   1.00
N6     N     0.95610   0.00070   0.79250   0.01267  Uiso   1.00
H39    H     0.81990   0.54930   0.67870   0.01267  Uiso   1.00
H40    H     0.76900   0.45510   0.67440   0.01267  Uiso   1.00
H41    H     0.69330   0.53180   0.64430   0.01267  Uiso   1.00
H42    H     0.67520   0.59400   0.75580   0.01267  Uiso   1.00
H43    H     0.74280   0.50440   0.78510   0.01267  Uiso   1.00
H44    H     0.57450   0.42200   0.76670   0.01267  Uiso   1.00
H45    H     0.52940   0.51270   0.80630   0.01267  Uiso   1.00
H46    H     0.47330   0.46480   0.66820   0.01267  Uiso   1.00
H47    H     0.38020   0.48110   0.72710   0.01267  Uiso   1.00
H48    H     0.45020   0.55880   0.69490   0.01267  Uiso   1.00
C7     C     0.68370   0.52750   0.74780   0.01267  Uiso   1.00
C8     C     0.56120   0.48830   0.76020   0.01267  Uiso   1.00
N7     N     0.74720   0.51470   0.68010   0.01267  Uiso   1.00
N8     N     0.45610   0.49930   0.70750   0.01267  Uiso   1.00
