data_TOVKIA_clean
_audit_creation_date              2015-10-16
_audit_creation_method            'Materials Studio'
_symmetry_space_group_name_H-M    'P1'
_symmetry_Int_Tables_number       1
_symmetry_cell_setting            triclinic
loop_
_symmetry_equiv_pos_as_xyz
  x,y,z
_cell_length_a                    20.5227
_cell_length_b                    20.5227
_cell_length_c                    20.5227
_cell_angle_alpha                 107.1190
_cell_angle_beta                  107.1190
_cell_angle_gamma                 107.1190
loop_
_atom_site_label
_atom_site_type_symbol
_atom_site_fract_x
_atom_site_fract_y
_atom_site_fract_z
_atom_site_U_iso_or_equiv
_atom_site_adp_type
_atom_site_occupancy
Fe1    Fe    0.52411   0.42511   0.97585   0.01267  Uiso   1.00
Fe2    Fe    0.97585   0.52411   0.42511   0.01267  Uiso   1.00
Fe3    Fe    0.37121   0.37121   0.82457   0.01267  Uiso   1.00
Fe4    Fe    0.42511   0.97585   0.52411   0.01267  Uiso   1.00
Fe5    Fe    0.82457   0.37121   0.37121   0.01267  Uiso   1.00
Fe6    Fe    0.42511   0.52411   0.97585   0.01267  Uiso   1.00
Fe7    Fe    0.52411   0.97585   0.42511   0.01267  Uiso   1.00
Fe8    Fe    0.37121   0.82457   0.37121   0.01267  Uiso   1.00
Fe9    Fe    0.97585   0.42511   0.52411   0.01267  Uiso   1.00
H1     H     0.99990   0.41130   0.10650   0.01267  Uiso   1.00
H2     H     0.98740   0.46380   0.21620   0.01267  Uiso   1.00
H3     H     0.46380   0.98740   0.21620   0.01267  Uiso   1.00
H4     H     0.61020   0.73280   0.08090   0.01267  Uiso   1.00
H5     H     0.49090   0.36860   0.26390   0.01267  Uiso   1.00
H6     H     0.16320   0.82200   0.26430   0.01267  Uiso   1.00
H7     H     0.41450   0.73260   0.79240   0.01267  Uiso   1.00
H8     H     0.21190   0.83480   0.05220   0.01267  Uiso   1.00
H9     H     0.17270   0.52220   0.40000   0.01267  Uiso   1.00
H10    H     0.79240   0.41450   0.73260   0.01267  Uiso   1.00
H11    H     0.32665   0.32665   0.44940   0.01267  Uiso   1.00
H12    H     0.35810   0.54850   0.60720   0.01267  Uiso   1.00
H13    H     0.82200   0.26430   0.16320   0.01267  Uiso   1.00
H14    H     0.83480   0.05220   0.21190   0.01267  Uiso   1.00
H15    H     0.14670   0.71990   0.84290   0.01267  Uiso   1.00
H16    H     0.36860   0.26390   0.49090   0.01267  Uiso   1.00
H17    H     0.05220   0.21190   0.83480   0.01267  Uiso   1.00
H18    H     0.20290   0.81190   0.93440   0.01267  Uiso   1.00
H19    H     0.47620   0.35120   0.67620   0.01267  Uiso   1.00
H20    H     0.08090   0.61020   0.73280   0.01267  Uiso   1.00
H21    H     0.26430   0.82200   0.16320   0.01267  Uiso   1.00
H22    H     0.49090   0.26390   0.36860   0.01267  Uiso   1.00
H23    H     0.61020   0.08090   0.73280   0.01267  Uiso   1.00
H24    H     0.35810   0.60720   0.54850   0.01267  Uiso   1.00
H25    H     0.16320   0.26430   0.82200   0.01267  Uiso   1.00
H26    H     0.67620   0.47620   0.35120   0.01267  Uiso   1.00
H27    H     0.54850   0.35810   0.60720   0.01267  Uiso   1.00
H28    H     0.40000   0.52220   0.17270   0.01267  Uiso   1.00
H29    H     0.73260   0.79240   0.41450   0.01267  Uiso   1.00
H30    H     0.86000   0.66000   0.40540   0.01267  Uiso   1.00
H31    H     0.66000   0.40540   0.86000   0.01267  Uiso   1.00
H32    H     0.47620   0.67620   0.35120   0.01267  Uiso   1.00
H33    H     0.10650   0.99990   0.41130   0.01267  Uiso   1.00
H34    H     0.60720   0.54850   0.35810   0.01267  Uiso   1.00
H35    H     0.17270   0.40000   0.52220   0.01267  Uiso   1.00
H36    H     0.26390   0.49090   0.36860   0.01267  Uiso   1.00
H37    H     0.73280   0.08090   0.61020   0.01267  Uiso   1.00
H38    H     0.34910   0.03090   0.03090   0.01267  Uiso   1.00
H39    H     0.08090   0.73280   0.61020   0.01267  Uiso   1.00
H40    H     0.41130   0.99990   0.10650   0.01267  Uiso   1.00
H41    H     0.71990   0.84290   0.14670   0.01267  Uiso   1.00
H42    H     0.79240   0.73260   0.41450   0.01267  Uiso   1.00
H43    H     0.93440   0.81190   0.20290   0.01267  Uiso   1.00
H44    H     0.66000   0.86000   0.40540   0.01267  Uiso   1.00
H45    H     0.84290   0.14670   0.71990   0.01267  Uiso   1.00
H46    H     0.03090   0.03090   0.34910   0.01267  Uiso   1.00
H47    H     0.93440   0.20290   0.81190   0.01267  Uiso   1.00
H48    H     0.35120   0.67620   0.47620   0.01267  Uiso   1.00
H49    H     0.86000   0.40540   0.66000   0.01267  Uiso   1.00
H50    H     0.82200   0.16320   0.26430   0.01267  Uiso   1.00
H51    H     0.40540   0.86000   0.66000   0.01267  Uiso   1.00
H52    H     0.21620   0.98740   0.46380   0.01267  Uiso   1.00
H53    H     0.05220   0.83480   0.21190   0.01267  Uiso   1.00
H54    H     0.73280   0.61020   0.08090   0.01267  Uiso   1.00
H55    H     0.03090   0.34910   0.03090   0.01267  Uiso   1.00
H56    H     0.71990   0.14670   0.84290   0.01267  Uiso   1.00
H57    H     0.60720   0.35810   0.54850   0.01267  Uiso   1.00
H58    H     0.81190   0.20290   0.93440   0.01267  Uiso   1.00
H59    H     0.44940   0.32665   0.32665   0.01267  Uiso   1.00
H60    H     0.36860   0.49090   0.26390   0.01267  Uiso   1.00
H61    H     0.35120   0.47620   0.67620   0.01267  Uiso   1.00
H62    H     0.10650   0.41130   0.99990   0.01267  Uiso   1.00
H63    H     0.67620   0.35120   0.47620   0.01267  Uiso   1.00
H64    H     0.52220   0.40000   0.17270   0.01267  Uiso   1.00
H65    H     0.41130   0.10650   0.99990   0.01267  Uiso   1.00
H66    H     0.84290   0.71990   0.14670   0.01267  Uiso   1.00
H67    H     0.81190   0.93440   0.20290   0.01267  Uiso   1.00
H68    H     0.73260   0.41450   0.79240   0.01267  Uiso   1.00
H69    H     0.98740   0.21620   0.46380   0.01267  Uiso   1.00
H70    H     0.46380   0.21620   0.98740   0.01267  Uiso   1.00
H71    H     0.40000   0.17270   0.52220   0.01267  Uiso   1.00
H72    H     0.99990   0.10650   0.41130   0.01267  Uiso   1.00
H73    H     0.52220   0.17270   0.40000   0.01267  Uiso   1.00
H74    H     0.32665   0.44940   0.32665   0.01267  Uiso   1.00
H75    H     0.26430   0.16320   0.82200   0.01267  Uiso   1.00
H76    H     0.14670   0.84290   0.71990   0.01267  Uiso   1.00
H77    H     0.21190   0.05220   0.83480   0.01267  Uiso   1.00
H78    H     0.21620   0.46380   0.98740   0.01267  Uiso   1.00
H79    H     0.54850   0.60720   0.35810   0.01267  Uiso   1.00
H80    H     0.26390   0.36860   0.49090   0.01267  Uiso   1.00
H81    H     0.83480   0.21190   0.05220   0.01267  Uiso   1.00
H82    H     0.40540   0.66000   0.86000   0.01267  Uiso   1.00
H83    H     0.20290   0.93440   0.81190   0.01267  Uiso   1.00
H84    H     0.41450   0.79240   0.73260   0.01267  Uiso   1.00
C1     C     0.31893   0.39196   0.39196   0.01267  Uiso   1.00
C2     C     0.39600   0.63740   0.80860   0.01267  Uiso   1.00
C3     C     0.86577   0.08553   0.26310   0.01267  Uiso   1.00
C4     C     0.66050   0.66050   0.07380   0.01267  Uiso   1.00
C5     C     0.30620   0.91830   0.06790   0.01267  Uiso   1.00
C6     C     0.28050   0.99360   0.92020   0.01267  Uiso   1.00
C7     C     0.81950   0.51800   0.38450   0.01267  Uiso   1.00
C8     C     0.91830   0.30620   0.06790   0.01267  Uiso   1.00
C9     C     0.57140   0.65870   0.36830   0.01267  Uiso   1.00
C10    C     0.40150   0.76870   0.68050   0.01267  Uiso   1.00
C11    C     0.09510   0.47020   0.47020   0.01267  Uiso   1.00
C12    C     0.51800   0.38450   0.81950   0.01267  Uiso   1.00
C13    C     0.63740   0.39600   0.80860   0.01267  Uiso   1.00
C14    C     0.76870   0.68050   0.40150   0.01267  Uiso   1.00
C15    C     0.26860   0.40010   0.89520   0.01267  Uiso   1.00
C16    C     0.36830   0.57140   0.65870   0.01267  Uiso   1.00
C17    C     0.37700   0.77470   0.56100   0.01267  Uiso   1.00
C18    C     0.38130   0.96360   0.11790   0.01267  Uiso   1.00
C19    C     0.40010   0.26860   0.89520   0.01267  Uiso   1.00
C20    C     0.08553   0.86577   0.26310   0.01267  Uiso   1.00
C21    C     0.48751   0.41503   0.18816   0.01267  Uiso   1.00
C22    C     0.26310   0.86577   0.08553   0.01267  Uiso   1.00
C23    C     0.34329   0.41625   0.34329   0.01267  Uiso   1.00
C24    C     0.18310   0.95650   0.41260   0.01267  Uiso   1.00
C25    C     0.64740   0.38780   0.69310   0.01267  Uiso   1.00
C26    C     0.06790   0.91830   0.30620   0.01267  Uiso   1.00
C27    C     0.22270   0.85820   0.93100   0.01267  Uiso   1.00
C28    C     0.24253   0.46915   0.39642   0.01267  Uiso   1.00
C29    C     0.45540   0.15651   0.45540   0.01267  Uiso   1.00
C30    C     0.68050   0.76870   0.40150   0.01267  Uiso   1.00
C31    C     0.15180   0.29420   0.85810   0.01267  Uiso   1.00
C32    C     0.09410   0.73023   0.65747   0.01267  Uiso   1.00
C33    C     0.19360   0.86355   0.86355   0.01267  Uiso   1.00
C34    C     0.79205   0.15300   0.79205   0.01267  Uiso   1.00
C35    C     0.45540   0.45540   0.15651   0.01267  Uiso   1.00
C36    C     0.13320   0.72251   0.79559   0.01267  Uiso   1.00
C37    C     0.72251   0.79559   0.13320   0.01267  Uiso   1.00
C38    C     0.89520   0.40010   0.26860   0.01267  Uiso   1.00
C39    C     0.81950   0.38450   0.51800   0.01267  Uiso   1.00
C40    C     0.77470   0.56100   0.37700   0.01267  Uiso   1.00
C41    C     0.93100   0.85820   0.22270   0.01267  Uiso   1.00
C42    C     0.30960   0.98825   0.98825   0.01267  Uiso   1.00
C43    C     0.41625   0.34329   0.34329   0.01267  Uiso   1.00
C44    C     0.85810   0.29420   0.15180   0.01267  Uiso   1.00
C45    C     0.13320   0.79559   0.72251   0.01267  Uiso   1.00
C46    C     0.79559   0.72251   0.13320   0.01267  Uiso   1.00
C47    C     0.48751   0.18816   0.41503   0.01267  Uiso   1.00
C48    C     0.99360   0.28050   0.92020   0.01267  Uiso   1.00
C49    C     0.40150   0.68050   0.76870   0.01267  Uiso   1.00
C50    C     0.46915   0.24253   0.39642   0.01267  Uiso   1.00
C51    C     0.77470   0.37700   0.56100   0.01267  Uiso   1.00
C52    C     0.06790   0.30620   0.91830   0.01267  Uiso   1.00
C53    C     0.98825   0.30960   0.98825   0.01267  Uiso   1.00
C54    C     0.57140   0.36830   0.65870   0.01267  Uiso   1.00
C55    C     0.38450   0.81950   0.51800   0.01267  Uiso   1.00
C56    C     0.69310   0.38780   0.64740   0.01267  Uiso   1.00
C57    C     0.96360   0.11790   0.38130   0.01267  Uiso   1.00
C58    C     0.18816   0.48751   0.41503   0.01267  Uiso   1.00
C59    C     0.92020   0.28050   0.99360   0.01267  Uiso   1.00
C60    C     0.18310   0.41260   0.95650   0.01267  Uiso   1.00
C61    C     0.92020   0.99360   0.28050   0.01267  Uiso   1.00
C62    C     0.15651   0.45540   0.45540   0.01267  Uiso   1.00
C63    C     0.65747   0.09410   0.73023   0.01267  Uiso   1.00
C64    C     0.69970   0.52820   0.36360   0.01267  Uiso   1.00
C65    C     0.36360   0.69970   0.52820   0.01267  Uiso   1.00
C66    C     0.46915   0.39642   0.24253   0.01267  Uiso   1.00
C67    C     0.30620   0.06790   0.91830   0.01267  Uiso   1.00
C68    C     0.76870   0.40150   0.68050   0.01267  Uiso   1.00
C69    C     0.07380   0.66050   0.66050   0.01267  Uiso   1.00
C70    C     0.65747   0.73023   0.09410   0.01267  Uiso   1.00
C71    C     0.72251   0.13320   0.79559   0.01267  Uiso   1.00
C72    C     0.03320   0.58930   0.58930   0.01267  Uiso   1.00
C73    C     0.20045   0.90335   0.36890   0.01267  Uiso   1.00
C74    C     0.56100   0.77470   0.37700   0.01267  Uiso   1.00
C75    C     0.91830   0.06790   0.30620   0.01267  Uiso   1.00
C76    C     0.38780   0.64740   0.69310   0.01267  Uiso   1.00
C77    C     0.89520   0.26860   0.40010   0.01267  Uiso   1.00
C78    C     0.34329   0.34329   0.41625   0.01267  Uiso   1.00
C79    C     0.95650   0.41260   0.18310   0.01267  Uiso   1.00
C80    C     0.11790   0.38130   0.96360   0.01267  Uiso   1.00
C81    C     0.37700   0.56100   0.77470   0.01267  Uiso   1.00
C82    C     0.63740   0.80860   0.39600   0.01267  Uiso   1.00
C83    C     0.36360   0.52820   0.69970   0.01267  Uiso   1.00
C84    C     0.26860   0.89520   0.40010   0.01267  Uiso   1.00
C85    C     0.56100   0.37700   0.77470   0.01267  Uiso   1.00
C86    C     0.36890   0.90335   0.20045   0.01267  Uiso   1.00
C87    C     0.73023   0.09410   0.65747   0.01267  Uiso   1.00
C88    C     0.36830   0.65870   0.57140   0.01267  Uiso   1.00
C89    C     0.69310   0.64740   0.38780   0.01267  Uiso   1.00
C90    C     0.80860   0.39600   0.63740   0.01267  Uiso   1.00
C91    C     0.51800   0.81950   0.38450   0.01267  Uiso   1.00
C92    C     0.26544   0.41878   0.41878   0.01267  Uiso   1.00
C93    C     0.41503   0.48751   0.18816   0.01267  Uiso   1.00
C94    C     0.66050   0.07380   0.66050   0.01267  Uiso   1.00
C95    C     0.38780   0.69310   0.64740   0.01267  Uiso   1.00
C96    C     0.08553   0.26310   0.86577   0.01267  Uiso   1.00
C97    C     0.36890   0.20045   0.90335   0.01267  Uiso   1.00
C98    C     0.85820   0.22270   0.93100   0.01267  Uiso   1.00
C99    C     0.18816   0.41503   0.48751   0.01267  Uiso   1.00
C100   C     0.29420   0.15180   0.85810   0.01267  Uiso   1.00
C101   C     0.73023   0.65747   0.09410   0.01267  Uiso   1.00
C102   C     0.93100   0.22270   0.85820   0.01267  Uiso   1.00
C103   C     0.64740   0.69310   0.38780   0.01267  Uiso   1.00
C104   C     0.65870   0.36830   0.57140   0.01267  Uiso   1.00
C105   C     0.41260   0.18310   0.95650   0.01267  Uiso   1.00
C106   C     0.28050   0.92020   0.99360   0.01267  Uiso   1.00
C107   C     0.15180   0.85810   0.29420   0.01267  Uiso   1.00
C108   C     0.39196   0.31893   0.39196   0.01267  Uiso   1.00
C109   C     0.39642   0.24253   0.46915   0.01267  Uiso   1.00
C110   C     0.41503   0.18816   0.48751   0.01267  Uiso   1.00
C111   C     0.90335   0.36890   0.20045   0.01267  Uiso   1.00
C112   C     0.85810   0.15180   0.29420   0.01267  Uiso   1.00
C113   C     0.41878   0.26544   0.41878   0.01267  Uiso   1.00
C114   C     0.95650   0.18310   0.41260   0.01267  Uiso   1.00
C115   C     0.96360   0.38130   0.11790   0.01267  Uiso   1.00
C116   C     0.24253   0.39642   0.46915   0.01267  Uiso   1.00
C117   C     0.86355   0.86355   0.19360   0.01267  Uiso   1.00
C118   C     0.47020   0.09510   0.47020   0.01267  Uiso   1.00
C119   C     0.26310   0.08553   0.86577   0.01267  Uiso   1.00
C120   C     0.41878   0.41878   0.26544   0.01267  Uiso   1.00
C121   C     0.79559   0.13320   0.72251   0.01267  Uiso   1.00
C122   C     0.69970   0.36360   0.52820   0.01267  Uiso   1.00
C123   C     0.39642   0.46915   0.24253   0.01267  Uiso   1.00
C124   C     0.40010   0.89520   0.26860   0.01267  Uiso   1.00
C125   C     0.41260   0.95650   0.18310   0.01267  Uiso   1.00
C126   C     0.80860   0.63740   0.39600   0.01267  Uiso   1.00
C127   C     0.86577   0.26310   0.08553   0.01267  Uiso   1.00
C128   C     0.11790   0.96360   0.38130   0.01267  Uiso   1.00
C129   C     0.58930   0.03320   0.58930   0.01267  Uiso   1.00
C130   C     0.68050   0.40150   0.76870   0.01267  Uiso   1.00
C131   C     0.79205   0.79205   0.15300   0.01267  Uiso   1.00
C132   C     0.38130   0.11790   0.96360   0.01267  Uiso   1.00
C133   C     0.58930   0.58930   0.03320   0.01267  Uiso   1.00
C134   C     0.98825   0.98825   0.30960   0.01267  Uiso   1.00
C135   C     0.15300   0.79205   0.79205   0.01267  Uiso   1.00
C136   C     0.29420   0.85810   0.15180   0.01267  Uiso   1.00
C137   C     0.20045   0.36890   0.90335   0.01267  Uiso   1.00
C138   C     0.39600   0.80860   0.63740   0.01267  Uiso   1.00
C139   C     0.22270   0.93100   0.85820   0.01267  Uiso   1.00
C140   C     0.09410   0.65747   0.73023   0.01267  Uiso   1.00
C141   C     0.99360   0.92020   0.28050   0.01267  Uiso   1.00
C142   C     0.52820   0.69970   0.36360   0.01267  Uiso   1.00
C143   C     0.86355   0.19360   0.86355   0.01267  Uiso   1.00
C144   C     0.85820   0.93100   0.22270   0.01267  Uiso   1.00
C145   C     0.65870   0.57140   0.36830   0.01267  Uiso   1.00
C146   C     0.47020   0.47020   0.09510   0.01267  Uiso   1.00
C147   C     0.38450   0.51800   0.81950   0.01267  Uiso   1.00
C148   C     0.90335   0.20045   0.36890   0.01267  Uiso   1.00
C149   C     0.39196   0.39196   0.31893   0.01267  Uiso   1.00
C150   C     0.52820   0.36360   0.69970   0.01267  Uiso   1.00
O1     O     0.59751   0.01670   0.52979   0.01267  Uiso   1.00
O2     O     0.40398   0.55412   0.89080   0.01267  Uiso   1.00
O3     O     0.27937   0.36105   0.84359   0.01267  Uiso   1.00
O4     O     0.46301   0.94223   0.31406   0.01267  Uiso   1.00
O5     O     0.40398   0.89080   0.55412   0.01267  Uiso   1.00
O6     O     0.92608   0.43921   0.43921   0.01267  Uiso   1.00
O7     O     0.94223   0.46301   0.31406   0.01267  Uiso   1.00
O8     O     0.45232   0.78969   0.36779   0.01267  Uiso   1.00
O9     O     0.59751   0.52979   0.01670   0.01267  Uiso   1.00
O10    O     0.94223   0.31406   0.46301   0.01267  Uiso   1.00
O11    O     0.06921   0.44094   0.50885   0.01267  Uiso   1.00
O12    O     0.27937   0.84359   0.36105   0.01267  Uiso   1.00
O13    O     0.36105   0.84359   0.27937   0.01267  Uiso   1.00
O14    O     0.06921   0.50885   0.44094   0.01267  Uiso   1.00
O15    O     0.78969   0.36779   0.45232   0.01267  Uiso   1.00
O16    O     0.43921   0.43921   0.92608   0.01267  Uiso   1.00
O17    O     0.50885   0.06921   0.44094   0.01267  Uiso   1.00
O18    O     0.89080   0.55412   0.40398   0.01267  Uiso   1.00
O19    O     0.50885   0.44094   0.06921   0.01267  Uiso   1.00
O20    O     0.46301   0.31406   0.94223   0.01267  Uiso   1.00
O21    O     0.84359   0.36105   0.27937   0.01267  Uiso   1.00
O22    O     0.36779   0.78969   0.45232   0.01267  Uiso   1.00
O23    O     0.44094   0.06921   0.50885   0.01267  Uiso   1.00
O24    O     0.55412   0.40398   0.89080   0.01267  Uiso   1.00
O25    O     0.78969   0.45232   0.36779   0.01267  Uiso   1.00
O26    O     0.84359   0.27937   0.36105   0.01267  Uiso   1.00
O27    O     0.89080   0.40398   0.55412   0.01267  Uiso   1.00
O28    O     0.45232   0.36779   0.78969   0.01267  Uiso   1.00
O29    O     0.44094   0.50885   0.06921   0.01267  Uiso   1.00
O30    O     0.52979   0.01670   0.59751   0.01267  Uiso   1.00
O31    O     0.55412   0.89080   0.40398   0.01267  Uiso   1.00
O32    O     0.36779   0.45232   0.78969   0.01267  Uiso   1.00
O33    O     0.36105   0.27937   0.84359   0.01267  Uiso   1.00
O34    O     0.01670   0.59751   0.52979   0.01267  Uiso   1.00
O35    O     0.52979   0.59751   0.01670   0.01267  Uiso   1.00
O36    O     0.31406   0.46301   0.94223   0.01267  Uiso   1.00
O37    O     0.43921   0.92608   0.43921   0.01267  Uiso   1.00
O38    O     0.31406   0.94223   0.46301   0.01267  Uiso   1.00
O39    O     0.01670   0.52979   0.59751   0.01267  Uiso   1.00
