data_image0
_cell_length_a       16.697
_cell_length_b       13.848
_cell_length_c       10.873
_cell_angle_alpha    90
_cell_angle_beta     101.62
_cell_angle_gamma    90

_symmetry_space_group_name_H-M    "P 1"
_symmetry_int_tables_number       1

loop_
  _symmetry_equiv_pos_as_xyz
  'x, y, z'

loop_
  _atom_site_label
  _atom_site_occupancy
  _atom_site_fract_x
  _atom_site_fract_y
  _atom_site_fract_z
  _atom_site_thermal_displace_type
  _atom_site_B_iso_or_equiv
  _atom_site_type_symbol
  Fe1      1.0000 0.93480  0.63060  0.85780  Biso   1.000  Fe
  O1       1.0000 0.87150  0.41380  0.97180  Biso   1.000  O
  O2       1.0000 0.83630  0.54030  0.83600  Biso   1.000  O
  O3       1.0000 0.71140  0.35110  0.92160  Biso   1.000  O
  O4       1.0000 0.62400  0.21430  0.02030  Biso   1.000  O
  O5       1.0000 0.51750  0.24110  0.85840  Biso   1.000  O
  O6       1.0000 0.99150  0.40650  0.80950  Biso   1.000  O
  O7       1.0000 0.98130  0.56000  0.72600  Biso   1.000  O
  O8       1.0000 0.86450  0.71150  0.71580  Biso   1.000  O
  C1       1.0000 0.82350  0.46120  0.89530  Biso   1.000  C
  C2       1.0000 0.73460  0.42920  0.85710  Biso   1.000  C
  C3       1.0000 0.67760  0.45700  0.76540  Biso   1.000  C
  H1       1.0000 0.68090  0.50680  0.70660  Biso   1.000  H
  C4       1.0000 0.60640  0.39580  0.77050  Biso   1.000  C
  H2       1.0000 0.55360  0.39910  0.71820  Biso   1.000  H
  C5       1.0000 0.63280  0.33370  0.86640  Biso   1.000  C
  C6       1.0000 0.58620  0.25500  0.91810  Biso   1.000  C
  C7       1.0000 0.98660  0.46730  0.72230  Biso   1.000  C
  C8       1.0000 0.99930  0.42750  0.59750  Biso   1.000  C
  C9       1.0000 0.99850  0.32640  0.56740  Biso   1.000  C
  H3       1.0000 0.99640  0.27280  0.62110  Biso   1.000  H
  Co1      1.0000 0.93420  0.63370  0.87660  Biso   1.000  Co
  Fe2      1.0000 0.43480  0.13060  0.85780  Biso   1.000  Fe
  O9       1.0000 0.37150  0.91380  0.97180  Biso   1.000  O
  O10      1.0000 0.33630  0.04030  0.83600  Biso   1.000  O
  O11      1.0000 0.21140  0.85110  0.92160  Biso   1.000  O
  O12      1.0000 0.12400  0.71430  0.02030  Biso   1.000  O
  O13      1.0000 0.01750  0.74110  0.85840  Biso   1.000  O
  O14      1.0000 0.49150  0.90650  0.80950  Biso   1.000  O
  O15      1.0000 0.48130  0.06000  0.72600  Biso   1.000  O
  O16      1.0000 0.36450  0.21150  0.71580  Biso   1.000  O
  C10      1.0000 0.32350  0.96120  0.89530  Biso   1.000  C
  C11      1.0000 0.23460  0.92920  0.85710  Biso   1.000  C
  C12      1.0000 0.17760  0.95700  0.76540  Biso   1.000  C
  H4       1.0000 0.18090  0.00680  0.70660  Biso   1.000  H
  C13      1.0000 0.10640  0.89580  0.77050  Biso   1.000  C
  H5       1.0000 0.05360  0.89910  0.71820  Biso   1.000  H
  C14      1.0000 0.13280  0.83370  0.86640  Biso   1.000  C
  C15      1.0000 0.08620  0.75500  0.91810  Biso   1.000  C
  C16      1.0000 0.48660  0.96730  0.72230  Biso   1.000  C
  C17      1.0000 0.49930  0.92750  0.59750  Biso   1.000  C
  C18      1.0000 0.49850  0.82640  0.56740  Biso   1.000  C
  H6       1.0000 0.49640  0.77280  0.62110  Biso   1.000  H
  Co2      1.0000 0.43420  0.13370  0.87660  Biso   1.000  Co
  Fe3      1.0000 0.06520  0.63060  0.14220  Biso   1.000  Fe
  O17      1.0000 0.12850  0.41380  0.02820  Biso   1.000  O
  O18      1.0000 0.16370  0.54030  0.16400  Biso   1.000  O
  O19      1.0000 0.28860  0.35110  0.07840  Biso   1.000  O
  O20      1.0000 0.37600  0.21430  0.97970  Biso   1.000  O
  O21      1.0000 0.48250  0.24110  0.14160  Biso   1.000  O
  O22      1.0000 0.00850  0.40650  0.19050  Biso   1.000  O
  O23      1.0000 0.01870  0.56000  0.27400  Biso   1.000  O
  O24      1.0000 0.13550  0.71150  0.28420  Biso   1.000  O
  C19      1.0000 0.17650  0.46120  0.10470  Biso   1.000  C
  C20      1.0000 0.26540  0.42920  0.14290  Biso   1.000  C
  C21      1.0000 0.32240  0.45700  0.23460  Biso   1.000  C
  H7       1.0000 0.31910  0.50680  0.29340  Biso   1.000  H
  C22      1.0000 0.39360  0.39580  0.22950  Biso   1.000  C
  H8       1.0000 0.44640  0.39910  0.28180  Biso   1.000  H
  C23      1.0000 0.36720  0.33370  0.13360  Biso   1.000  C
  C24      1.0000 0.41380  0.25500  0.08190  Biso   1.000  C
  C25      1.0000 0.01340  0.46730  0.27770  Biso   1.000  C
  C26      1.0000 0.00070  0.42750  0.40250  Biso   1.000  C
  C27      1.0000 0.00150  0.32640  0.43260  Biso   1.000  C
  H9       1.0000 0.00360  0.27280  0.37890  Biso   1.000  H
  Co3      1.0000 0.06580  0.63370  0.12340  Biso   1.000  Co
  Fe4      1.0000 0.56520  0.13060  0.14220  Biso   1.000  Fe
  O25      1.0000 0.62850  0.91380  0.02820  Biso   1.000  O
  O26      1.0000 0.66370  0.04030  0.16400  Biso   1.000  O
  O27      1.0000 0.78860  0.85110  0.07840  Biso   1.000  O
  O28      1.0000 0.87600  0.71430  0.97970  Biso   1.000  O
  O29      1.0000 0.98250  0.74110  0.14160  Biso   1.000  O
  O30      1.0000 0.50850  0.90650  0.19050  Biso   1.000  O
  O31      1.0000 0.51870  0.06000  0.27400  Biso   1.000  O
  O32      1.0000 0.63550  0.21150  0.28420  Biso   1.000  O
  C28      1.0000 0.67650  0.96120  0.10470  Biso   1.000  C
  C29      1.0000 0.76540  0.92920  0.14290  Biso   1.000  C
  C30      1.0000 0.82240  0.95700  0.23460  Biso   1.000  C
  H10      1.0000 0.81910  0.00680  0.29340  Biso   1.000  H
  C31      1.0000 0.89360  0.89580  0.22950  Biso   1.000  C
  H11      1.0000 0.94640  0.89910  0.28180  Biso   1.000  H
  C32      1.0000 0.86720  0.83370  0.13360  Biso   1.000  C
  C33      1.0000 0.91380  0.75500  0.08190  Biso   1.000  C
  C34      1.0000 0.51340  0.96730  0.27770  Biso   1.000  C
  C35      1.0000 0.50070  0.92750  0.40250  Biso   1.000  C
  C36      1.0000 0.50150  0.82640  0.43260  Biso   1.000  C
  H12      1.0000 0.50360  0.77280  0.37890  Biso   1.000  H
  Co4      1.0000 0.56580  0.13370  0.12340  Biso   1.000  Co
  O33      1.0000 0.00000  0.48290  0.50000  Biso   1.000  O
  O34      1.0000 0.50000  0.98290  0.50000  Biso   1.000  O
  O35      1.0000 0.00000  0.56810  0.00000  Biso   1.000  O
  Fe5      1.0000 0.00000  0.41950  0.00000  Biso   1.000  Fe
  Co5      1.0000 0.00000  0.43230  0.00000  Biso   1.000  Co
  O36      1.0000 0.50000  0.06810  0.00000  Biso   1.000  O
  Fe6      1.0000 0.50000  0.91950  0.00000  Biso   1.000  Fe
  Co6      1.0000 0.50000  0.93230  0.00000  Biso   1.000  Co
