data_image0
_cell_length_a       11.87
_cell_length_b       31.338
_cell_length_c       24.763
_cell_angle_alpha    90
_cell_angle_beta     90
_cell_angle_gamma    90

_symmetry_space_group_name_H-M    "P 1"
_symmetry_int_tables_number       1

loop_
  _symmetry_equiv_pos_as_xyz
  'x, y, z'

loop_
  _atom_site_label
  _atom_site_occupancy
  _atom_site_fract_x
  _atom_site_fract_y
  _atom_site_fract_z
  _atom_site_thermal_displace_type
  _atom_site_B_iso_or_equiv
  _atom_site_type_symbol
  O1       1.0000 0.53400  0.20509  0.65440  Biso   1.000  O
  O2       1.0000 0.70640  0.20090  0.62130  Biso   1.000  O
  O3       1.0000 0.75370  0.79973  0.00430  Biso   1.000  O
  O4       1.0000 0.90970  0.79603  0.95200  Biso   1.000  O
  O5       1.0000 0.35070  0.20317  0.58450  Biso   1.000  O
  O6       1.0000 0.37180  0.20484  0.49470  Biso   1.000  O
  C1       1.0000 0.62910  0.18920  0.65180  Biso   1.000  C
  C2       1.0000 0.91270  0.06490  0.82310  Biso   1.000  C
  H1       1.0000 0.95090  0.06360  0.85810  Biso   1.000  H
  H2       1.0000 0.89090  0.09440  0.81540  Biso   1.000  H
  H3       1.0000 0.96370  0.05470  0.79480  Biso   1.000  H
  C3       1.0000 0.51620  0.95500  0.83610  Biso   1.000  C
  H4       1.0000 0.45950  0.96580  0.81080  Biso   1.000  H
  H5       1.0000 0.48530  0.95530  0.87280  Biso   1.000  H
  H6       1.0000 0.53670  0.92570  0.82610  Biso   1.000  H
  C4       1.0000 0.81790  0.81300  0.96710  Biso   1.000  C
  C5       1.0000 0.33380  0.18910  0.53770  Biso   1.000  C
  C6       1.0000 0.05790  0.03776  0.51050  Biso   1.000  C
  C7       1.0000 0.95760  0.02893  0.53760  Biso   1.000  C
  C8       1.0000 0.09980  0.00888  0.47310  Biso   1.000  C
  H7       1.0000 0.16810  0.01490  0.45460  Biso   1.000  H
  C9       1.0000 0.90130  0.05950  0.57880  Biso   1.000  C
  H8       1.0000 0.93780  0.05640  0.61410  Biso   1.000  H
  H9       1.0000 0.82110  0.05250  0.58200  Biso   1.000  H
  H10      1.0000 0.90950  0.08900  0.56630  Biso   1.000  H
  C10      1.0000 0.65380  0.15335  0.69190  Biso   1.000  C
  C11      1.0000 0.74850  0.12773  0.68550  Biso   1.000  C
  H11      1.0000 0.79930  0.13290  0.65650  Biso   1.000  H
  C12      1.0000 0.76860  0.09457  0.72140  Biso   1.000  C
  H12      1.0000 0.83340  0.07710  0.71710  Biso   1.000  H
  C13      1.0000 0.69410  0.08681  0.76400  Biso   1.000  C
  C14      1.0000 0.59970  0.11255  0.77040  Biso   1.000  C
  H13      1.0000 0.54910  0.10750  0.79940  Biso   1.000  H
  C15      1.0000 0.57960  0.14556  0.73440  Biso   1.000  C
  H14      1.0000 0.51490  0.16300  0.73880  Biso   1.000  H
  C16      1.0000 0.70760  0.04781  0.79980  Biso   1.000  C
  C17      1.0000 0.80880  0.03712  0.82450  Biso   1.000  C
  C18      1.0000 0.81570  0.99932  0.85390  Biso   1.000  C
  H15      1.0000 0.88470  0.99180  0.87090  Biso   1.000  H
  C19      1.0000 0.72270  0.97227  0.85860  Biso   1.000  C
  C20      1.0000 0.62130  0.98347  0.83380  Biso   1.000  C
  C21      1.0000 0.61430  0.02123  0.80440  Biso   1.000  C
  H16      1.0000 0.54540  0.02890  0.78740  Biso   1.000  H
  C22      1.0000 0.74120  0.93034  0.88640  Biso   1.000  C
  C23      1.0000 0.83570  0.90656  0.87220  Biso   1.000  C
  H17      1.0000 0.88480  0.91660  0.84470  Biso   1.000  H
  C24      1.0000 0.85860  0.86821  0.89800  Biso   1.000  C
  H18      1.0000 0.92320  0.85210  0.88820  Biso   1.000  H
  C25      1.0000 0.78670  0.85336  0.93840  Biso   1.000  C
  C26      1.0000 0.69210  0.87710  0.95270  Biso   1.000  C
  H19      1.0000 0.64310  0.86700  0.98020  Biso   1.000  H
  C27      1.0000 0.66950  0.91552  0.92670  Biso   1.000  C
  H20      1.0000 0.60500  0.93170  0.93660  Biso   1.000  H
  C28      1.0000 0.25590  0.15123  0.53100  Biso   1.000  C
  C29      1.0000 0.22690  0.12710  0.57590  Biso   1.000  C
  H21      1.0000 0.25190  0.13560  0.61070  Biso   1.000  H
  C30      1.0000 0.16150  0.09060  0.57030  Biso   1.000  C
  H22      1.0000 0.14180  0.07430  0.60120  Biso   1.000  H
  C31      1.0000 0.12490  0.07788  0.51930  Biso   1.000  C
  C32      1.0000 0.15340  0.10230  0.47430  Biso   1.000  C
  H23      1.0000 0.12760  0.09410  0.43960  Biso   1.000  H
  C33      1.0000 0.21910  0.13860  0.47990  Biso   1.000  C
  H24      1.0000 0.23900  0.15490  0.44900  Biso   1.000  H
  O7       1.0000 0.96600  0.79491  0.15440  Biso   1.000  O
  O8       1.0000 0.79360  0.79910  0.12130  Biso   1.000  O
  O9       1.0000 0.74630  0.20027  0.50430  Biso   1.000  O
  O10      1.0000 0.59030  0.20397  0.45200  Biso   1.000  O
  O11      1.0000 0.14930  0.79683  0.08450  Biso   1.000  O
  O12      1.0000 0.12820  0.79516  0.99470  Biso   1.000  O
  C34      1.0000 0.87090  0.81080  0.15180  Biso   1.000  C
  C35      1.0000 0.58730  0.93510  0.32310  Biso   1.000  C
  H25      1.0000 0.54910  0.93640  0.35810  Biso   1.000  H
  H26      1.0000 0.60910  0.90560  0.31540  Biso   1.000  H
  H27      1.0000 0.53630  0.94530  0.29480  Biso   1.000  H
  C36      1.0000 0.98380  0.04500  0.33610  Biso   1.000  C
  H28      1.0000 0.04050  0.03420  0.31080  Biso   1.000  H
  H29      1.0000 0.01470  0.04470  0.37280  Biso   1.000  H
  H30      1.0000 0.96330  0.07430  0.32610  Biso   1.000  H
  C37      1.0000 0.68210  0.18700  0.46710  Biso   1.000  C
  C38      1.0000 0.16620  0.81090  0.03770  Biso   1.000  C
  C39      1.0000 0.44210  0.96224  0.01050  Biso   1.000  C
  C40      1.0000 0.54240  0.97107  0.03760  Biso   1.000  C
  C41      1.0000 0.40020  0.99112  0.97310  Biso   1.000  C
  H31      1.0000 0.33190  0.98510  0.95460  Biso   1.000  H
  C42      1.0000 0.59870  0.94050  0.07880  Biso   1.000  C
  H32      1.0000 0.56220  0.94360  0.11410  Biso   1.000  H
  H33      1.0000 0.67890  0.94750  0.08200  Biso   1.000  H
  H34      1.0000 0.59050  0.91100  0.06630  Biso   1.000  H
  C43      1.0000 0.84620  0.84665  0.19190  Biso   1.000  C
  C44      1.0000 0.75150  0.87227  0.18550  Biso   1.000  C
  H35      1.0000 0.70070  0.86710  0.15650  Biso   1.000  H
  C45      1.0000 0.73140  0.90543  0.22140  Biso   1.000  C
  H36      1.0000 0.66660  0.92290  0.21710  Biso   1.000  H
  C46      1.0000 0.80590  0.91319  0.26400  Biso   1.000  C
  C47      1.0000 0.90030  0.88745  0.27040  Biso   1.000  C
  H37      1.0000 0.95090  0.89250  0.29940  Biso   1.000  H
  C48      1.0000 0.92040  0.85444  0.23440  Biso   1.000  C
  H38      1.0000 0.98510  0.83700  0.23880  Biso   1.000  H
  C49      1.0000 0.79240  0.95219  0.29980  Biso   1.000  C
  C50      1.0000 0.69120  0.96288  0.32450  Biso   1.000  C
  C51      1.0000 0.68430  0.00068  0.35390  Biso   1.000  C
  H39      1.0000 0.61530  0.00820  0.37090  Biso   1.000  H
  C52      1.0000 0.77730  0.02773  0.35860  Biso   1.000  C
  C53      1.0000 0.87870  0.01653  0.33380  Biso   1.000  C
  C54      1.0000 0.88570  0.97877  0.30440  Biso   1.000  C
  H40      1.0000 0.95460  0.97110  0.28740  Biso   1.000  H
  C55      1.0000 0.75880  0.06966  0.38640  Biso   1.000  C
  C56      1.0000 0.66430  0.09344  0.37220  Biso   1.000  C
  H41      1.0000 0.61520  0.08340  0.34470  Biso   1.000  H
  C57      1.0000 0.64140  0.13179  0.39800  Biso   1.000  C
  H42      1.0000 0.57680  0.14790  0.38820  Biso   1.000  H
  C58      1.0000 0.71330  0.14664  0.43840  Biso   1.000  C
  C59      1.0000 0.80790  0.12290  0.45270  Biso   1.000  C
  H43      1.0000 0.85690  0.13300  0.48020  Biso   1.000  H
  C60      1.0000 0.83050  0.08448  0.42670  Biso   1.000  C
  H44      1.0000 0.89500  0.06830  0.43660  Biso   1.000  H
  C61      1.0000 0.24410  0.84877  0.03100  Biso   1.000  C
  C62      1.0000 0.27310  0.87290  0.07590  Biso   1.000  C
  H45      1.0000 0.24810  0.86440  0.11070  Biso   1.000  H
  C63      1.0000 0.33850  0.90940  0.07030  Biso   1.000  C
  H46      1.0000 0.35820  0.92570  0.10120  Biso   1.000  H
  C64      1.0000 0.37510  0.92212  0.01930  Biso   1.000  C
  C65      1.0000 0.34660  0.89770  0.97430  Biso   1.000  C
  H47      1.0000 0.37240  0.90590  0.93960  Biso   1.000  H
  C66      1.0000 0.28090  0.86140  0.97990  Biso   1.000  C
  H48      1.0000 0.26100  0.84510  0.94900  Biso   1.000  H
  O13      1.0000 0.46600  0.70509  0.34560  Biso   1.000  O
  O14      1.0000 0.29360  0.70090  0.37870  Biso   1.000  O
  O15      1.0000 0.24630  0.29973  0.99570  Biso   1.000  O
  O16      1.0000 0.09030  0.29603  0.04800  Biso   1.000  O
  O17      1.0000 0.64930  0.70317  0.41550  Biso   1.000  O
  O18      1.0000 0.62820  0.70484  0.50530  Biso   1.000  O
  C67      1.0000 0.37090  0.68920  0.34820  Biso   1.000  C
  C68      1.0000 0.08730  0.56490  0.17690  Biso   1.000  C
  H49      1.0000 0.04910  0.56360  0.14190  Biso   1.000  H
  H50      1.0000 0.10910  0.59440  0.18460  Biso   1.000  H
  H51      1.0000 0.03630  0.55470  0.20520  Biso   1.000  H
  C69      1.0000 0.48380  0.45500  0.16390  Biso   1.000  C
  H52      1.0000 0.54050  0.46580  0.18920  Biso   1.000  H
  H53      1.0000 0.51470  0.45530  0.12720  Biso   1.000  H
  H54      1.0000 0.46330  0.42570  0.17390  Biso   1.000  H
  C70      1.0000 0.18210  0.31300  0.03290  Biso   1.000  C
  C71      1.0000 0.66620  0.68910  0.46230  Biso   1.000  C
  C72      1.0000 0.94210  0.53776  0.48950  Biso   1.000  C
  C73      1.0000 0.04240  0.52893  0.46240  Biso   1.000  C
  C74      1.0000 0.90020  0.50888  0.52690  Biso   1.000  C
  H55      1.0000 0.83190  0.51490  0.54540  Biso   1.000  H
  C75      1.0000 0.09870  0.55950  0.42120  Biso   1.000  C
  H56      1.0000 0.06220  0.55640  0.38590  Biso   1.000  H
  H57      1.0000 0.17890  0.55250  0.41800  Biso   1.000  H
  H58      1.0000 0.09050  0.58900  0.43370  Biso   1.000  H
  C76      1.0000 0.34620  0.65335  0.30810  Biso   1.000  C
  C77      1.0000 0.25150  0.62773  0.31450  Biso   1.000  C
  H59      1.0000 0.20070  0.63290  0.34350  Biso   1.000  H
  C78      1.0000 0.23140  0.59457  0.27860  Biso   1.000  C
  H60      1.0000 0.16660  0.57710  0.28290  Biso   1.000  H
  C79      1.0000 0.30590  0.58681  0.23600  Biso   1.000  C
  C80      1.0000 0.40030  0.61255  0.22960  Biso   1.000  C
  H61      1.0000 0.45090  0.60750  0.20060  Biso   1.000  H
  C81      1.0000 0.42040  0.64556  0.26560  Biso   1.000  C
  H62      1.0000 0.48510  0.66300  0.26120  Biso   1.000  H
  C82      1.0000 0.29240  0.54781  0.20020  Biso   1.000  C
  C83      1.0000 0.19120  0.53712  0.17550  Biso   1.000  C
  C84      1.0000 0.18430  0.49932  0.14610  Biso   1.000  C
  H63      1.0000 0.11530  0.49180  0.12910  Biso   1.000  H
  C85      1.0000 0.27730  0.47227  0.14140  Biso   1.000  C
  C86      1.0000 0.37870  0.48347  0.16620  Biso   1.000  C
  C87      1.0000 0.38570  0.52123  0.19560  Biso   1.000  C
  H64      1.0000 0.45460  0.52890  0.21260  Biso   1.000  H
  C88      1.0000 0.25880  0.43034  0.11360  Biso   1.000  C
  C89      1.0000 0.16430  0.40656  0.12780  Biso   1.000  C
  H65      1.0000 0.11520  0.41660  0.15530  Biso   1.000  H
  C90      1.0000 0.14140  0.36821  0.10200  Biso   1.000  C
  H66      1.0000 0.07680  0.35210  0.11180  Biso   1.000  H
  C91      1.0000 0.21330  0.35336  0.06160  Biso   1.000  C
  C92      1.0000 0.30790  0.37710  0.04730  Biso   1.000  C
  H67      1.0000 0.35690  0.36700  0.01980  Biso   1.000  H
  C93      1.0000 0.33050  0.41552  0.07330  Biso   1.000  C
  H68      1.0000 0.39500  0.43170  0.06340  Biso   1.000  H
  C94      1.0000 0.74410  0.65123  0.46900  Biso   1.000  C
  C95      1.0000 0.77310  0.62710  0.42410  Biso   1.000  C
  H69      1.0000 0.74810  0.63560  0.38930  Biso   1.000  H
  C96      1.0000 0.83850  0.59060  0.42970  Biso   1.000  C
  H70      1.0000 0.85820  0.57430  0.39880  Biso   1.000  H
  C97      1.0000 0.87510  0.57788  0.48070  Biso   1.000  C
  C98      1.0000 0.84660  0.60230  0.52570  Biso   1.000  C
  H71      1.0000 0.87240  0.59410  0.56040  Biso   1.000  H
  C99      1.0000 0.78090  0.63860  0.52010  Biso   1.000  C
  H72      1.0000 0.76100  0.65490  0.55100  Biso   1.000  H
  O19      1.0000 0.03400  0.29491  0.84560  Biso   1.000  O
  O20      1.0000 0.20640  0.29910  0.87870  Biso   1.000  O
  O21      1.0000 0.25370  0.70027  0.49570  Biso   1.000  O
  O22      1.0000 0.40970  0.70397  0.54800  Biso   1.000  O
  O23      1.0000 0.85070  0.29683  0.91550  Biso   1.000  O
  O24      1.0000 0.87180  0.29516  0.00530  Biso   1.000  O
  C100     1.0000 0.12910  0.31080  0.84820  Biso   1.000  C
  C101     1.0000 0.41270  0.43510  0.67690  Biso   1.000  C
  H73      1.0000 0.45090  0.43640  0.64190  Biso   1.000  H
  H74      1.0000 0.39090  0.40560  0.68460  Biso   1.000  H
  H75      1.0000 0.46370  0.44530  0.70520  Biso   1.000  H
  C102     1.0000 0.01620  0.54500  0.66390  Biso   1.000  C
  H76      1.0000 0.95950  0.53420  0.68920  Biso   1.000  H
  H77      1.0000 0.98530  0.54470  0.62720  Biso   1.000  H
  H78      1.0000 0.03670  0.57430  0.67390  Biso   1.000  H
  C103     1.0000 0.31790  0.68700  0.53290  Biso   1.000  C
  C104     1.0000 0.83380  0.31090  0.96230  Biso   1.000  C
  C105     1.0000 0.55790  0.46224  0.98950  Biso   1.000  C
  C106     1.0000 0.45760  0.47107  0.96240  Biso   1.000  C
  C107     1.0000 0.59980  0.49112  0.02690  Biso   1.000  C
  H79      1.0000 0.66810  0.48510  0.04540  Biso   1.000  H
  C108     1.0000 0.40130  0.44050  0.92120  Biso   1.000  C
  H80      1.0000 0.43780  0.44360  0.88590  Biso   1.000  H
  H81      1.0000 0.32110  0.44750  0.91800  Biso   1.000  H
  H82      1.0000 0.40950  0.41100  0.93370  Biso   1.000  H
  C109     1.0000 0.15380  0.34665  0.80810  Biso   1.000  C
  C110     1.0000 0.24850  0.37227  0.81450  Biso   1.000  C
  H83      1.0000 0.29930  0.36710  0.84350  Biso   1.000  H
  C111     1.0000 0.26860  0.40543  0.77860  Biso   1.000  C
  H84      1.0000 0.33340  0.42290  0.78290  Biso   1.000  H
  C112     1.0000 0.19410  0.41319  0.73600  Biso   1.000  C
  C113     1.0000 0.09970  0.38745  0.72960  Biso   1.000  C
  H85      1.0000 0.04910  0.39250  0.70060  Biso   1.000  H
  C114     1.0000 0.07960  0.35444  0.76560  Biso   1.000  C
  H86      1.0000 0.01490  0.33700  0.76120  Biso   1.000  H
  C115     1.0000 0.20760  0.45219  0.70020  Biso   1.000  C
  C116     1.0000 0.30880  0.46288  0.67550  Biso   1.000  C
  C117     1.0000 0.31570  0.50068  0.64610  Biso   1.000  C
  H87      1.0000 0.38470  0.50820  0.62910  Biso   1.000  H
  C118     1.0000 0.22270  0.52773  0.64140  Biso   1.000  C
  C119     1.0000 0.12130  0.51653  0.66620  Biso   1.000  C
  C120     1.0000 0.11430  0.47877  0.69560  Biso   1.000  C
  H88      1.0000 0.04540  0.47110  0.71260  Biso   1.000  H
  C121     1.0000 0.24120  0.56966  0.61360  Biso   1.000  C
  C122     1.0000 0.33570  0.59344  0.62780  Biso   1.000  C
  H89      1.0000 0.38480  0.58340  0.65530  Biso   1.000  H
  C123     1.0000 0.35860  0.63179  0.60200  Biso   1.000  C
  H90      1.0000 0.42320  0.64790  0.61180  Biso   1.000  H
  C124     1.0000 0.28670  0.64664  0.56160  Biso   1.000  C
  C125     1.0000 0.19210  0.62290  0.54730  Biso   1.000  C
  H91      1.0000 0.14310  0.63300  0.51980  Biso   1.000  H
  C126     1.0000 0.16950  0.58448  0.57330  Biso   1.000  C
  H92      1.0000 0.10500  0.56830  0.56340  Biso   1.000  H
  C127     1.0000 0.75590  0.34877  0.96900  Biso   1.000  C
  C128     1.0000 0.72690  0.37290  0.92410  Biso   1.000  C
  H93      1.0000 0.75190  0.36440  0.88930  Biso   1.000  H
  C129     1.0000 0.66150  0.40940  0.92970  Biso   1.000  C
  H94      1.0000 0.64180  0.42570  0.89880  Biso   1.000  H
  C130     1.0000 0.62490  0.42212  0.98070  Biso   1.000  C
  C131     1.0000 0.65340  0.39770  0.02570  Biso   1.000  C
  H95      1.0000 0.62760  0.40590  0.06040  Biso   1.000  H
  C132     1.0000 0.71910  0.36140  0.02010  Biso   1.000  C
  H96      1.0000 0.73900  0.34510  0.05100  Biso   1.000  H
  O25      1.0000 0.46600  0.79491  0.34560  Biso   1.000  O
  O26      1.0000 0.29360  0.79910  0.37870  Biso   1.000  O
  O27      1.0000 0.24630  0.20027  0.99570  Biso   1.000  O
  O28      1.0000 0.09030  0.20397  0.04800  Biso   1.000  O
  O29      1.0000 0.64930  0.79683  0.41550  Biso   1.000  O
  O30      1.0000 0.62820  0.79516  0.50530  Biso   1.000  O
  C133     1.0000 0.37090  0.81080  0.34820  Biso   1.000  C
  C134     1.0000 0.08730  0.93510  0.17690  Biso   1.000  C
  H97      1.0000 0.04910  0.93640  0.14190  Biso   1.000  H
  H98      1.0000 0.10910  0.90560  0.18460  Biso   1.000  H
  H99      1.0000 0.03630  0.94530  0.20520  Biso   1.000  H
  C135     1.0000 0.48380  0.04500  0.16390  Biso   1.000  C
  H100     1.0000 0.54050  0.03420  0.18920  Biso   1.000  H
  H101     1.0000 0.51470  0.04470  0.12720  Biso   1.000  H
  H102     1.0000 0.46330  0.07430  0.17390  Biso   1.000  H
  C136     1.0000 0.18210  0.18700  0.03290  Biso   1.000  C
  C137     1.0000 0.66620  0.81090  0.46230  Biso   1.000  C
  C138     1.0000 0.94210  0.96224  0.48950  Biso   1.000  C
  C139     1.0000 0.04240  0.97107  0.46240  Biso   1.000  C
  C140     1.0000 0.90020  0.99112  0.52690  Biso   1.000  C
  H103     1.0000 0.83190  0.98510  0.54540  Biso   1.000  H
  C141     1.0000 0.09870  0.94050  0.42120  Biso   1.000  C
  H104     1.0000 0.06220  0.94360  0.38590  Biso   1.000  H
  H105     1.0000 0.17890  0.94750  0.41800  Biso   1.000  H
  H106     1.0000 0.09050  0.91100  0.43370  Biso   1.000  H
  C142     1.0000 0.34620  0.84665  0.30810  Biso   1.000  C
  C143     1.0000 0.25150  0.87227  0.31450  Biso   1.000  C
  H107     1.0000 0.20070  0.86710  0.34350  Biso   1.000  H
  C144     1.0000 0.23140  0.90543  0.27860  Biso   1.000  C
  H108     1.0000 0.16660  0.92290  0.28290  Biso   1.000  H
  C145     1.0000 0.30590  0.91319  0.23600  Biso   1.000  C
  C146     1.0000 0.40030  0.88745  0.22960  Biso   1.000  C
  H109     1.0000 0.45090  0.89250  0.20060  Biso   1.000  H
  C147     1.0000 0.42040  0.85444  0.26560  Biso   1.000  C
  H110     1.0000 0.48510  0.83700  0.26120  Biso   1.000  H
  C148     1.0000 0.29240  0.95219  0.20020  Biso   1.000  C
  C149     1.0000 0.19120  0.96288  0.17550  Biso   1.000  C
  C150     1.0000 0.18430  0.00068  0.14610  Biso   1.000  C
  H111     1.0000 0.11530  0.00820  0.12910  Biso   1.000  H
  C151     1.0000 0.27730  0.02773  0.14140  Biso   1.000  C
  C152     1.0000 0.37870  0.01653  0.16620  Biso   1.000  C
  C153     1.0000 0.38570  0.97877  0.19560  Biso   1.000  C
  H112     1.0000 0.45460  0.97110  0.21260  Biso   1.000  H
  C154     1.0000 0.25880  0.06966  0.11360  Biso   1.000  C
  C155     1.0000 0.16430  0.09344  0.12780  Biso   1.000  C
  H113     1.0000 0.11520  0.08340  0.15530  Biso   1.000  H
  C156     1.0000 0.14140  0.13179  0.10200  Biso   1.000  C
  H114     1.0000 0.07680  0.14790  0.11180  Biso   1.000  H
  C157     1.0000 0.21330  0.14664  0.06160  Biso   1.000  C
  C158     1.0000 0.30790  0.12290  0.04730  Biso   1.000  C
  H115     1.0000 0.35690  0.13300  0.01980  Biso   1.000  H
  C159     1.0000 0.33050  0.08448  0.07330  Biso   1.000  C
  H116     1.0000 0.39500  0.06830  0.06340  Biso   1.000  H
  C160     1.0000 0.74410  0.84877  0.46900  Biso   1.000  C
  C161     1.0000 0.77310  0.87290  0.42410  Biso   1.000  C
  H117     1.0000 0.74810  0.86440  0.38930  Biso   1.000  H
  C162     1.0000 0.83850  0.90940  0.42970  Biso   1.000  C
  H118     1.0000 0.85820  0.92570  0.39880  Biso   1.000  H
  C163     1.0000 0.87510  0.92212  0.48070  Biso   1.000  C
  C164     1.0000 0.84660  0.89770  0.52570  Biso   1.000  C
  H119     1.0000 0.87240  0.90590  0.56040  Biso   1.000  H
  C165     1.0000 0.78090  0.86140  0.52010  Biso   1.000  C
  H120     1.0000 0.76100  0.84510  0.55100  Biso   1.000  H
  O31      1.0000 0.03400  0.20509  0.84560  Biso   1.000  O
  O32      1.0000 0.20640  0.20090  0.87870  Biso   1.000  O
  O33      1.0000 0.25370  0.79973  0.49570  Biso   1.000  O
  O34      1.0000 0.40970  0.79603  0.54800  Biso   1.000  O
  O35      1.0000 0.85070  0.20317  0.91550  Biso   1.000  O
  O36      1.0000 0.87180  0.20484  0.00530  Biso   1.000  O
  C166     1.0000 0.12910  0.18920  0.84820  Biso   1.000  C
  C167     1.0000 0.41270  0.06490  0.67690  Biso   1.000  C
  H121     1.0000 0.45090  0.06360  0.64190  Biso   1.000  H
  H122     1.0000 0.39090  0.09440  0.68460  Biso   1.000  H
  H123     1.0000 0.46370  0.05470  0.70520  Biso   1.000  H
  C168     1.0000 0.01620  0.95500  0.66390  Biso   1.000  C
  H124     1.0000 0.95950  0.96580  0.68920  Biso   1.000  H
  H125     1.0000 0.98530  0.95530  0.62720  Biso   1.000  H
  H126     1.0000 0.03670  0.92570  0.67390  Biso   1.000  H
  C169     1.0000 0.31790  0.81300  0.53290  Biso   1.000  C
  C170     1.0000 0.83380  0.18910  0.96230  Biso   1.000  C
  C171     1.0000 0.55790  0.03776  0.98950  Biso   1.000  C
  C172     1.0000 0.45760  0.02893  0.96240  Biso   1.000  C
  C173     1.0000 0.59980  0.00888  0.02690  Biso   1.000  C
  H127     1.0000 0.66810  0.01490  0.04540  Biso   1.000  H
  C174     1.0000 0.40130  0.05950  0.92120  Biso   1.000  C
  H128     1.0000 0.43780  0.05640  0.88590  Biso   1.000  H
  H129     1.0000 0.32110  0.05250  0.91800  Biso   1.000  H
  H130     1.0000 0.40950  0.08900  0.93370  Biso   1.000  H
  C175     1.0000 0.15380  0.15335  0.80810  Biso   1.000  C
  C176     1.0000 0.24850  0.12773  0.81450  Biso   1.000  C
  H131     1.0000 0.29930  0.13290  0.84350  Biso   1.000  H
  C177     1.0000 0.26860  0.09457  0.77860  Biso   1.000  C
  H132     1.0000 0.33340  0.07710  0.78290  Biso   1.000  H
  C178     1.0000 0.19410  0.08681  0.73600  Biso   1.000  C
  C179     1.0000 0.09970  0.11255  0.72960  Biso   1.000  C
  H133     1.0000 0.04910  0.10750  0.70060  Biso   1.000  H
  C180     1.0000 0.07960  0.14556  0.76560  Biso   1.000  C
  H134     1.0000 0.01490  0.16300  0.76120  Biso   1.000  H
  C181     1.0000 0.20760  0.04781  0.70020  Biso   1.000  C
  C182     1.0000 0.30880  0.03712  0.67550  Biso   1.000  C
  C183     1.0000 0.31570  0.99932  0.64610  Biso   1.000  C
  H135     1.0000 0.38470  0.99180  0.62910  Biso   1.000  H
  C184     1.0000 0.22270  0.97227  0.64140  Biso   1.000  C
  C185     1.0000 0.12130  0.98347  0.66620  Biso   1.000  C
  C186     1.0000 0.11430  0.02123  0.69560  Biso   1.000  C
  H136     1.0000 0.04540  0.02890  0.71260  Biso   1.000  H
  C187     1.0000 0.24120  0.93034  0.61360  Biso   1.000  C
  C188     1.0000 0.33570  0.90656  0.62780  Biso   1.000  C
  H137     1.0000 0.38480  0.91660  0.65530  Biso   1.000  H
  C189     1.0000 0.35860  0.86821  0.60200  Biso   1.000  C
  H138     1.0000 0.42320  0.85210  0.61180  Biso   1.000  H
  C190     1.0000 0.28670  0.85336  0.56160  Biso   1.000  C
  C191     1.0000 0.19210  0.87710  0.54730  Biso   1.000  C
  H139     1.0000 0.14310  0.86700  0.51980  Biso   1.000  H
  C192     1.0000 0.16950  0.91552  0.57330  Biso   1.000  C
  H140     1.0000 0.10500  0.93170  0.56340  Biso   1.000  H
  C193     1.0000 0.75590  0.15123  0.96900  Biso   1.000  C
  C194     1.0000 0.72690  0.12710  0.92410  Biso   1.000  C
  H141     1.0000 0.75190  0.13560  0.88930  Biso   1.000  H
  C195     1.0000 0.66150  0.09060  0.92970  Biso   1.000  C
  H142     1.0000 0.64180  0.07430  0.89880  Biso   1.000  H
  C196     1.0000 0.62490  0.07788  0.98070  Biso   1.000  C
  C197     1.0000 0.65340  0.10230  0.02570  Biso   1.000  C
  H143     1.0000 0.62760  0.09410  0.06040  Biso   1.000  H
  C198     1.0000 0.71910  0.13860  0.02010  Biso   1.000  C
  H144     1.0000 0.73900  0.15490  0.05100  Biso   1.000  H
  O37      1.0000 0.53400  0.29491  0.65440  Biso   1.000  O
  O38      1.0000 0.70640  0.29910  0.62130  Biso   1.000  O
  O39      1.0000 0.75370  0.70027  0.00430  Biso   1.000  O
  O40      1.0000 0.90970  0.70397  0.95200  Biso   1.000  O
  O41      1.0000 0.35070  0.29683  0.58450  Biso   1.000  O
  O42      1.0000 0.37180  0.29516  0.49470  Biso   1.000  O
  C199     1.0000 0.62910  0.31080  0.65180  Biso   1.000  C
  C200     1.0000 0.91270  0.43510  0.82310  Biso   1.000  C
  H145     1.0000 0.95090  0.43640  0.85810  Biso   1.000  H
  H146     1.0000 0.89090  0.40560  0.81540  Biso   1.000  H
  H147     1.0000 0.96370  0.44530  0.79480  Biso   1.000  H
  C201     1.0000 0.51620  0.54500  0.83610  Biso   1.000  C
  H148     1.0000 0.45950  0.53420  0.81080  Biso   1.000  H
  H149     1.0000 0.48530  0.54470  0.87280  Biso   1.000  H
  H150     1.0000 0.53670  0.57430  0.82610  Biso   1.000  H
  C202     1.0000 0.81790  0.68700  0.96710  Biso   1.000  C
  C203     1.0000 0.33380  0.31090  0.53770  Biso   1.000  C
  C204     1.0000 0.05790  0.46224  0.51050  Biso   1.000  C
  C205     1.0000 0.95760  0.47107  0.53760  Biso   1.000  C
  C206     1.0000 0.09980  0.49112  0.47310  Biso   1.000  C
  H151     1.0000 0.16810  0.48510  0.45460  Biso   1.000  H
  C207     1.0000 0.90130  0.44050  0.57880  Biso   1.000  C
  H152     1.0000 0.93780  0.44360  0.61410  Biso   1.000  H
  H153     1.0000 0.82110  0.44750  0.58200  Biso   1.000  H
  H154     1.0000 0.90950  0.41100  0.56630  Biso   1.000  H
  C208     1.0000 0.65380  0.34665  0.69190  Biso   1.000  C
  C209     1.0000 0.74850  0.37227  0.68550  Biso   1.000  C
  H155     1.0000 0.79930  0.36710  0.65650  Biso   1.000  H
  C210     1.0000 0.76860  0.40543  0.72140  Biso   1.000  C
  H156     1.0000 0.83340  0.42290  0.71710  Biso   1.000  H
  C211     1.0000 0.69410  0.41319  0.76400  Biso   1.000  C
  C212     1.0000 0.59970  0.38745  0.77040  Biso   1.000  C
  H157     1.0000 0.54910  0.39250  0.79940  Biso   1.000  H
  C213     1.0000 0.57960  0.35444  0.73440  Biso   1.000  C
  H158     1.0000 0.51490  0.33700  0.73880  Biso   1.000  H
  C214     1.0000 0.70760  0.45219  0.79980  Biso   1.000  C
  C215     1.0000 0.80880  0.46288  0.82450  Biso   1.000  C
  C216     1.0000 0.81570  0.50068  0.85390  Biso   1.000  C
  H159     1.0000 0.88470  0.50820  0.87090  Biso   1.000  H
  C217     1.0000 0.72270  0.52773  0.85860  Biso   1.000  C
  C218     1.0000 0.62130  0.51653  0.83380  Biso   1.000  C
  C219     1.0000 0.61430  0.47877  0.80440  Biso   1.000  C
  H160     1.0000 0.54540  0.47110  0.78740  Biso   1.000  H
  C220     1.0000 0.74120  0.56966  0.88640  Biso   1.000  C
  C221     1.0000 0.83570  0.59344  0.87220  Biso   1.000  C
  H161     1.0000 0.88480  0.58340  0.84470  Biso   1.000  H
  C222     1.0000 0.85860  0.63179  0.89800  Biso   1.000  C
  H162     1.0000 0.92320  0.64790  0.88820  Biso   1.000  H
  C223     1.0000 0.78670  0.64664  0.93840  Biso   1.000  C
  C224     1.0000 0.69210  0.62290  0.95270  Biso   1.000  C
  H163     1.0000 0.64310  0.63300  0.98020  Biso   1.000  H
  C225     1.0000 0.66950  0.58448  0.92670  Biso   1.000  C
  H164     1.0000 0.60500  0.56830  0.93660  Biso   1.000  H
  C226     1.0000 0.25590  0.34877  0.53100  Biso   1.000  C
  C227     1.0000 0.22690  0.37290  0.57590  Biso   1.000  C
  H165     1.0000 0.25190  0.36440  0.61070  Biso   1.000  H
  C228     1.0000 0.16150  0.40940  0.57030  Biso   1.000  C
  H166     1.0000 0.14180  0.42570  0.60120  Biso   1.000  H
  C229     1.0000 0.12490  0.42212  0.51930  Biso   1.000  C
  C230     1.0000 0.15340  0.39770  0.47430  Biso   1.000  C
  H167     1.0000 0.12760  0.40590  0.43960  Biso   1.000  H
  C231     1.0000 0.21910  0.36140  0.47990  Biso   1.000  C
  H168     1.0000 0.23900  0.34510  0.44900  Biso   1.000  H
  O43      1.0000 0.96600  0.70509  0.15440  Biso   1.000  O
  O44      1.0000 0.79360  0.70090  0.12130  Biso   1.000  O
  O45      1.0000 0.74630  0.29973  0.50430  Biso   1.000  O
  O46      1.0000 0.59030  0.29603  0.45200  Biso   1.000  O
  O47      1.0000 0.14930  0.70317  0.08450  Biso   1.000  O
  O48      1.0000 0.12820  0.70484  0.99470  Biso   1.000  O
  C232     1.0000 0.87090  0.68920  0.15180  Biso   1.000  C
  C233     1.0000 0.58730  0.56490  0.32310  Biso   1.000  C
  H169     1.0000 0.54910  0.56360  0.35810  Biso   1.000  H
  H170     1.0000 0.60910  0.59440  0.31540  Biso   1.000  H
  H171     1.0000 0.53630  0.55470  0.29480  Biso   1.000  H
  C234     1.0000 0.98380  0.45500  0.33610  Biso   1.000  C
  H172     1.0000 0.04050  0.46580  0.31080  Biso   1.000  H
  H173     1.0000 0.01470  0.45530  0.37280  Biso   1.000  H
  H174     1.0000 0.96330  0.42570  0.32610  Biso   1.000  H
  C235     1.0000 0.68210  0.31300  0.46710  Biso   1.000  C
  C236     1.0000 0.16620  0.68910  0.03770  Biso   1.000  C
  C237     1.0000 0.44210  0.53776  0.01050  Biso   1.000  C
  C238     1.0000 0.54240  0.52893  0.03760  Biso   1.000  C
  C239     1.0000 0.40020  0.50888  0.97310  Biso   1.000  C
  H175     1.0000 0.33190  0.51490  0.95460  Biso   1.000  H
  C240     1.0000 0.59870  0.55950  0.07880  Biso   1.000  C
  H176     1.0000 0.56220  0.55640  0.11410  Biso   1.000  H
  H177     1.0000 0.67890  0.55250  0.08200  Biso   1.000  H
  H178     1.0000 0.59050  0.58900  0.06630  Biso   1.000  H
  C241     1.0000 0.84620  0.65335  0.19190  Biso   1.000  C
  C242     1.0000 0.75150  0.62773  0.18550  Biso   1.000  C
  H179     1.0000 0.70070  0.63290  0.15650  Biso   1.000  H
  C243     1.0000 0.73140  0.59457  0.22140  Biso   1.000  C
  H180     1.0000 0.66660  0.57710  0.21710  Biso   1.000  H
  C244     1.0000 0.80590  0.58681  0.26400  Biso   1.000  C
  C245     1.0000 0.90030  0.61255  0.27040  Biso   1.000  C
  H181     1.0000 0.95090  0.60750  0.29940  Biso   1.000  H
  C246     1.0000 0.92040  0.64556  0.23440  Biso   1.000  C
  H182     1.0000 0.98510  0.66300  0.23880  Biso   1.000  H
  C247     1.0000 0.79240  0.54781  0.29980  Biso   1.000  C
  C248     1.0000 0.69120  0.53712  0.32450  Biso   1.000  C
  C249     1.0000 0.68430  0.49932  0.35390  Biso   1.000  C
  H183     1.0000 0.61530  0.49180  0.37090  Biso   1.000  H
  C250     1.0000 0.77730  0.47227  0.35860  Biso   1.000  C
  C251     1.0000 0.87870  0.48347  0.33380  Biso   1.000  C
  C252     1.0000 0.88570  0.52123  0.30440  Biso   1.000  C
  H184     1.0000 0.95460  0.52890  0.28740  Biso   1.000  H
  C253     1.0000 0.75880  0.43034  0.38640  Biso   1.000  C
  C254     1.0000 0.66430  0.40656  0.37220  Biso   1.000  C
  H185     1.0000 0.61520  0.41660  0.34470  Biso   1.000  H
  C255     1.0000 0.64140  0.36821  0.39800  Biso   1.000  C
  H186     1.0000 0.57680  0.35210  0.38820  Biso   1.000  H
  C256     1.0000 0.71330  0.35336  0.43840  Biso   1.000  C
  C257     1.0000 0.80790  0.37710  0.45270  Biso   1.000  C
  H187     1.0000 0.85690  0.36700  0.48020  Biso   1.000  H
  C258     1.0000 0.83050  0.41552  0.42670  Biso   1.000  C
  H188     1.0000 0.89500  0.43170  0.43660  Biso   1.000  H
  C259     1.0000 0.24410  0.65123  0.03100  Biso   1.000  C
  C260     1.0000 0.27310  0.62710  0.07590  Biso   1.000  C
  H189     1.0000 0.24810  0.63560  0.11070  Biso   1.000  H
  C261     1.0000 0.33850  0.59060  0.07030  Biso   1.000  C
  H190     1.0000 0.35820  0.57430  0.10120  Biso   1.000  H
  C262     1.0000 0.37510  0.57788  0.01930  Biso   1.000  C
  C263     1.0000 0.34660  0.60230  0.97430  Biso   1.000  C
  H191     1.0000 0.37240  0.59410  0.93960  Biso   1.000  H
  C264     1.0000 0.28090  0.63860  0.97990  Biso   1.000  C
  H192     1.0000 0.26100  0.65490  0.94900  Biso   1.000  H
  Fe1      1.0000 0.45453  0.25000  0.61115  Biso   1.000  Fe
  Fe2      1.0000 0.71491  0.25000  0.56166  Biso   1.000  Fe
  Fe3      1.0000 0.49182  0.25000  0.48104  Biso   1.000  Fe
  O49      1.0000 0.54910  0.25000  0.55170  Biso   1.000  O
  Fe4      1.0000 0.04547  0.75000  0.11115  Biso   1.000  Fe
  Fe5      1.0000 0.78509  0.75000  0.06166  Biso   1.000  Fe
  Fe6      1.0000 0.00818  0.75000  0.98104  Biso   1.000  Fe
  O50      1.0000 0.95090  0.75000  0.05170  Biso   1.000  O
  Fe7      1.0000 0.54547  0.75000  0.38885  Biso   1.000  Fe
  Fe8      1.0000 0.28509  0.75000  0.43834  Biso   1.000  Fe
  Fe9      1.0000 0.50818  0.75000  0.51896  Biso   1.000  Fe
  O51      1.0000 0.45090  0.75000  0.44830  Biso   1.000  O
  Fe10     1.0000 0.95453  0.25000  0.88885  Biso   1.000  Fe
  Fe11     1.0000 0.21491  0.25000  0.93834  Biso   1.000  Fe
  Fe12     1.0000 0.99182  0.25000  0.01896  Biso   1.000  Fe
  O52      1.0000 0.04910  0.25000  0.94830  Biso   1.000  O
