data_TOWXEK_clean
_audit_creation_date              2015-10-16
_audit_creation_method            'Materials Studio'
_symmetry_space_group_name_H-M    'P1'
_symmetry_Int_Tables_number       1
_symmetry_cell_setting            triclinic
loop_
_symmetry_equiv_pos_as_xyz
  x,y,z
_cell_length_a                    8.1576
_cell_length_b                    23.5297
_cell_length_c                    23.5297
_cell_angle_alpha                 88.2781
_cell_angle_beta                  80.0175
_cell_angle_gamma                 80.0177
loop_
_atom_site_label
_atom_site_type_symbol
_atom_site_fract_x
_atom_site_fract_y
_atom_site_fract_z
_atom_site_U_iso_or_equiv
_atom_site_adp_type
_atom_site_occupancy
Zn1    Zn    0.25504   0.93853   0.94953   0.01267  Uiso   1.00
Zn2    Zn    0.79543   0.94953   0.06147   0.01267  Uiso   1.00
Zn3    Zn    0.14310   0.06147   0.05047   0.01267  Uiso   1.00
Zn4    Zn    0.25000   0.50000   0.50000   0.01267  Uiso   1.00
Zn5    Zn    0.80643   0.05047   0.93853   0.01267  Uiso   1.00
Zn6    Zn    0.50000   0.00000  -0.00000   0.01267  Uiso   1.00
H1     H     0.90740   0.00510   0.71690   0.01267  Uiso   1.00
H2     H     0.17960   0.11610   0.38070   0.01267  Uiso   1.00
H3     H     0.31990   0.03100   0.19840   0.01267  Uiso   1.00
H4     H     0.23980   0.97920   0.18140   0.01267  Uiso   1.00
H5     H     0.07290   0.18030   0.61410   0.01267  Uiso   1.00
H6     H     0.42200   0.98360   0.72140   0.01267  Uiso   1.00
H7     H     0.64910   0.80160   0.03100   0.01267  Uiso   1.00
H8     H     0.70560   0.68310   0.49230   0.01267  Uiso   1.00
H9     H     0.62940   0.99490   0.28310   0.01267  Uiso   1.00
H10    H     0.61980   0.48950   0.25170   0.01267  Uiso   1.00
H11    H     0.05430   0.02210   0.79330   0.01267  Uiso   1.00
H12    H     0.97080   0.99440   0.36780   0.01267  Uiso   1.00
H13    H     0.31320   0.37020   0.84380   0.01267  Uiso   1.00
H14    H     0.80210   0.49230   0.31690   0.01267  Uiso   1.00
H15    H     0.30060   0.95170   0.47950   0.01267  Uiso   1.00
H16    H     0.00870   0.48760   0.13020   0.01267  Uiso   1.00
H17    H     0.33330   0.86340   0.38960   0.01267  Uiso   1.00
H18    H     0.26360   0.80980   0.02120   0.01267  Uiso   1.00
H19    H     0.36100   0.51050   0.74830   0.01267  Uiso   1.00
H20    H     0.19670   0.49440   0.18440   0.01267  Uiso   1.00
H21    H     0.62830   0.69850   0.88190   0.01267  Uiso   1.00
H22    H     0.84300   0.84380   0.62980   0.01267  Uiso   1.00
H23    H     0.48980   0.88190   0.30150   0.01267  Uiso   1.00
H24    H     0.50370   0.86980   0.48760   0.01267  Uiso   1.00
H25    H     0.68240   0.38000   0.49500   0.01267  Uiso   1.00
H26    H     0.41520   0.63190   0.55990   0.01267  Uiso   1.00
H27    H     0.67320   0.11810   0.69850   0.01267  Uiso   1.00
H28    H     0.96310   0.86730   0.35490   0.01267  Uiso   1.00
H29    H     0.12700   0.01640   0.27860   0.01267  Uiso   1.00
H30    H     0.85260   0.12910   0.31010   0.01267  Uiso   1.00
H31    H     0.46330   0.01020   0.37300   0.01267  Uiso   1.00
H32    H     0.12850   0.25170   0.51050   0.01267  Uiso   1.00
H33    H     0.86110   0.13020   0.51240   0.01267  Uiso   1.00
H34    H     0.27250   0.53670   0.02130   0.01267  Uiso   1.00
H35    H     0.93760   0.50500   0.38000   0.01267  Uiso   1.00
H36    H     0.37570   0.71690   0.99490   0.01267  Uiso   1.00
H37    H     0.85300   0.37830   0.11810   0.01267  Uiso   1.00
H38    H     0.82260   0.49500   0.62000   0.01267  Uiso   1.00
H39    H     0.61890   0.18440   0.50560   0.01267  Uiso   1.00
H40    H     0.84230   0.52310   0.00390   0.01267  Uiso   1.00
H41    H     0.62650   0.51240   0.86980   0.01267  Uiso   1.00
H42    H     0.55740   0.62000   0.50500   0.01267  Uiso   1.00
H43    H     0.23250   0.85870   0.59910   0.01267  Uiso   1.00
H44    H     0.13640   0.17930   0.40510   0.01267  Uiso   1.00
H45    H     0.72080   0.82070   0.59490   0.01267  Uiso   1.00
H46    H     0.70430   0.61930   0.11610   0.01267  Uiso   1.00
H47    H     0.31300   0.61410   0.81970   0.01267  Uiso   1.00
H48    H     0.09460   0.19020   0.97880   0.01267  Uiso   1.00
H49    H     0.18530   0.13270   0.64510   0.01267  Uiso   1.00
H50    H     0.84650   0.98980   0.62700   0.01267  Uiso   1.00
H51    H     0.68430   0.59490   0.17930   0.01267  Uiso   1.00
H52    H     0.69030   0.14130   0.40090   0.01267  Uiso   1.00
H53    H     0.92360   0.20670   0.02210   0.01267  Uiso   1.00
H54    H     0.70620   0.02130   0.46330   0.01267  Uiso   1.00
H55    H     0.15240   0.79330   0.97790   0.01267  Uiso   1.00
H56    H     0.95290   0.44010   0.63190   0.01267  Uiso   1.00
H57    H     0.27710   0.38960   0.13660   0.01267  Uiso   1.00
H58    H     0.88100   0.31690   0.50770   0.01267  Uiso   1.00
H59    H     0.45850   0.40510   0.82070   0.01267  Uiso   1.00
H60    H     0.21990   0.47950   0.04830   0.01267  Uiso   1.00
H61    H     0.16370   0.37300   0.98980   0.01267  Uiso   1.00
H62    H     0.92660   0.97880   0.80980   0.01267  Uiso   1.00
H63    H     0.57880   0.18140   0.02080   0.01267  Uiso   1.00
H64    H     0.08750   0.28310   0.00510   0.01267  Uiso   1.00
H65    H     0.83730   0.31010   0.87090   0.01267  Uiso   1.00
H66    H     0.67640   0.88390   0.61930   0.01267  Uiso   1.00
H67    H     0.54930   0.96900   0.80160   0.01267  Uiso   1.00
H68    H     0.68200   0.35490   0.13270   0.01267  Uiso   1.00
H69    H     0.20870   0.30150   0.11810   0.01267  Uiso   1.00
H70    H     0.86970   0.97790   0.20670   0.01267  Uiso   1.00
H71    H     0.48170   0.19840   0.96900   0.01267  Uiso   1.00
H72    H     0.87550   0.50560   0.81560   0.01267  Uiso   1.00
H73    H     0.90880   0.40090   0.85870   0.01267  Uiso   1.00
H74    H     0.86730   0.81970   0.38590   0.01267  Uiso   1.00
H75    H     0.36930   0.47690   0.99610   0.01267  Uiso   1.00
H76    H     0.66140   0.36780   0.00560   0.01267  Uiso   1.00
H77    H     0.74680   0.38590   0.18030   0.01267  Uiso   1.00
H78    H     0.61130   0.50770   0.68310   0.01267  Uiso   1.00
H79    H     0.02490   0.55990   0.36810   0.01267  Uiso   1.00
H80    H     0.31660   0.15620   0.37020   0.01267  Uiso   1.00
H81    H     0.29180   0.87090   0.68990   0.01267  Uiso   1.00
H82    H     0.15380   0.00390   0.47690   0.01267  Uiso   1.00
H83    H     0.85660   0.72140   0.01640   0.01267  Uiso   1.00
H84    H     0.78100   0.81860   0.97920   0.01267  Uiso   1.00
H85    H     0.34940   0.62170   0.88190   0.01267  Uiso   1.00
H86    H     0.33300   0.00560   0.63220   0.01267  Uiso   1.00
H87    H     0.76870   0.88190   0.37830   0.01267  Uiso   1.00
H88    H     0.16840   0.59910   0.14130   0.01267  Uiso   1.00
H89    H     0.01830   0.68990   0.12910   0.01267  Uiso   1.00
H90    H     0.19080   0.97870   0.53670   0.01267  Uiso   1.00
H91    H     0.58630   0.13660   0.61040   0.01267  Uiso   1.00
H92    H     0.52720   0.62980   0.15620   0.01267  Uiso   1.00
H93    H     0.71520   0.02120   0.19020   0.01267  Uiso   1.00
H94    H     0.63460   0.99610   0.52310   0.01267  Uiso   1.00
H95    H     0.89070   0.74830   0.48950   0.01267  Uiso   1.00
H96    H     0.59440   0.27860   0.98360   0.01267  Uiso   1.00
H97    H     0.80330   0.61040   0.86340   0.01267  Uiso   1.00
H98    H     0.83050   0.46330   0.97870   0.01267  Uiso   1.00
H99    H     0.74770   0.52050   0.95170   0.01267  Uiso   1.00
H100   H     0.52650   0.62700   0.01020   0.01267  Uiso   1.00
H101   H     0.03480   0.63220   0.99440   0.01267  Uiso   1.00
H102   H     0.40040   0.02080   0.81860   0.01267  Uiso   1.00
H103   H     0.43970   0.38070   0.88390   0.01267  Uiso   1.00
H104   H     0.60700   0.36810   0.44010   0.01267  Uiso   1.00
H105   H     0.16960   0.64510   0.86730   0.01267  Uiso   1.00
H106   H     0.02890   0.11810   0.62170   0.01267  Uiso   1.00
H107   H     0.73180   0.04830   0.52050   0.01267  Uiso   1.00
H108   H     0.30890   0.81560   0.49440   0.01267  Uiso   1.00
C1     C     0.49450   0.07140   0.50400   0.01267  Uiso   1.00
C2     C     0.18010   0.14340   0.50540   0.01267  Uiso   1.00
C3     C     0.97930   0.90940   0.54740   0.01267  Uiso   1.00
C4     C     0.55230   0.10610   0.63290   0.01267  Uiso   1.00
C5     C     0.04400   0.98320   0.80620   0.01267  Uiso   1.00
C6     C     0.05000   0.39560   0.92160   0.01267  Uiso   1.00
C7     C     0.83340   0.01680   0.19380   0.01267  Uiso   1.00
C8     C     0.55120   0.04990   0.71950   0.01267  Uiso   1.00
C9     C     0.48050   0.73940   0.48960   0.01267  Uiso   1.00
C10    C     0.95250   0.64570   0.97210   0.01267  Uiso   1.00
C11    C     0.21210   0.55710   0.87750   0.01267  Uiso   1.00
C12    C     0.43410   0.49600   0.07140   0.01267  Uiso   1.00
C13    C     0.16790   0.98510   0.30030   0.01267  Uiso   1.00
C14    C     0.37950   0.39700   0.85400   0.01267  Uiso   1.00
C15    C     0.93100   0.48200   0.63200   0.01267  Uiso   1.00
C16    C     0.48920   0.50500   0.82060   0.01267  Uiso   1.00
C17    C     0.59290   0.54850   0.12490   0.01267  Uiso   1.00
C18    C     0.69020   0.82060   0.49500   0.01267  Uiso   1.00
C19    C     0.16400   0.49540   0.40860   0.01267  Uiso   1.00
C20    C     0.05360   0.30620   0.97500   0.01267  Uiso   1.00
C21    C     0.13800   0.92690   0.38710   0.01267  Uiso   1.00
C22    C     0.72930   0.71950   0.95010   0.01267  Uiso   1.00
C23    C     0.42740   0.40860   0.50460   0.01267  Uiso   1.00
C24    C     0.38540   0.90450   0.31430   0.01267  Uiso   1.00
C25    C     0.47330   0.54740   0.09060   0.01267  Uiso   1.00
C26    C     0.71010   0.68570   0.90450   0.01267  Uiso   1.00
C27    C     0.08550   0.49230   0.20070   0.01267  Uiso   1.00
C28    C     0.67550   0.11270   0.37670   0.01267  Uiso   1.00
C29    C     0.38800   0.08780   0.55680   0.01267  Uiso   1.00
C30    C     0.05520   0.55680   0.91220   0.01267  Uiso   1.00
C31    C     0.90310   0.32270   0.89490   0.01267  Uiso   1.00
C32    C     0.36720   0.60440   0.07840   0.01267  Uiso   1.00
C33    C     0.31320   0.49750   0.03070   0.01267  Uiso   1.00
C34    C     0.64020   0.02500   0.30620   0.01267  Uiso   1.00
C35    C     0.31450   0.50540   0.85660   0.01267  Uiso   1.00
C36    C     0.63050   0.60300   0.14600   0.01267  Uiso   1.00
C37    C     0.21180   0.62330   0.11270   0.01267  Uiso   1.00
C38    C     0.81480   0.63290   0.89390   0.01267  Uiso   1.00
C39    C     0.45330   0.01490   0.69970   0.01267  Uiso   1.00
C40    C     0.06800   0.50460   0.59140   0.01267  Uiso   1.00
C41    C     0.77420   0.10510   0.32270   0.01267  Uiso   1.00
C42    C     0.87400   0.86000   0.38520   0.01267  Uiso   1.00
C43    C     0.12070   0.67730   0.10510   0.01267  Uiso   1.00
C44    C     0.53180   0.30030   0.01490   0.01267  Uiso   1.00
C45    C     0.84140   0.50250   0.96930   0.01267  Uiso   1.00
C46    C     0.77530   0.75990   0.49150   0.01267  Uiso   1.00
C47    C     0.84550   0.49130   0.27770   0.01267  Uiso   1.00
C48    C     0.26630   0.45150   0.87510   0.01267  Uiso   1.00
C49    C     0.16490   0.88730   0.62330   0.01267  Uiso   1.00
C50    C     0.30030   0.31430   0.09550   0.01267  Uiso   1.00
C51    C     0.93550   0.96570   0.63990   0.01267  Uiso   1.00
C52    C     0.71380   0.20070   0.50770   0.01267  Uiso   1.00
C53    C     0.02840   0.92160   0.60440   0.01267  Uiso   1.00
C54    C     0.09880   0.36010   0.96570   0.01267  Uiso   1.00
C55    C     0.64670   0.44290   0.12250   0.01267  Uiso   1.00
C56    C     0.62650   0.50840   0.83060   0.01267  Uiso   1.00
C57    C     0.95760   0.28680   0.93900   0.01267  Uiso   1.00
C58    C     0.57030   0.35430   0.02790   0.01267  Uiso   1.00
C59    C     0.34060   0.59140   0.49540   0.01267  Uiso   1.00
C60    C     0.77850   0.50770   0.79930   0.01267  Uiso   1.00
C61    C     0.54290   0.83060   0.49160   0.01267  Uiso   1.00
C62    C     0.66320   0.72230   0.49130   0.01267  Uiso   1.00
C63    C     0.04500   0.51800   0.36800   0.01267  Uiso   1.00
C64    C     0.18340   0.71320   0.06100   0.01267  Uiso   1.00
C65    C     0.46480   0.50850   0.75990   0.01267  Uiso   1.00
C66    C     0.73320   0.49150   0.24010   0.01267  Uiso   1.00
C67    C     0.54110   0.03430   0.36010   0.01267  Uiso   1.00
C68    C     0.55440   0.07840   0.39560   0.01267  Uiso   1.00
C69    C     0.97280   0.19380   0.98320   0.01267  Uiso   1.00
C70    C     0.10340   0.93900   0.71320   0.01267  Uiso   1.00
C71    C     0.26600   0.61480   0.86000   0.01267  Uiso   1.00
C72    C     0.28220   0.12490   0.45150   0.01267  Uiso   1.00
C73    C     0.06990   0.92860   0.49600   0.01267  Uiso   1.00
C74    C     0.46930   0.18570   0.00890   0.01267  Uiso   1.00
C75    C     0.58700   0.36800   0.48200   0.01267  Uiso   1.00
C76    C     0.93750   0.02810   0.13710   0.01267  Uiso   1.00
C77    C     0.33480   0.69380   0.02500   0.01267  Uiso   1.00
C78    C     0.94780   0.37670   0.88730   0.01267  Uiso   1.00
C79    C     0.78010   0.51040   0.73940   0.01267  Uiso   1.00
C80    C     0.93510   0.61290   0.92690   0.01267  Uiso   1.00
C81    C     0.76650   0.85400   0.60300   0.01267  Uiso   1.00
C82    C     0.84700   0.69970   0.98510   0.01267  Uiso   1.00
C83    C     0.52420   0.44320   0.08780   0.01267  Uiso   1.00
C84    C     0.00580   0.17940   0.50500   0.01267  Uiso   1.00
C85    C     0.97140   0.97500   0.69380   0.01267  Uiso   1.00
C86    C     0.81480   0.49500   0.17940   0.01267  Uiso   1.00
C87    C     0.42220   0.79930   0.49230   0.01267  Uiso   1.00
C88    C     0.40800   0.12970   0.01410   0.01267  Uiso   1.00
C89    C     0.10270   0.97190   0.86290   0.01267  Uiso   1.00
C90    C     0.96550   0.49160   0.16940   0.01267  Uiso   1.00
C91    C     0.66390   0.81430   0.99110   0.01267  Uiso   1.00
C92    C     0.45200   0.07310   0.61290   0.01267  Uiso   1.00
C93    C     0.86510   0.16940   0.50840   0.01267  Uiso   1.00
C94    C     0.92540   0.13710   0.97190   0.01267  Uiso   1.00
C95    C     0.43700   0.63200   0.51800   0.01267  Uiso   1.00
C96    C     0.74080   0.38520   0.14000   0.01267  Uiso   1.00
C97    C     0.87680   0.27770   0.50870   0.01267  Uiso   1.00
C98    C     0.61450   0.50870   0.72230   0.01267  Uiso   1.00
C99    C     0.00150   0.50400   0.92860   0.01267  Uiso   1.00
C100   C     0.03440   0.86290   0.02810   0.01267  Uiso   1.00
C101   C     0.07540   0.97210   0.35430   0.01267  Uiso   1.00
C102   C     0.39890   0.28050   0.04990   0.01267  Uiso   1.00
C103   C     0.70950   0.26060   0.51040   0.01267  Uiso   1.00
C104   C     0.57790   0.01410   0.87030   0.01267  Uiso   1.00
C105   C     0.02990   0.48960   0.26060   0.01267  Uiso   1.00
C106   C     0.40180   0.02790   0.64570   0.01267  Uiso   1.00
C107   C     0.23080   0.12250   0.55710   0.01267  Uiso   1.00
C108   C     0.75560   0.06100   0.28680   0.01267  Uiso   1.00
C109   C     0.65610   0.03070   0.50250   0.01267  Uiso   1.00
C110   C     0.52180   0.00890   0.81430   0.01267  Uiso   1.00
C111   C     0.02670   0.24010   0.50850   0.01267  Uiso   1.00
C112   C     0.29130   0.89390   0.36710   0.01267  Uiso   1.00
C113   C     0.91040   0.87750   0.44290   0.01267  Uiso   1.00
C114   C     0.42460   0.63990   0.03430   0.01267  Uiso   1.00
C115   C     0.11130   0.45260   0.90940   0.01267  Uiso   1.00
C116   C     0.22350   0.14600   0.39700   0.01267  Uiso   1.00
C117   C     0.43610   0.09060   0.45260   0.01267  Uiso   1.00
C118   C     0.32060   0.95010   0.28050   0.01267  Uiso   1.00
C119   C     0.14980   0.80620   0.01680   0.01267  Uiso   1.00
C120   C     0.03260   0.91220   0.44320   0.01267  Uiso   1.00
C121   C     0.85860   0.87510   0.54850   0.01267  Uiso   1.00
C122   C     0.55180   0.87030   0.98590   0.01267  Uiso   1.00
C123   C     0.11920   0.14000   0.61480   0.01267  Uiso   1.00
C124   C     0.67650   0.49460   0.14340   0.01267  Uiso   1.00
C125   C     0.34160   0.36710   0.10610   0.01267  Uiso   1.00
C126   C     0.34500   0.99110   0.18570   0.01267  Uiso   1.00
C127   C     0.20200   0.89490   0.67730   0.01267  Uiso   1.00
C128   C     0.46230   0.98590   0.12970   0.01267  Uiso   1.00
C129   C     0.18930   0.96930   0.49750   0.01267  Uiso   1.00
C130   C     0.82890   0.85660   0.49460   0.01267  Uiso   1.00
C131   C     0.47490   0.38710   0.07310   0.01267  Uiso   1.00
C132   C     0.60420   0.09550   0.68570   0.01267  Uiso   1.00
O1     O     0.42032   0.95555   0.22801   0.01267  Uiso   1.00
O2     O     0.03469   0.00469   0.90393   0.01267  Uiso   1.00
O3     O     0.22699   0.93420   0.86822   0.01267  Uiso   1.00
O4     O     0.68961   0.04356   0.87242   0.01267  Uiso   1.00
O5     O     0.11340   0.50230   0.55690   0.01267  Uiso   1.00
O6     O     0.08534   0.76553   0.05819   0.01267  Uiso   1.00
O7     O     0.62413   0.77199   0.95555   0.01267  Uiso   1.00
O8     O     0.14913   0.94181   0.76553   0.01267  Uiso   1.00
O9     O     0.90479   0.86822   0.06580   0.01267  Uiso   1.00
O10    O     0.92900   0.50600   0.69600   0.01267  Uiso   1.00
O11    O     0.50710   0.98743   0.91157   0.01267  Uiso   1.00
O12    O     0.25400   0.00000  -0.00000   0.01267  Uiso   1.00
O13    O     0.13100   0.49400   0.30400   0.01267  Uiso   1.00
O14    O     0.26683   0.12758   0.04356   0.01267  Uiso   1.00
O15    O     0.74600   0.00000  -0.00000   0.01267  Uiso   1.00
O16    O     0.02941   0.06580   0.13178   0.01267  Uiso   1.00
O17    O     0.37500   0.69600   0.49400   0.01267  Uiso   1.00
O18    O     0.40610   0.01257   0.08843   0.01267  Uiso   1.00
O19    O     0.06138   0.90393   0.99531   0.01267  Uiso   1.00
O20    O     0.60559   0.95644   0.12758   0.01267  Uiso   1.00
O21    O     0.17260   0.49770   0.44310   0.01267  Uiso   1.00
O22    O     0.58133   0.91157   0.01257   0.01267  Uiso   1.00
O23    O     0.90906   0.23447   0.94181   0.01267  Uiso   1.00
O24    O     0.32970   0.55690   0.49770   0.01267  Uiso   1.00
O25    O     0.56500   0.30400   0.50600   0.01267  Uiso   1.00
O26    O     0.38430   0.44310   0.50230   0.01267  Uiso   1.00
O27    O     0.94331   0.99531   0.09607   0.01267  Uiso   1.00
O28    O     0.96062   0.09607   0.00469   0.01267  Uiso   1.00
O29    O     0.43797   0.87242   0.95644   0.01267  Uiso   1.00
O30    O     0.83881   0.13178   0.93420   0.01267  Uiso   1.00
O31    O     0.60388   0.04445   0.77199   0.01267  Uiso   1.00
O32    O     0.85647   0.05819   0.23447   0.01267  Uiso   1.00
O33    O     0.50547   0.08843   0.98743   0.01267  Uiso   1.00
O34    O     0.35167   0.22801   0.04445   0.01267  Uiso   1.00
