data_TOXHEV_clean
_audit_creation_date              2015-10-16
_audit_creation_method            'Materials Studio'
_symmetry_space_group_name_H-M    'P1'
_symmetry_Int_Tables_number       1
_symmetry_cell_setting            triclinic
loop_
_symmetry_equiv_pos_as_xyz
  x,y,z
_cell_length_a                    8.0355
_cell_length_b                    23.4222
_cell_length_c                    23.4222
_cell_angle_alpha                 88.3139
_cell_angle_beta                  80.1228
_cell_angle_gamma                 80.1231
loop_
_atom_site_label
_atom_site_type_symbol
_atom_site_fract_x
_atom_site_fract_y
_atom_site_fract_z
_atom_site_U_iso_or_equiv
_atom_site_adp_type
_atom_site_occupancy
Zn1    Zn    0.14115   0.06228   0.05354   0.01267  Uiso   1.00
Zn2    Zn    0.80531   0.05354   0.93772   0.01267  Uiso   1.00
Zn3    Zn    0.25697   0.93772   0.94646   0.01267  Uiso   1.00
Zn4    Zn    0.50000   0.00000  -0.00000   0.01267  Uiso   1.00
Zn5    Zn    0.79657   0.94646   0.06228   0.01267  Uiso   1.00
Fe1    Fe    0.25000   0.50000   0.50000   0.01267  Uiso   1.00
H1     H     0.22600   0.70600   0.45780   0.01267  Uiso   1.00
H2     H     0.33850   0.00390   0.63150   0.01267  Uiso   1.00
H3     H     0.41960   0.37450   0.88030   0.01267  Uiso   1.00
H4     H     0.00160   0.16840   0.60920   0.01267  Uiso   1.00
H5     H     0.94340   0.39830   0.85130   0.01267  Uiso   1.00
H6     H     0.65760   0.36850   0.00390   0.01267  Uiso   1.00
H7     H     0.83540   0.13120   0.30680   0.01267  Uiso   1.00
H8     H     0.80510   0.36220   0.11140   0.01267  Uiso   1.00
H9     H     0.64370   0.69970   0.87790   0.01267  Uiso   1.00
H10    H     0.92180   0.00990   0.70970   0.01267  Uiso   1.00
H11    H     0.82940   0.82180   0.62200   0.01267  Uiso   1.00
H12    H     0.83000   0.39080   0.16840   0.01267  Uiso   1.00
H13    H     0.16240   0.37440   0.99140   0.01267  Uiso   1.00
H14    H     0.73620   0.05320   0.50000   0.01267  Uiso   1.00
H15    H     0.76380   0.50000   0.94680   0.01267  Uiso   1.00
H16    H     0.72970   0.00820   0.19880   0.01267  Uiso   1.00
H17    H     0.20590   0.11970   0.37450   0.01267  Uiso   1.00
H18    H     0.86570   0.74720   0.50920   0.01267  Uiso   1.00
H19    H     0.66150   0.00810   0.46790   0.01267  Uiso   1.00
H20    H     0.88530   0.21510   0.02790   0.01267  Uiso   1.00
H21    H     0.85780   0.30680   0.86880   0.01267  Uiso   1.00
H22    H     0.08810   0.17200   0.40920   0.01267  Uiso   1.00
H23    H     0.27870   0.63780   0.88860   0.01267  Uiso   1.00
H24    H     0.06830   0.29030   0.00990   0.01267  Uiso   1.00
H25    H     0.21060   0.50000   0.05320   0.01267  Uiso   1.00
H26    H     0.65190   0.50690   0.86570   0.01267  Uiso   1.00
H27    H     0.59010   0.28040   0.98360   0.01267  Uiso   1.00
H28    H     0.59690   0.52260   0.67060   0.01267  Uiso   1.00
H29    H     0.20530   0.85130   0.60170   0.01267  Uiso   1.00
H30    H     0.31620   0.45780   0.29400   0.01267  Uiso   1.00
H31    H     0.97390   0.99610   0.36850   0.01267  Uiso   1.00
H32    H     0.22130   0.30030   0.12210   0.01267  Uiso   1.00
H33    H     0.18090   0.99180   0.46420   0.01267  Uiso   1.00
H34    H     0.64340   0.79810   0.02970   0.01267  Uiso   1.00
H35    H     0.27320   0.17820   0.37800   0.01267  Uiso   1.00
H36    H     0.84620   0.99140   0.62560   0.01267  Uiso   1.00
H37    H     0.12830   0.78490   0.97210   0.01267  Uiso   1.00
H38    H     0.85410   0.71960   0.01640   0.01267  Uiso   1.00
H39    H     0.57500   0.14270   0.61250   0.01267  Uiso   1.00
H40    H     0.19300   0.60170   0.14870   0.01267  Uiso   1.00
H41    H     0.26210   0.80120   0.00820   0.01267  Uiso   1.00
H42    H     0.47840   0.87790   0.30030   0.01267  Uiso   1.00
H43    H     0.66930   0.82800   0.59080   0.01267  Uiso   1.00
H44    H     0.38710   0.49080   0.74720   0.01267  Uiso   1.00
H45    H     0.78100   0.81490   0.97890   0.01267  Uiso   1.00
H46    H     0.34880   0.37800   0.82180   0.01267  Uiso   1.00
H47    H     0.48240   0.86570   0.49310   0.01267  Uiso   1.00
H48    H     0.33040   0.53210   0.00810   0.01267  Uiso   1.00
H49    H     0.12210   0.25280   0.49080   0.01267  Uiso   1.00
H50    H     0.28940   0.94680   0.50000   0.01267  Uiso   1.00
H51    H     0.77920   0.83160   0.39080   0.01267  Uiso   1.00
H52    H     0.03000   0.63150   0.99610   0.01267  Uiso   1.00
H53    H     0.55850   0.97030   0.79810   0.01267  Uiso   1.00
H54    H     0.70010   0.88030   0.62550   0.01267  Uiso   1.00
H55    H     0.35490   0.46420   0.00820   0.01267  Uiso   1.00
H56    H     0.41790   0.28760   0.47400   0.01267  Uiso   1.00
H57    H     0.97010   0.83230   0.36230   0.01267  Uiso   1.00
H58    H     0.08350   0.11140   0.63780   0.01267  Uiso   1.00
H59    H     0.81250   0.61250   0.85730   0.01267  Uiso   1.00
H60    H     0.73250   0.67060   0.47740   0.01267  Uiso   1.00
H61    H     0.19700   0.49600   0.20560   0.01267  Uiso   1.00
H62    H     0.30700   0.79440   0.49600   0.01267  Uiso   1.00
H63    H     0.27340   0.86880   0.69320   0.01267  Uiso   1.00
H64    H     0.42630   0.98360   0.71960   0.01267  Uiso   1.00
H65    H     0.07150   0.19880   0.99180   0.01267  Uiso   1.00
H66    H     0.79010   0.47740   0.32940   0.01267  Uiso   1.00
H67    H     0.32690   0.02970   0.20190   0.01267  Uiso   1.00
H68    H     0.16470   0.16770   0.63770   0.01267  Uiso   1.00
H69    H     0.54860   0.62200   0.17820   0.01267  Uiso   1.00
H70    H     0.19760   0.63770   0.83230   0.01267  Uiso   1.00
H71    H     0.38920   0.60920   0.83160   0.01267  Uiso   1.00
H72    H     0.88050   0.32940   0.52260   0.01267  Uiso   1.00
H73    H     0.93670   0.99180   0.80120   0.01267  Uiso   1.00
H74    H     0.84120   0.13430   0.50690   0.01267  Uiso   1.00
H75    H     0.28230   0.38750   0.14270   0.01267  Uiso   1.00
H76    H     0.33020   0.85730   0.38750   0.01267  Uiso   1.00
H77    H     0.03340   0.69320   0.13120   0.01267  Uiso   1.00
H78    H     0.82730   0.53580   0.99180   0.01267  Uiso   1.00
H79    H     0.36850   0.70970   0.99010   0.01267  Uiso   1.00
H80    H     0.47120   0.20190   0.97030   0.01267  Uiso   1.00
H81    H     0.59740   0.20560   0.50400   0.01267  Uiso   1.00
H82    H     0.17950   0.71240   0.52600   0.01267  Uiso   1.00
H83    H     0.46320   0.00860   0.37440   0.01267  Uiso   1.00
H84    H     0.02450   0.49310   0.13430   0.01267  Uiso   1.00
H85    H     0.65660   0.12210   0.69970   0.01267  Uiso   1.00
H86    H     0.10810   0.47400   0.71240   0.01267  Uiso   1.00
H87    H     0.12950   0.01640   0.28040   0.01267  Uiso   1.00
H88    H     0.73990   0.59080   0.17200   0.01267  Uiso   1.00
H89    H     0.08680   0.02790   0.78490   0.01267  Uiso   1.00
H90    H     0.29450   0.52600   0.28760   0.01267  Uiso   1.00
H91    H     0.38980   0.29400   0.54220   0.01267  Uiso   1.00
H92    H     0.65830   0.14870   0.39830   0.01267  Uiso   1.00
H93    H     0.06800   0.54220   0.70600   0.01267  Uiso   1.00
H94    H     0.67440   0.62550   0.11970   0.01267  Uiso   1.00
H95    H     0.63690   0.00820   0.53580   0.01267  Uiso   1.00
H96    H     0.66760   0.36230   0.16770   0.01267  Uiso   1.00
H97    H     0.40410   0.02110   0.81490   0.01267  Uiso   1.00
H98    H     0.87060   0.46790   0.99190   0.01267  Uiso   1.00
H99    H     0.24010   0.97890   0.18510   0.01267  Uiso   1.00
H100   H     0.89960   0.97210   0.21510   0.01267  Uiso   1.00
H101   H     0.57480   0.18510   0.02110   0.01267  Uiso   1.00
H102   H     0.62510   0.50920   0.25280   0.01267  Uiso   1.00
H103   H     0.52820   0.62560   0.00860   0.01267  Uiso   1.00
H104   H     0.13750   0.99190   0.53210   0.01267  Uiso   1.00
H105   H     0.50270   0.40920   0.82800   0.01267  Uiso   1.00
H106   H     0.89860   0.50400   0.79440   0.01267  Uiso   1.00
H107   H     0.83270   0.88860   0.36220   0.01267  Uiso   1.00
H108   H     0.64140   0.99010   0.29030   0.01267  Uiso   1.00
C1     C     0.37110   0.60440   0.07940   0.01267  Uiso   1.00
C2     C     0.37310   0.09070   0.55730   0.01267  Uiso   1.00
C3     C     0.85120   0.17330   0.50630   0.01267  Uiso   1.00
C4     C     0.34910   0.98980   0.18860   0.01267  Uiso   1.00
C5     C     0.97710   0.97680   0.68900   0.01267  Uiso   1.00
C6     C     0.46230   0.18860   0.01020   0.01267  Uiso   1.00
C7     C     0.95050   0.20050   0.99090   0.01267  Uiso   1.00
C8     C     0.01450   0.50400   0.92680   0.01267  Uiso   1.00
C9     C     0.67580   0.70810   0.48630   0.01267  Uiso   1.00
C10    C     0.13440   0.67890   0.10630   0.01267  Uiso   1.00
C11    C     0.97730   0.90490   0.54850   0.01267  Uiso   1.00
C12    C     0.96920   0.37630   0.88330   0.01267  Uiso   1.00
C13    C     0.68530   0.49390   0.14750   0.01267  Uiso   1.00
C14    C     0.47420   0.54850   0.09510   0.01267  Uiso   1.00
C15    C     0.52870   0.30200   0.01540   0.01267  Uiso   1.00
C16    C     0.72530   0.27530   0.51010   0.01267  Uiso   1.00
C17    C     0.74810   0.05990   0.28930   0.01267  Uiso   1.00
C18    C     0.42720   0.31210   0.50550   0.01267  Uiso   1.00
C19    C     0.17690   0.96790   0.49830   0.01267  Uiso   1.00
C20    C     0.48470   0.50200   0.75660   0.01267  Uiso   1.00
C21    C     0.22220   0.12720   0.55800   0.01267  Uiso   1.00
C22    C     0.59430   0.54640   0.13100   0.01267  Uiso   1.00
C23    C     0.39580   0.28200   0.05100   0.01267  Uiso   1.00
C24    C     0.47620   0.38790   0.07710   0.01267  Uiso   1.00
C25    C     0.54300   0.11090   0.63350   0.01267  Uiso   1.00
C26    C     0.10730   0.14530   0.61610   0.01267  Uiso   1.00
C27    C     0.27470   0.13100   0.45360   0.01267  Uiso   1.00
C28    C     0.46490   0.98520   0.12920   0.01267  Uiso   1.00
C29    C     0.34610   0.36650   0.11090   0.01267  Uiso   1.00
C30    C     0.30680   0.49930   0.37710   0.01267  Uiso   1.00
C31    C     0.33390   0.68900   0.02320   0.01267  Uiso   1.00
C32    C     0.79070   0.50620   0.78440   0.01267  Uiso   1.00
C33    C     0.05490   0.39560   0.92060   0.01267  Uiso   1.00
C34    C     0.06730   0.50550   0.68790   0.01267  Uiso   1.00
C35    C     0.69530   0.81290   0.49450   0.01267  Uiso   1.00
C36    C     0.61610   0.51370   0.70810   0.01267  Uiso   1.00
C37    C     0.84900   0.00910   0.20050   0.01267  Uiso   1.00
C38    C     0.53080   0.82670   0.49370   0.01267  Uiso   1.00
C39    C     0.13590   0.92290   0.38790   0.01267  Uiso   1.00
C40    C     0.19390   0.62290   0.49930   0.01267  Uiso   1.00
C41    C     0.45590   0.01540   0.69800   0.01267  Uiso   1.00
C42    C     0.08130   0.49380   0.21560   0.01267  Uiso   1.00
C43    C     0.49180   0.50550   0.81290   0.01267  Uiso   1.00
C44    C     0.64310   0.03210   0.50170   0.01267  Uiso   1.00
C45    C     0.42490   0.78440   0.49380   0.01267  Uiso   1.00
C46    C     0.18670   0.89370   0.67890   0.01267  Uiso   1.00
C47    C     0.05860   0.99090   0.79950   0.01267  Uiso   1.00
C48    C     0.55320   0.05100   0.71800   0.01267  Uiso   1.00
C49    C     0.81020   0.49450   0.18710   0.01267  Uiso   1.00
C50    C     0.14750   0.88330   0.62370   0.01267  Uiso   1.00
C51    C     0.93600   0.96690   0.63850   0.01267  Uiso   1.00
C52    C     0.07670   0.97220   0.35440   0.01267  Uiso   1.00
C53    C     0.30950   0.31450   0.09790   0.01267  Uiso   1.00
C54    C     0.32480   0.49830   0.03210   0.01267  Uiso   1.00
C55    C     0.97550   0.49370   0.17330   0.01267  Uiso   1.00
C56    C     0.57930   0.01480   0.87080   0.01267  Uiso   1.00
C57    C     0.31610   0.37710   0.50070   0.01267  Uiso   1.00
C58    C     0.94120   0.61210   0.92290   0.01267  Uiso   1.00
C59    C     0.28740   0.88910   0.36650   0.01267  Uiso   1.00
C60    C     0.75930   0.10630   0.32110   0.01267  Uiso   1.00
C61    C     0.40590   0.12920   0.01480   0.01267  Uiso   1.00
C62    C     0.53620   0.44270   0.09070   0.01267  Uiso   1.00
C63    C     0.83790   0.48630   0.29190   0.01267  Uiso   1.00
C64    C     0.75870   0.75660   0.49800   0.01267  Uiso   1.00
C65    C     0.85930   0.86900   0.54640   0.01267  Uiso   1.00
C66    C     0.03020   0.86070   0.02170   0.01267  Uiso   1.00
C67    C     0.85520   0.50170   0.96790   0.01267  Uiso   1.00
C68    C     0.42550   0.63850   0.03310   0.01267  Uiso   1.00
C69    C     0.70310   0.21560   0.50620   0.01267  Uiso   1.00
C70    C     0.74330   0.49800   0.24340   0.01267  Uiso   1.00
C71    C     0.82350   0.63350   0.88910   0.01267  Uiso   1.00
C72    C     0.65060   0.44200   0.12720   0.01267  Uiso   1.00
C73    C     0.86870   0.85470   0.38390   0.01267  Uiso   1.00
C74    C     0.09710   0.36150   0.96690   0.01267  Uiso   1.00
C75    C     0.90740   0.87280   0.44200   0.01267  Uiso   1.00
C76    C     0.16930   0.98460   0.30200   0.01267  Uiso   1.00
C77    C     0.32670   0.50610   0.85250   0.01267  Uiso   1.00
C78    C     0.94810   0.02170   0.13930   0.01267  Uiso   1.00
C79    C     0.11780   0.45150   0.90490   0.01267  Uiso   1.00
C80    C     0.72190   0.68550   0.90210   0.01267  Uiso   1.00
C81    C     0.65450   0.11670   0.37630   0.01267  Uiso   1.00
C82    C     0.18320   0.50070   0.62290   0.01267  Uiso   1.00
C83    C     0.74740   0.38390   0.14530   0.01267  Uiso   1.00
C84    C     0.56890   0.35440   0.02780   0.01267  Uiso   1.00
C85    C     0.10910   0.97830   0.86070   0.01267  Uiso   1.00
C86    C     0.75450   0.84780   0.60120   0.01267  Uiso   1.00
C87    C     0.54950   0.07940   0.39560   0.01267  Uiso   1.00
C88    C     0.02110   0.90930   0.44270   0.01267  Uiso   1.00
C89    C     0.00270   0.18710   0.50550   0.01267  Uiso   1.00
C90    C     0.84610   0.69800   0.98460   0.01267  Uiso   1.00
C91    C     0.59260   0.09790   0.68550   0.01267  Uiso   1.00
C92    C     0.76460   0.51010   0.72470   0.01267  Uiso   1.00
C93    C     0.24480   0.68790   0.49450   0.01267  Uiso   1.00
C94    C     0.02450   0.92060   0.60440   0.01267  Uiso   1.00
C95    C     0.72880   0.71800   0.94900   0.01267  Uiso   1.00
C96    C     0.52750   0.01020   0.81140   0.01267  Uiso   1.00
C97    C     0.51070   0.72470   0.48990   0.01267  Uiso   1.00
C98    C     0.40330   0.02780   0.64560   0.01267  Uiso   1.00
C99    C     0.16720   0.14750   0.50610   0.01267  Uiso   1.00
C100   C     0.54140   0.03310   0.36150   0.01267  Uiso   1.00
C101   C     0.37600   0.90210   0.31450   0.01267  Uiso   1.00
C102   C     0.66110   0.81140   0.98980   0.01267  Uiso   1.00
C103   C     0.82080   0.85250   0.49390   0.01267  Uiso   1.00
C104   C     0.14190   0.79950   0.00910   0.01267  Uiso   1.00
C105   C     0.32220   0.94900   0.28200   0.01267  Uiso   1.00
C106   C     0.22880   0.62370   0.11670   0.01267  Uiso   1.00
C107   C     0.27660   0.61610   0.85470   0.01267  Uiso   1.00
C108   C     0.20350   0.15220   0.39880   0.01267  Uiso   1.00
C109   C     0.21980   0.55800   0.87280   0.01267  Uiso   1.00
C110   C     0.27170   0.45360   0.86900   0.01267  Uiso   1.00
C111   C     0.99940   0.48990   0.27530   0.01267  Uiso   1.00
C112   C     0.06960   0.55730   0.90930   0.01267  Uiso   1.00
C113   C     0.09730   0.94010   0.71070   0.01267  Uiso   1.00
C114   C     0.44670   0.07710   0.61210   0.01267  Uiso   1.00
C115   C     0.64290   0.02320   0.31100   0.01267  Uiso   1.00
C116   C     0.64430   0.60120   0.15220   0.01267  Uiso   1.00
C117   C     0.19200   0.71070   0.05990   0.01267  Uiso   1.00
C118   C     0.91960   0.32110   0.89370   0.01267  Uiso   1.00
C119   C     0.44530   0.49600   0.07320   0.01267  Uiso   1.00
C120   C     0.87020   0.29190   0.51370   0.01267  Uiso   1.00
C121   C     0.01330   0.24340   0.50200   0.01267  Uiso   1.00
C122   C     0.43070   0.09510   0.45150   0.01267  Uiso   1.00
C123   C     0.48150   0.07320   0.50400   0.01267  Uiso   1.00
C124   C     0.54990   0.87080   0.98520   0.01267  Uiso   1.00
C125   C     0.05870   0.92680   0.49600   0.01267  Uiso   1.00
C126   C     0.91260   0.13930   0.97830   0.01267  Uiso   1.00
C127   C     0.96260   0.28930   0.94010   0.01267  Uiso   1.00
C128   C     0.39770   0.39880   0.84780   0.01267  Uiso   1.00
C129   C     0.95110   0.64560   0.97220   0.01267  Uiso   1.00
C130   C     0.04610   0.31100   0.97680   0.01267  Uiso   1.00
C131   C     0.64250   0.50630   0.82670   0.01267  Uiso   1.00
C132   C     0.26070   0.49450   0.31210   0.01267  Uiso   1.00
O1     O     0.15530   0.94470   0.76330   0.01267  Uiso   1.00
O2     O     0.34760   0.22940   0.04560   0.01267  Uiso   1.00
O3     O     0.15560   0.37220   0.51060   0.01267  Uiso   1.00
O4     O     0.43710   0.87180   0.95420   0.01267  Uiso   1.00
O5     O     0.22290   0.93820   0.86660   0.01267  Uiso   1.00
O6     O     0.95380   0.98500   0.09920   0.01267  Uiso   1.00
O7     O     0.31360   0.57950   0.49130   0.01267  Uiso   1.00
O8     O     0.42220   0.67720   0.49840   0.01267  Uiso   1.00
O9     O     0.38440   0.42050   0.50870   0.01267  Uiso   1.00
O10    O     0.91050   0.86660   0.06180   0.01267  Uiso   1.00
O11    O     0.03800   0.01500   0.90080   0.01267  Uiso   1.00
O12    O     0.06120   0.90080   0.98500   0.01267  Uiso   1.00
O13    O     0.62260   0.77060   0.95440   0.01267  Uiso   1.00
O14    O     0.10690   0.50870   0.57950   0.01267  Uiso   1.00
O15    O     0.03840   0.62780   0.48940   0.01267  Uiso   1.00
O16    O     0.42300   0.95440   0.22940   0.01267  Uiso   1.00
O17    O     0.50510   0.98940   0.91180   0.01267  Uiso   1.00
O18    O     0.90000   0.23670   0.94470   0.01267  Uiso   1.00
O19    O     0.02770   0.06180   0.13340   0.01267  Uiso   1.00
O20    O     0.60870   0.95420   0.12820   0.01267  Uiso   1.00
O21    O     0.24470   0.00000  -0.00000   0.01267  Uiso   1.00
O22    O     0.40630   0.01060   0.08820   0.01267  Uiso   1.00
O23    O     0.07940   0.49840   0.32280   0.01267  Uiso   1.00
O24    O     0.47220   0.48940   0.37220   0.01267  Uiso   1.00
O25    O     0.69110   0.04580   0.87180   0.01267  Uiso   1.00
O26    O     0.86330   0.05530   0.23670   0.01267  Uiso   1.00
O27    O     0.26310   0.12820   0.04580   0.01267  Uiso   1.00
O28    O     0.83890   0.13340   0.93820   0.01267  Uiso   1.00
O29    O     0.08140   0.76330   0.05530   0.01267  Uiso   1.00
O30    O     0.75530   0.00000   0.00000   0.01267  Uiso   1.00
O31    O     0.19510   0.49130   0.42050   0.01267  Uiso   1.00
O32    O     0.59780   0.32280   0.50160   0.01267  Uiso   1.00
O33    O     0.58310   0.91180   0.01060   0.01267  Uiso   1.00
O34    O     0.60680   0.04560   0.77060   0.01267  Uiso   1.00
O35    O     0.94700   0.09920   0.01500   0.01267  Uiso   1.00
O36    O     0.50550   0.08820   0.98940   0.01267  Uiso   1.00
O37    O     0.33380   0.51060   0.62780   0.01267  Uiso   1.00
O38    O     0.90060   0.50160   0.67720   0.01267  Uiso   1.00
