data_TOXHAR_clean
_audit_creation_date              2015-10-16
_audit_creation_method            'Materials Studio'
_symmetry_space_group_name_H-M    'P1'
_symmetry_Int_Tables_number       1
_symmetry_cell_setting            triclinic
loop_
_symmetry_equiv_pos_as_xyz
  x,y,z
_cell_length_a                    7.5883
_cell_length_b                    15.7838
_cell_length_c                    15.7838
_cell_angle_alpha                 94.2825
_cell_angle_beta                  99.4787
_cell_angle_gamma                 99.4787
loop_
_atom_site_label
_atom_site_type_symbol
_atom_site_fract_x
_atom_site_fract_y
_atom_site_fract_z
_atom_site_U_iso_or_equiv
_atom_site_adp_type
_atom_site_occupancy
Zn1    Zn    0.20158   0.50695   0.62315   0.01267  Uiso   1.00
Zn2    Zn    0.70158   0.62315   0.50695   0.01267  Uiso   1.00
H1     H     0.96220   0.30480   0.40800   0.01267  Uiso   1.00
H2     H     0.62540   0.24890   0.86890   0.01267  Uiso   1.00
H3     H     0.76070   0.64960   0.73280   0.01267  Uiso   1.00
H4     H     0.65290   0.02310   0.31730   0.01267  Uiso   1.00
H5     H     0.61390   0.07190   0.80050   0.01267  Uiso   1.00
H6     H     0.35870   0.92320   0.18160   0.01267  Uiso   1.00
H7     H     0.23300   0.04480   0.11080   0.01267  Uiso   1.00
H8     H     0.99310   0.18600   0.15880   0.01267  Uiso   1.00
H9     H     0.03840   0.13120   0.75940   0.01267  Uiso   1.00
H10    H     0.72140   0.87930   0.91670   0.01267  Uiso   1.00
H11    H     0.89700   0.72130   0.70110   0.01267  Uiso   1.00
H12    H     0.17760   0.07330   0.73770   0.01267  Uiso   1.00
H13    H     0.70120   0.80820   0.32820   0.01267  Uiso   1.00
H14    H     0.31910   0.31520   0.09600   0.01267  Uiso   1.00
H15    H     0.49310   0.15880   0.18600   0.01267  Uiso   1.00
H16    H     0.67760   0.73770   0.07330   0.01267  Uiso   1.00
H17    H     0.72490   0.32690   0.04530   0.01267  Uiso   1.00
H18    H     0.17100   0.85150   0.46990   0.01267  Uiso   1.00
H19    H     0.73300   0.11080   0.04480   0.01267  Uiso   1.00
H20    H     0.39430   0.16820   0.40640   0.01267  Uiso   1.00
H21    H     0.89430   0.40640   0.16820   0.01267  Uiso   1.00
H22    H     0.47250   0.75250   0.40030   0.01267  Uiso   1.00
H23    H     0.15290   0.31730   0.02310   0.01267  Uiso   1.00
H24    H     0.97250   0.40030   0.75250   0.01267  Uiso   1.00
H25    H     0.22140   0.91670   0.87930   0.01267  Uiso   1.00
H26    H     0.85870   0.18160   0.92320   0.01267  Uiso   1.00
H27    H     0.08250   0.06030   0.03570   0.01267  Uiso   1.00
H28    H     0.58250   0.03570   0.06030   0.01267  Uiso   1.00
H29    H     0.28200   0.41680   0.33940   0.01267  Uiso   1.00
H30    H     0.65700   0.03290   0.97350   0.01267  Uiso   1.00
H31    H     0.39700   0.70110   0.72130   0.01267  Uiso   1.00
H32    H     0.78200   0.33940   0.41680   0.01267  Uiso   1.00
H33    H     0.26070   0.73280   0.64960   0.01267  Uiso   1.00
H34    H     0.20120   0.32820   0.80820   0.01267  Uiso   1.00
H35    H     0.53840   0.75940   0.13120   0.01267  Uiso   1.00
H36    H     0.15700   0.97350   0.03290   0.01267  Uiso   1.00
H37    H     0.34640   0.36640   0.01640   0.01267  Uiso   1.00
H38    H     0.84640   0.01640   0.36640   0.01267  Uiso   1.00
H39    H     0.76290   0.78850   0.80390   0.01267  Uiso   1.00
H40    H     0.81910   0.09600   0.31520   0.01267  Uiso   1.00
H41    H     0.15300   0.70690   0.96150   0.01267  Uiso   1.00
H42    H     0.67100   0.46990   0.85150   0.01267  Uiso   1.00
H43    H     0.26120   0.77000   0.48320   0.01267  Uiso   1.00
H44    H     0.02570   0.03810   0.78910   0.01267  Uiso   1.00
H45    H     0.46220   0.40800   0.30480   0.01267  Uiso   1.00
H46    H     0.66750   0.23420   0.30980   0.01267  Uiso   1.00
H47    H     0.52570   0.78910   0.03810   0.01267  Uiso   1.00
H48    H     0.12540   0.86890   0.24890   0.01267  Uiso   1.00
H49    H     0.65300   0.96150   0.70690   0.01267  Uiso   1.00
H50    H     0.26290   0.80390   0.78850   0.01267  Uiso   1.00
H51    H     0.16750   0.30980   0.23420   0.01267  Uiso   1.00
H52    H     0.11390   0.80050   0.07190   0.01267  Uiso   1.00
H53    H     0.76120   0.48320   0.77000   0.01267  Uiso   1.00
H54    H     0.22490   0.04530   0.32690   0.01267  Uiso   1.00
C1     C     0.31780   0.23490   0.98650   0.01267  Uiso   1.00
C2     C     0.10710   0.08860   0.77980   0.01267  Uiso   1.00
C3     C     0.95740   0.02040   0.19380   0.01267  Uiso   1.00
C4     C     0.40670   0.00700   0.84800   0.01267  Uiso   1.00
C5     C     0.05490   0.24620   0.87120   0.01267  Uiso   1.00
C6     C     0.73300   0.86410   0.12510   0.01267  Uiso   1.00
C7     C     0.20320   0.20100   0.90800   0.01267  Uiso   1.00
C8     C     0.08540   0.31220   0.82060   0.01267  Uiso   1.00
C9     C     0.28060   0.31600   0.03500   0.01267  Uiso   1.00
C10    C     0.44880   0.78700   0.35600   0.01267  Uiso   1.00
C11    C     0.80840   0.84430   0.92650   0.01267  Uiso   1.00
C12    C     0.49410   0.49470   0.74810   0.01267  Uiso   1.00
C13    C     0.99410   0.74810   0.49470   0.01267  Uiso   1.00
C14    C     0.07270   0.18210   0.20930   0.01267  Uiso   1.00
C15    C     0.96240   0.73810   0.87050   0.01267  Uiso   1.00
C16    C     0.79360   0.32940   0.25100   0.01267  Uiso   1.00
C17    C     0.30840   0.92650   0.84430   0.01267  Uiso   1.00
C18    C     0.94460   0.59900   0.67140   0.01267  Uiso   1.00
C19    C     0.65270   0.45610   0.78930   0.01267  Uiso   1.00
C20    C     0.98320   0.97890   0.11710   0.01267  Uiso   1.00
C21    C     0.74110   0.26570   0.85670   0.01267  Uiso   1.00
C22    C     0.38190   0.88830   0.22550   0.01267  Uiso   1.00
C23    C     0.12680   0.01790   0.06990   0.01267  Uiso   1.00
C24    C     0.90670   0.84800   0.00700   0.01267  Uiso   1.00
C25    C     0.88190   0.22550   0.88830   0.01267  Uiso   1.00
C26    C     0.62680   0.06990   0.01790   0.01267  Uiso   1.00
C27    C     0.24110   0.85670   0.26570   0.01267  Uiso   1.00
C28    C     0.77700   0.33200   0.80620   0.01267  Uiso   1.00
C29    C     0.40360   0.40450   0.35490   0.01267  Uiso   1.00
C30    C     0.45740   0.19380   0.02040   0.01267  Uiso   1.00
C31    C     0.51590   0.46960   0.43220   0.01267  Uiso   1.00
C32    C     0.37070   0.08420   0.89840   0.01267  Uiso   1.00
C33    C     0.83350   0.79000   0.85820   0.01267  Uiso   1.00
C34    C     0.04010   0.79700   0.01800   0.01267  Uiso   1.00
C35    C     0.23300   0.12510   0.86410   0.01267  Uiso   1.00
C36    C     0.67630   0.25420   0.25640   0.01267  Uiso   1.00
C37    C     0.70900   0.30920   0.09880   0.01267  Uiso   1.00
C38    C     0.15270   0.78930   0.45610   0.01267  Uiso   1.00
C39    C     0.29360   0.25100   0.32940   0.01267  Uiso   1.00
C40    C     0.81270   0.35670   0.17210   0.01267  Uiso   1.00
C41    C     0.01590   0.43220   0.46960   0.01267  Uiso   1.00
C42    C     0.08290   0.10170   0.23670   0.01267  Uiso   1.00
C43    C     0.94880   0.35600   0.78700   0.01267  Uiso   1.00
C44    C     0.46240   0.87050   0.73810   0.01267  Uiso   1.00
C45    C     0.60710   0.77980   0.08860   0.01267  Uiso   1.00
C46    C     0.78060   0.03500   0.31600   0.01267  Uiso   1.00
C47    C     0.20900   0.09880   0.30920   0.01267  Uiso   1.00
C48    C     0.54010   0.01800   0.79700   0.01267  Uiso   1.00
C49    C     0.56580   0.95170   0.74190   0.01267  Uiso   1.00
C50    C     0.87070   0.89840   0.08420   0.01267  Uiso   1.00
C51    C     0.44460   0.67140   0.59900   0.01267  Uiso   1.00
C52    C     0.31270   0.17210   0.35670   0.01267  Uiso   1.00
C53    C     0.81780   0.98650   0.23490   0.01267  Uiso   1.00
C54    C     0.90360   0.35490   0.40450   0.01267  Uiso   1.00
C55    C     0.57270   0.20930   0.18210   0.01267  Uiso   1.00
C56    C     0.58290   0.23670   0.10170   0.01267  Uiso   1.00
C57    C     0.55490   0.87120   0.24620   0.01267  Uiso   1.00
C58    C     0.06580   0.74190   0.95170   0.01267  Uiso   1.00
C59    C     0.27700   0.80620   0.33200   0.01267  Uiso   1.00
C60    C     0.58540   0.82060   0.31220   0.01267  Uiso   1.00
C61    C     0.48320   0.11710   0.97890   0.01267  Uiso   1.00
C62    C     0.70320   0.90800   0.20100   0.01267  Uiso   1.00
C63    C     0.17630   0.25640   0.25420   0.01267  Uiso   1.00
C64    C     0.33350   0.85820   0.79000   0.01267  Uiso   1.00
C65    C     0.38650   0.72740   0.66740   0.01267  Uiso   1.00
C66    C     0.88650   0.66740   0.72740   0.01267  Uiso   1.00
O1     O     0.49770   0.57080   0.76840   0.01267  Uiso   1.00
O2     O     0.07560   0.56540   0.70340   0.01267  Uiso   1.00
O3     O     0.06530   0.40990   0.54210   0.01267  Uiso   1.00
O4     O     0.86030   0.57880   0.59660   0.01267  Uiso   1.00
O5     O     0.36030   0.59660   0.57880   0.01267  Uiso   1.00
O6     O     0.56530   0.54210   0.40990   0.01267  Uiso   1.00
O7     O     0.87070   0.69370   0.44470   0.01267  Uiso   1.00
O8     O     0.89710   0.38460   0.32020   0.01267  Uiso   1.00
O9     O     0.99850   0.67950   0.80950   0.01267  Uiso   1.00
O10    O     0.53900   0.44670   0.50410   0.01267  Uiso   1.00
O11    O     0.49850   0.80950   0.67950   0.01267  Uiso   1.00
O12    O     0.39710   0.32020   0.38460   0.01267  Uiso   1.00
O13    O     0.13290   0.77170   0.36970   0.01267  Uiso   1.00
O14    O     0.03900   0.50410   0.44670   0.01267  Uiso   1.00
O15    O     0.63290   0.36970   0.77170   0.01267  Uiso   1.00
O16    O     0.99770   0.76840   0.57080   0.01267  Uiso   1.00
O17    O     0.57560   0.70340   0.56540   0.01267  Uiso   1.00
O18    O     0.37070   0.44470   0.69370   0.01267  Uiso   1.00
