data_image0
_cell_length_a       14.7854
_cell_length_b       14.7854
_cell_length_c       11.774
_cell_angle_alpha    90
_cell_angle_beta     90
_cell_angle_gamma    90

_symmetry_space_group_name_H-M    "P 1"
_symmetry_int_tables_number       1

loop_
  _symmetry_equiv_pos_as_xyz
  'x, y, z'

loop_
  _atom_site_label
  _atom_site_occupancy
  _atom_site_fract_x
  _atom_site_fract_y
  _atom_site_fract_z
  _atom_site_thermal_displace_type
  _atom_site_B_iso_or_equiv
  _atom_site_type_symbol
  O1       1.0000 0.62500  0.38016  0.59997  Biso   1.000  O
  O2       1.0000 0.60774  0.28648  0.74083  Biso   1.000  O
  C1       1.0000 0.59425  0.36275  0.69700  Biso   1.000  C
  C2       1.0000 0.54312  0.43076  0.75845  Biso   1.000  C
  C3       1.0000 0.54312  0.43076  0.87672  Biso   1.000  C
  H1       1.0000 0.57563  0.37856  0.92131  Biso   1.000  H
  O3       1.0000 0.12500  0.88016  0.09997  Biso   1.000  O
  O4       1.0000 0.10774  0.78648  0.24083  Biso   1.000  O
  C4       1.0000 0.09425  0.86275  0.19700  Biso   1.000  C
  C5       1.0000 0.04312  0.93076  0.25845  Biso   1.000  C
  C6       1.0000 0.04312  0.93076  0.37672  Biso   1.000  C
  H2       1.0000 0.07563  0.87856  0.42131  Biso   1.000  H
  O5       1.0000 0.87500  0.11984  0.09997  Biso   1.000  O
  O6       1.0000 0.89226  0.21352  0.24083  Biso   1.000  O
  C7       1.0000 0.90575  0.13725  0.19700  Biso   1.000  C
  C8       1.0000 0.95688  0.06924  0.25845  Biso   1.000  C
  C9       1.0000 0.95688  0.06924  0.37672  Biso   1.000  C
  H3       1.0000 0.92437  0.12144  0.42131  Biso   1.000  H
  O7       1.0000 0.37500  0.61984  0.59997  Biso   1.000  O
  O8       1.0000 0.39226  0.71352  0.74083  Biso   1.000  O
  C10      1.0000 0.40575  0.63725  0.69700  Biso   1.000  C
  C11      1.0000 0.45688  0.56924  0.75845  Biso   1.000  C
  C12      1.0000 0.45688  0.56924  0.87672  Biso   1.000  C
  H4       1.0000 0.42437  0.62144  0.92131  Biso   1.000  H
  O9       1.0000 0.61984  0.12500  0.84997  Biso   1.000  O
  O10      1.0000 0.71352  0.10774  0.99083  Biso   1.000  O
  C13      1.0000 0.63725  0.09425  0.94700  Biso   1.000  C
  C14      1.0000 0.56924  0.04312  0.00845  Biso   1.000  C
  C15      1.0000 0.56924  0.04312  0.12672  Biso   1.000  C
  H5       1.0000 0.62144  0.07563  0.17131  Biso   1.000  H
  O11      1.0000 0.11984  0.62500  0.34997  Biso   1.000  O
  O12      1.0000 0.21352  0.60774  0.49083  Biso   1.000  O
  C16      1.0000 0.13725  0.59425  0.44700  Biso   1.000  C
  C17      1.0000 0.06924  0.54312  0.50845  Biso   1.000  C
  C18      1.0000 0.06924  0.54312  0.62672  Biso   1.000  C
  H6       1.0000 0.12144  0.57563  0.67131  Biso   1.000  H
  O13      1.0000 0.88016  0.37500  0.34997  Biso   1.000  O
  O14      1.0000 0.78648  0.39226  0.49083  Biso   1.000  O
  C19      1.0000 0.86275  0.40575  0.44700  Biso   1.000  C
  C20      1.0000 0.93076  0.45688  0.50845  Biso   1.000  C
  C21      1.0000 0.93076  0.45688  0.62672  Biso   1.000  C
  H7       1.0000 0.87856  0.42437  0.67131  Biso   1.000  H
  O15      1.0000 0.38016  0.87500  0.84997  Biso   1.000  O
  O16      1.0000 0.28648  0.89226  0.99083  Biso   1.000  O
  C22      1.0000 0.36275  0.90575  0.94700  Biso   1.000  C
  C23      1.0000 0.43076  0.95688  0.00845  Biso   1.000  C
  C24      1.0000 0.43076  0.95688  0.12672  Biso   1.000  C
  H8       1.0000 0.37856  0.92437  0.17131  Biso   1.000  H
  O17      1.0000 0.87500  0.38016  0.15003  Biso   1.000  O
  O18      1.0000 0.89226  0.28648  0.00917  Biso   1.000  O
  C25      1.0000 0.90575  0.36275  0.05300  Biso   1.000  C
  C26      1.0000 0.95688  0.43076  0.99155  Biso   1.000  C
  C27      1.0000 0.95688  0.43076  0.87328  Biso   1.000  C
  H9       1.0000 0.92437  0.37856  0.82869  Biso   1.000  H
  O19      1.0000 0.37500  0.88016  0.65003  Biso   1.000  O
  O20      1.0000 0.39226  0.78648  0.50917  Biso   1.000  O
  C28      1.0000 0.40575  0.86275  0.55300  Biso   1.000  C
  C29      1.0000 0.45688  0.93076  0.49155  Biso   1.000  C
  C30      1.0000 0.45688  0.93076  0.37328  Biso   1.000  C
  H10      1.0000 0.42437  0.87856  0.32869  Biso   1.000  H
  O21      1.0000 0.62500  0.11984  0.65003  Biso   1.000  O
  O22      1.0000 0.60774  0.21352  0.50917  Biso   1.000  O
  C31      1.0000 0.59425  0.13725  0.55300  Biso   1.000  C
  C32      1.0000 0.54312  0.06924  0.49155  Biso   1.000  C
  C33      1.0000 0.54312  0.06924  0.37328  Biso   1.000  C
  H11      1.0000 0.57563  0.12144  0.32869  Biso   1.000  H
  O23      1.0000 0.12500  0.61984  0.15003  Biso   1.000  O
  O24      1.0000 0.10774  0.71352  0.00917  Biso   1.000  O
  C34      1.0000 0.09425  0.63725  0.05300  Biso   1.000  C
  C35      1.0000 0.04312  0.56924  0.99155  Biso   1.000  C
  C36      1.0000 0.04312  0.56924  0.87328  Biso   1.000  C
  H12      1.0000 0.07563  0.62144  0.82869  Biso   1.000  H
  O25      1.0000 0.88016  0.12500  0.90003  Biso   1.000  O
  O26      1.0000 0.78648  0.10774  0.75917  Biso   1.000  O
  C37      1.0000 0.86275  0.09425  0.80300  Biso   1.000  C
  C38      1.0000 0.93076  0.04312  0.74155  Biso   1.000  C
  C39      1.0000 0.93076  0.04312  0.62328  Biso   1.000  C
  H13      1.0000 0.87856  0.07563  0.57869  Biso   1.000  H
  O27      1.0000 0.38016  0.62500  0.40003  Biso   1.000  O
  O28      1.0000 0.28648  0.60774  0.25917  Biso   1.000  O
  C40      1.0000 0.36275  0.59425  0.30300  Biso   1.000  C
  C41      1.0000 0.43076  0.54312  0.24155  Biso   1.000  C
  C42      1.0000 0.43076  0.54312  0.12328  Biso   1.000  C
  H14      1.0000 0.37856  0.57563  0.07869  Biso   1.000  H
  O29      1.0000 0.61984  0.37500  0.40003  Biso   1.000  O
  O30      1.0000 0.71352  0.39226  0.25917  Biso   1.000  O
  C43      1.0000 0.63725  0.40575  0.30300  Biso   1.000  C
  C44      1.0000 0.56924  0.45688  0.24155  Biso   1.000  C
  C45      1.0000 0.56924  0.45688  0.12328  Biso   1.000  C
  H15      1.0000 0.62144  0.42437  0.07869  Biso   1.000  H
  O31      1.0000 0.11984  0.87500  0.90003  Biso   1.000  O
  O32      1.0000 0.21352  0.89226  0.75917  Biso   1.000  O
  C46      1.0000 0.13725  0.90575  0.80300  Biso   1.000  C
  C47      1.0000 0.06924  0.95688  0.74155  Biso   1.000  C
  C48      1.0000 0.06924  0.95688  0.62328  Biso   1.000  C
  H16      1.0000 0.12144  0.92437  0.57869  Biso   1.000  H
  Al1      1.0000 0.69243  0.30757  0.50000  Biso   1.000  Al
  Al2      1.0000 0.19243  0.80757  0.00000  Biso   1.000  Al
  Al3      1.0000 0.80757  0.19243  0.00000  Biso   1.000  Al
  Al4      1.0000 0.30757  0.69243  0.50000  Biso   1.000  Al
  Al5      1.0000 0.69243  0.19243  0.75000  Biso   1.000  Al
  Al6      1.0000 0.19243  0.69243  0.25000  Biso   1.000  Al
  Al7      1.0000 0.80757  0.30757  0.25000  Biso   1.000  Al
  Al8      1.0000 0.30757  0.80757  0.75000  Biso   1.000  Al
  O33      1.0000 0.75250  0.25000  0.62500  Biso   1.000  O
  H17      1.0000 0.81494  0.25000  0.62500  Biso   1.000  H
  O34      1.0000 0.25250  0.75000  0.12500  Biso   1.000  O
  H18      1.0000 0.31494  0.75000  0.12500  Biso   1.000  H
  O35      1.0000 0.74750  0.25000  0.12500  Biso   1.000  O
  H19      1.0000 0.68506  0.25000  0.12500  Biso   1.000  H
  O36      1.0000 0.24750  0.75000  0.62500  Biso   1.000  O
  H20      1.0000 0.18506  0.75000  0.62500  Biso   1.000  H
  O37      1.0000 0.75000  0.25250  0.87500  Biso   1.000  O
  H21      1.0000 0.75000  0.31494  0.87500  Biso   1.000  H
  O38      1.0000 0.25000  0.75250  0.37500  Biso   1.000  O
  H22      1.0000 0.25000  0.81494  0.37500  Biso   1.000  H
  O39      1.0000 0.75000  0.24750  0.37500  Biso   1.000  O
  H23      1.0000 0.75000  0.18506  0.37500  Biso   1.000  H
  O40      1.0000 0.25000  0.74750  0.87500  Biso   1.000  O
  H24      1.0000 0.25000  0.68506  0.87500  Biso   1.000  H
  C49      1.0000 0.50000  0.50000  0.69931  Biso   1.000  C
  C50      1.0000 0.50000  0.50000  0.93586  Biso   1.000  C
  H25      1.0000 0.50000  0.50000  0.61013  Biso   1.000  H
  C51      1.0000 0.00000  0.00000  0.19931  Biso   1.000  C
  C52      1.0000 0.00000  0.00000  0.43586  Biso   1.000  C
  H26      1.0000 0.00000  0.00000  0.11013  Biso   1.000  H
  C53      1.0000 0.50000  0.00000  0.94931  Biso   1.000  C
  C54      1.0000 0.50000  0.00000  0.18586  Biso   1.000  C
  H27      1.0000 0.50000  0.00000  0.86013  Biso   1.000  H
  C55      1.0000 0.00000  0.50000  0.44931  Biso   1.000  C
  C56      1.0000 0.00000  0.50000  0.68586  Biso   1.000  C
  H28      1.0000 0.00000  0.50000  0.36013  Biso   1.000  H
  C57      1.0000 0.00000  0.50000  0.05069  Biso   1.000  C
  C58      1.0000 0.00000  0.50000  0.81414  Biso   1.000  C
  H29      1.0000 0.00000  0.50000  0.13987  Biso   1.000  H
  C59      1.0000 0.50000  0.00000  0.55069  Biso   1.000  C
  C60      1.0000 0.50000  0.00000  0.31414  Biso   1.000  C
  H30      1.0000 0.50000  0.00000  0.63987  Biso   1.000  H
  C61      1.0000 0.00000  0.00000  0.80069  Biso   1.000  C
  C62      1.0000 0.00000  0.00000  0.56414  Biso   1.000  C
  H31      1.0000 0.00000  0.00000  0.88987  Biso   1.000  H
  C63      1.0000 0.50000  0.50000  0.30069  Biso   1.000  C
  C64      1.0000 0.50000  0.50000  0.06414  Biso   1.000  C
  H32      1.0000 0.50000  0.50000  0.38987  Biso   1.000  H
