data_TUBCEA_clean
_audit_creation_date              2015-10-16
_audit_creation_method            'Materials Studio'
_symmetry_space_group_name_H-M    'P1'
_symmetry_Int_Tables_number       1
_symmetry_cell_setting            triclinic
loop_
_symmetry_equiv_pos_as_xyz
  x,y,z
_cell_length_a                    10.1020
_cell_length_b                    10.7690
_cell_length_c                    14.4953
_cell_angle_alpha                 98.0125
_cell_angle_beta                  95.7037
_cell_angle_gamma                 110.5350
loop_
_atom_site_label
_atom_site_type_symbol
_atom_site_fract_x
_atom_site_fract_y
_atom_site_fract_z
_atom_site_U_iso_or_equiv
_atom_site_adp_type
_atom_site_occupancy
Cd1    Cd    0.00000   0.50000   0.00000   0.01267  Uiso   1.00
Cd2    Cd    0.90262   0.36299   0.40275   0.01267  Uiso   1.00
Cd3    Cd    0.02308   0.27707   0.17915   0.01267  Uiso   1.00
Cd4    Cd    0.09738   0.63701   0.59725   0.01267  Uiso   1.00
Cd5    Cd    0.97692   0.72293   0.82085   0.01267  Uiso   1.00
H1     H     0.33120   0.05290   0.83110   0.01267  Uiso   1.00
H2     H     0.16780   0.92490   0.33580   0.01267  Uiso   1.00
H3     H     0.59790   0.58110   0.65950   0.01267  Uiso   1.00
H4     H     0.45720   0.20140   0.18720   0.01267  Uiso   1.00
H5     H     0.72860   0.53580   0.07360   0.01267  Uiso   1.00
H6     H     0.82210   0.86240   0.68640   0.01267  Uiso   1.00
H7     H     0.64840   0.49130   0.39030   0.01267  Uiso   1.00
H8     H     0.52680   0.21350   0.93260   0.01267  Uiso   1.00
H9     H     0.54280   0.79860   0.81280   0.01267  Uiso   1.00
H10    H     0.07610   0.01660   0.92760   0.01267  Uiso   1.00
H11    H     0.17790   0.13760   0.31360   0.01267  Uiso   1.00
H12    H     0.83220   0.07510   0.66420   0.01267  Uiso   1.00
H13    H     0.27140   0.46420   0.92640   0.01267  Uiso   1.00
H14    H     0.92390   0.98340   0.07240   0.01267  Uiso   1.00
H15    H     0.53090   0.46480   0.15150   0.01267  Uiso   1.00
H16    H     0.08590   0.22880   0.91650   0.01267  Uiso   1.00
H17    H     0.40210   0.41890   0.34050   0.01267  Uiso   1.00
H18    H     0.35160   0.50870   0.60970   0.01267  Uiso   1.00
H19    H     0.66880   0.94710   0.16890   0.01267  Uiso   1.00
H20    H     0.46910   0.53520   0.84850   0.01267  Uiso   1.00
H21    H     0.27130   0.04320   0.07320   0.01267  Uiso   1.00
H22    H     0.47320   0.78650   0.06740   0.01267  Uiso   1.00
H23    H     0.72870   0.95680   0.92680   0.01267  Uiso   1.00
H24    H     0.91410   0.77120   0.08350   0.01267  Uiso   1.00
C1     C     0.35380   0.46340   0.47100   0.01267  Uiso   1.00
C2     C     0.48190   0.52080   0.91000   0.01267  Uiso   1.00
C3     C     0.29990   0.80870   0.73910   0.01267  Uiso   1.00
C4     C     0.64620   0.53660   0.52900   0.01267  Uiso   1.00
C5     C     0.03450   0.82200   0.21410   0.01267  Uiso   1.00
C6     C     0.58750   0.96600   0.15260   0.01267  Uiso   1.00
C7     C     0.87740   0.93800   0.73160   0.01267  Uiso   1.00
C8     C     0.36260   0.47850   0.95650   0.01267  Uiso   1.00
C9     C     0.58230   0.08820   0.18910   0.01267  Uiso   1.00
C10    C     0.34870   0.02210   0.09580   0.01267  Uiso   1.00
C11    C     0.52910   0.12960   0.90890   0.01267  Uiso   1.00
C12    C     0.46210   0.11910   0.16210   0.01267  Uiso   1.00
C13    C     0.80280   0.57790   0.56130   0.01267  Uiso   1.00
C14    C     0.96550   0.17800   0.78590   0.01267  Uiso   1.00
C15    C     0.02630   0.02910   0.87440   0.01267  Uiso   1.00
C16    C     0.12260   0.06200   0.26840   0.01267  Uiso   1.00
C17    C     0.65130   0.97790   0.90420   0.01267  Uiso   1.00
C18    C     0.22180   0.79410   0.99800   0.01267  Uiso   1.00
C19    C     0.25670   0.40420   0.09710   0.01267  Uiso   1.00
C20    C     0.58830   0.49330   0.43460   0.01267  Uiso   1.00
C21    C     0.88310   0.06560   0.71810   0.01267  Uiso   1.00
C22    C     0.41170   0.50670   0.56540   0.01267  Uiso   1.00
C23    C     0.38440   0.45870   0.04700   0.01267  Uiso   1.00
C24    C     0.98790   0.31480   0.77040   0.01267  Uiso   1.00
C25    C     0.03470   0.15670   0.86750   0.01267  Uiso   1.00
C26    C     0.74330   0.59580   0.90290   0.01267  Uiso   1.00
C27    C     0.51810   0.47920   0.09000   0.01267  Uiso   1.00
C28    C     0.70010   0.19130   0.26090   0.01267  Uiso   1.00
C29    C     0.55920   0.54760   0.59610   0.01267  Uiso   1.00
C30    C     0.53790   0.88090   0.83790   0.01267  Uiso   1.00
C31    C     0.47090   0.87040   0.09110   0.01267  Uiso   1.00
C32    C     0.41250   0.03400   0.84740   0.01267  Uiso   1.00
C33    C     0.77820   0.20590   0.00200   0.01267  Uiso   1.00
C34    C     0.35100   0.89990   0.06490   0.01267  Uiso   1.00
C35    C     0.11690   0.93440   0.28190   0.01267  Uiso   1.00
C36    C     0.01210   0.68520   0.22960   0.01267  Uiso   1.00
C37    C     0.64900   0.10010   0.93510   0.01267  Uiso   1.00
C38    C     0.61560   0.54130   0.95300   0.01267  Uiso   1.00
C39    C     0.63740   0.52150   0.04350   0.01267  Uiso   1.00
C40    C     0.41770   0.91180   0.81090   0.01267  Uiso   1.00
C41    C     0.96530   0.84330   0.13250   0.01267  Uiso   1.00
C42    C     0.19720   0.42210   0.43870   0.01267  Uiso   1.00
C43    C     0.97370   0.97090   0.12560   0.01267  Uiso   1.00
C44    C     0.44080   0.45240   0.40390   0.01267  Uiso   1.00
N1     N     0.99520   0.65140   0.31410   0.01267  Uiso   1.00
N2     N     0.98240   0.47730   0.21540   0.01267  Uiso   1.00
N3     N     0.02220   0.47880   0.69660   0.01267  Uiso   1.00
N4     N     0.97780   0.52120   0.30340   0.01267  Uiso   1.00
N5     N     0.99530   0.42120   0.83420   0.01267  Uiso   1.00
N6     N     0.95080   0.92310   0.80910   0.01267  Uiso   1.00
N7     N     0.01760   0.52270   0.78460   0.01267  Uiso   1.00
N8     N     0.00480   0.34860   0.68590   0.01267  Uiso   1.00
N9     N     0.00470   0.57880   0.16580   0.01267  Uiso   1.00
N10    N     0.04920   0.07690   0.19090   0.01267  Uiso   1.00
O1     O     0.12570   0.46360   0.49680   0.01267  Uiso   1.00
O2     O     0.72570   0.62600   0.82380   0.01267  Uiso   1.00
O3     O     0.32900   0.73040   0.68000   0.01267  Uiso   1.00
O4     O     0.17200   0.80870   0.73530   0.01267  Uiso   1.00
O5     O     0.82800   0.19130   0.26470   0.01267  Uiso   1.00
O6     O     0.79900   0.32670   0.99920   0.01267  Uiso   1.00
O7     O     0.20100   0.67330   0.00080   0.01267  Uiso   1.00
O8     O     0.85320   0.16350   0.05260   0.01267  Uiso   1.00
O9     O     0.86410   0.65170   0.63870   0.01267  Uiso   1.00
O10    O     0.14680   0.83650   0.94740   0.01267  Uiso   1.00
O11    O     0.13590   0.34830   0.36130   0.01267  Uiso   1.00
O12    O     0.27430   0.37400   0.17620   0.01267  Uiso   1.00
O13    O     0.67100   0.26960   0.32000   0.01267  Uiso   1.00
O14    O     0.13220   0.38620   0.05320   0.01267  Uiso   1.00
O15    O     0.87430   0.53640   0.50320   0.01267  Uiso   1.00
O16    O     0.86780   0.61380   0.94680   0.01267  Uiso   1.00
