data_TUBLIN_clean
_audit_creation_date              2015-10-16
_audit_creation_method            'Materials Studio'
_symmetry_space_group_name_H-M    'P1'
_symmetry_Int_Tables_number       1
_symmetry_cell_setting            triclinic
loop_
_symmetry_equiv_pos_as_xyz
  x,y,z
_cell_length_a                    10.1280
_cell_length_b                    12.6480
_cell_length_c                    15.4670
_cell_angle_alpha                 106.9160
_cell_angle_beta                  104.1220
_cell_angle_gamma                 104.2470
loop_
_atom_site_label
_atom_site_type_symbol
_atom_site_fract_x
_atom_site_fract_y
_atom_site_fract_z
_atom_site_U_iso_or_equiv
_atom_site_adp_type
_atom_site_occupancy
Cd1    Cd    0.53107   0.03352   0.14654   0.01267  Uiso   1.00
Cd2    Cd    0.46893   0.96648   0.85346   0.01267  Uiso   1.00
H1     H     0.78720   0.87570   0.87770   0.01267  Uiso   1.00
H2     H     0.47820   0.27130   0.24090   0.01267  Uiso   1.00
H3     H     0.82220   0.55990   0.32270   0.01267  Uiso   1.00
H4     H     0.60790   0.29350   0.81470   0.01267  Uiso   1.00
H5     H     0.83330   0.23930   0.20250   0.01267  Uiso   1.00
H6     H     0.54230   0.23630   0.70200   0.01267  Uiso   1.00
H7     H     0.16670   0.76070   0.79750   0.01267  Uiso   1.00
H8     H     0.13490   0.18310   0.75050   0.01267  Uiso   1.00
H9     H     0.01480   0.38880   0.74570   0.01267  Uiso   1.00
H10    H     0.98520   0.61120   0.25430   0.01267  Uiso   1.00
H11    H     0.62990   0.57690   0.98410   0.01267  Uiso   1.00
H12    H     0.99580   0.10030   0.14850   0.01267  Uiso   1.00
H13    H     0.86510   0.81690   0.24950   0.01267  Uiso   1.00
H14    H     0.33120   0.28540   0.71590   0.01267  Uiso   1.00
H15    H     0.35220   0.18340   0.75020   0.01267  Uiso   1.00
H16    H     0.83710   0.59880   0.94410   0.01267  Uiso   1.00
H17    H     0.21620   0.90100   0.13000   0.01267  Uiso   1.00
H18    H     0.66880   0.71460   0.28410   0.01267  Uiso   1.00
H19    H     0.06890   0.83950   0.20590   0.01267  Uiso   1.00
H20    H     0.72420   0.41590   0.07070   0.01267  Uiso   1.00
H21    H     0.16290   0.40120   0.05590   0.01267  Uiso   1.00
H22    H     0.92480   0.67300   0.72860   0.01267  Uiso   1.00
H23    H     0.29910   0.01520   0.40180   0.01267  Uiso   1.00
H24    H     0.29790   0.99350   0.54510   0.01267  Uiso   1.00
H25    H     0.70210   0.00650   0.45490   0.01267  Uiso   1.00
H26    H     0.05880   0.56290   0.95920   0.01267  Uiso   1.00
H27    H     0.27580   0.58410   0.92930   0.01267  Uiso   1.00
H28    H     0.78840   0.31010   0.75120   0.01267  Uiso   1.00
H29    H     0.29930   0.40340   0.26330   0.01267  Uiso   1.00
H30    H     0.52180   0.72870   0.75910   0.01267  Uiso   1.00
H31    H     0.78380   0.09900   0.87000   0.01267  Uiso   1.00
H32    H     0.07520   0.32700   0.27140   0.01267  Uiso   1.00
H33    H     0.37010   0.42310   0.01590   0.01267  Uiso   1.00
H34    H     0.17780   0.44010   0.67730   0.01267  Uiso   1.00
H35    H     0.93110   0.16050   0.79410   0.01267  Uiso   1.00
H36    H     0.70090   0.98480   0.59820   0.01267  Uiso   1.00
H37    H     0.00420   0.89970   0.85150   0.01267  Uiso   1.00
H38    H     0.45950   0.76590   0.00550   0.01267  Uiso   1.00
H39    H     0.41690   0.52570   0.69350   0.01267  Uiso   1.00
H40    H     0.54050   0.23410   0.99450   0.01267  Uiso   1.00
H41    H     0.39210   0.70650   0.18530   0.01267  Uiso   1.00
H42    H     0.70070   0.59660   0.73670   0.01267  Uiso   1.00
H43    H     0.21280   0.12430   0.12230   0.01267  Uiso   1.00
H44    H     0.21160   0.68990   0.24880   0.01267  Uiso   1.00
H45    H     0.45770   0.76370   0.29800   0.01267  Uiso   1.00
H46    H     0.64780   0.81660   0.24980   0.01267  Uiso   1.00
H47    H     0.58310   0.47430   0.30650   0.01267  Uiso   1.00
H48    H     0.94120   0.43710   0.04080   0.01267  Uiso   1.00
C1     C     0.37950   0.99590   0.52720   0.01267  Uiso   1.00
C2     C     0.85900   0.77180   0.18830   0.01267  Uiso   1.00
C3     C     0.27220   0.30980   0.87730   0.01267  Uiso   1.00
C4     C     0.50160   0.01400   0.41390   0.01267  Uiso   1.00
C5     C     0.28120   0.37200   0.97030   0.01267  Uiso   1.00
C6     C     0.15700   0.35740   0.99440   0.01267  Uiso   1.00
C7     C     0.22190   0.52150   0.70490   0.01267  Uiso   1.00
C8     C     0.02340   0.27870   0.92860   0.01267  Uiso   1.00
C9     C     0.62050   0.00410   0.47280   0.01267  Uiso   1.00
C10    C     0.18420   0.61600   0.25260   0.01267  Uiso   1.00
C11    C     0.04860   0.56910   0.25680   0.01267  Uiso   1.00
C12    C     0.99470   0.53910   0.73550   0.01267  Uiso   1.00
C13    C     0.72120   0.44520   0.74610   0.01267  Uiso   1.00
C14    C     0.39290   0.26670   0.76360   0.01267  Uiso   1.00
C15    C     0.14100   0.22820   0.81170   0.01267  Uiso   1.00
C16    C     0.97660   0.72130   0.07140   0.01267  Uiso   1.00
C17    C     0.85490   0.40890   0.26290   0.01267  Uiso   1.00
C18    C     0.45860   0.70510   0.24160   0.01267  Uiso   1.00
C19    C     0.00280   0.94090   0.91160   0.01267  Uiso   1.00
C20    C     0.77290   0.16390   0.91110   0.01267  Uiso   1.00
C21    C     0.42610   0.69450   0.75340   0.01267  Uiso   1.00
C22    C     0.21720   0.71240   0.77570   0.01267  Uiso   1.00
C23    C     0.23630   0.44580   0.26160   0.01267  Uiso   1.00
C24    C     0.89800   0.59970   0.73340   0.01267  Uiso   1.00
C25    C     0.61970   0.99070   0.55880   0.01267  Uiso   1.00
C26    C     0.57390   0.30550   0.24660   0.01267  Uiso   1.00
C27    C     0.38030   0.00930   0.44120   0.01267  Uiso   1.00
C28    C     0.72780   0.69020   0.12270   0.01267  Uiso   1.00
C29    C     0.49840   0.98600   0.58610   0.01267  Uiso   1.00
C30    C     0.87280   0.92560   0.92750   0.01267  Uiso   1.00
C31    C     0.26220   0.64750   0.97020   0.01267  Uiso   1.00
C32    C     0.13140   0.01660   0.98360   0.01267  Uiso   1.00
C33    C     0.73780   0.35250   0.02980   0.01267  Uiso   1.00
C34    C     0.63640   0.42780   0.28630   0.01267  Uiso   1.00
C35    C     0.50030   0.02610   0.31950   0.01267  Uiso   1.00
C36    C     0.49970   0.97390   0.68050   0.01267  Uiso   1.00
C37    C     0.81580   0.38400   0.74740   0.01267  Uiso   1.00
C38    C     0.71880   0.62800   0.02970   0.01267  Uiso   1.00
C39    C     0.54140   0.29490   0.75840   0.01267  Uiso   1.00
C40    C     0.77810   0.47850   0.29510   0.01267  Uiso   1.00
C41    C     0.22710   0.83610   0.08890   0.01267  Uiso   1.00
C42    C     0.98080   0.78520   0.16140   0.01267  Uiso   1.00
C43    C     0.27880   0.55480   0.25390   0.01267  Uiso   1.00
C44    C     0.84300   0.64260   0.00560   0.01267  Uiso   1.00
C45    C     0.11150   0.73070   0.04730   0.01267  Uiso   1.00
C46    C     0.12720   0.07440   0.07250   0.01267  Uiso   1.00
C47    C     0.14510   0.59110   0.73710   0.01267  Uiso   1.00
C48    C     0.13260   0.63570   0.98780   0.01267  Uiso   1.00
C49    C     0.10200   0.40030   0.26660   0.01267  Uiso   1.00
C50    C     0.95140   0.43090   0.74320   0.01267  Uiso   1.00
C51    C     0.72590   0.97100   0.03300   0.01267  Uiso   1.00
C52    C     0.86740   0.36430   0.01220   0.01267  Uiso   1.00
C53    C     0.01920   0.21480   0.83860   0.01267  Uiso   1.00
C54    C     0.86860   0.98340   0.01640   0.01267  Uiso   1.00
C55    C     0.99720   0.05910   0.08840   0.01267  Uiso   1.00
C56    C     0.37130   0.75720   0.01570   0.01267  Uiso   1.00
C57    C     0.76370   0.55420   0.73840   0.01267  Uiso   1.00
C58    C     0.62870   0.24280   0.98430   0.01267  Uiso   1.00
C59    C     0.60710   0.73330   0.23640   0.01267  Uiso   1.00
C60    C     0.36360   0.57220   0.71370   0.01267  Uiso   1.00
C61    C     0.78280   0.28760   0.22430   0.01267  Uiso   1.00
C62    C     0.27410   0.02900   0.96700   0.01267  Uiso   1.00
C63    C     0.88850   0.26930   0.95270   0.01267  Uiso   1.00
C64    C     0.00530   0.46090   0.26450   0.01267  Uiso   1.00
N1     N     0.35380   0.76390   0.78330   0.01267  Uiso   1.00
N2     N     0.64610   0.15050   0.92690   0.01267  Uiso   1.00
N3     N     0.35390   0.84950   0.07310   0.01267  Uiso   1.00
N4     N     0.64620   0.23610   0.21670   0.01267  Uiso   1.00
O1     O     0.73240   0.02080   0.11830   0.01267  Uiso   1.00
O2     O     0.59370   0.94120   0.72450   0.01267  Uiso   1.00
O3     O     0.40630   0.05880   0.27550   0.01267  Uiso   1.00
O4     O     0.41290   0.59140   0.24650   0.01267  Uiso   1.00
O5     O     0.39940   0.33430   0.85850   0.01267  Uiso   1.00
O6     O     0.60060   0.66570   0.14150   0.01267  Uiso   1.00
O7     O     0.39000   0.08270   0.03720   0.01267  Uiso   1.00
O8     O     0.39990   0.99540   0.71140   0.01267  Uiso   1.00
O9     O     0.26760   0.97920   0.88170   0.01267  Uiso   1.00
O10    O     0.61000   0.91730   0.96280   0.01267  Uiso   1.00
O11    O     0.58710   0.40860   0.75350   0.01267  Uiso   1.00
O12    O     0.60010   0.00460   0.28860   0.01267  Uiso   1.00
