data_image0
_cell_length_a       7.6957
_cell_length_b       10.2182
_cell_length_c       15.9408
_cell_angle_alpha    86.945
_cell_angle_beta     86.035
_cell_angle_gamma    76.831

_symmetry_space_group_name_H-M    "P 1"
_symmetry_int_tables_number       1

loop_
  _symmetry_equiv_pos_as_xyz
  'x, y, z'

loop_
  _atom_site_label
  _atom_site_occupancy
  _atom_site_fract_x
  _atom_site_fract_y
  _atom_site_fract_z
  _atom_site_thermal_displace_type
  _atom_site_B_iso_or_equiv
  _atom_site_type_symbol
  Tb1      1.0000 0.35401  0.33674  0.06341  Biso   1.000  Tb
  Tb2      1.0000 0.61275  0.87052  0.32443  Biso   1.000  Tb
  O1       1.0000 0.21020  0.29600  0.77690  Biso   1.000  O
  O2       1.0000 0.10490  0.07100  0.70580  Biso   1.000  O
  O3       1.0000 0.48940  0.35480  0.65150  Biso   1.000  O
  O4       1.0000 0.63860  0.18600  0.72860  Biso   1.000  O
  O5       1.0000 0.75420  0.44400  0.88250  Biso   1.000  O
  O6       1.0000 0.58850  0.33660  0.96860  Biso   1.000  O
  O7       1.0000 0.78500  0.51620  0.04740  Biso   1.000  O
  O8       1.0000 0.03910  0.37120  0.07820  Biso   1.000  O
  O9       1.0000 0.33880  0.96940  0.57680  Biso   1.000  O
  O10      1.0000 0.40650  0.89050  0.44680  Biso   1.000  O
  O11      1.0000 0.39640  0.09050  0.29990  Biso   1.000  O
  O12      1.0000 0.61360  0.95440  0.18160  Biso   1.000  O
  O13      1.0000 0.29080  0.25180  0.20250  Biso   1.000  O
  O14      1.0000 0.49910  0.10700  0.08320  Biso   1.000  O
  C1       1.0000 0.06010  0.48800  0.70520  Biso   1.000  C
  H1       1.0000 0.16200  0.52570  0.70580  Biso   1.000  H
  C2       1.0000 0.91120  0.55740  0.66480  Biso   1.000  C
  H2       1.0000 0.90870  0.64420  0.63970  Biso   1.000  H
  C3       1.0000 0.76630  0.49970  0.66140  Biso   1.000  C
  H3       1.0000 0.66620  0.54430  0.63110  Biso   1.000  H
  C4       1.0000 0.76740  0.37650  0.70220  Biso   1.000  C
  C5       1.0000 0.91450  0.31420  0.74680  Biso   1.000  C
  C6       1.0000 0.62100  0.30130  0.69430  Biso   1.000  C
  C7       1.0000 0.02320  0.96280  0.82810  Biso   1.000  C
  H4       1.0000 0.09590  0.88030  0.80940  Biso   1.000  H
  C8       1.0000 0.92310  0.96600  0.90330  Biso   1.000  C
  H5       1.0000 0.92370  0.88560  0.93630  Biso   1.000  H
  C9       1.0000 0.82210  0.08750  0.93000  Biso   1.000  C
  H6       1.0000 0.75270  0.09070  0.98180  Biso   1.000  H
  C10      1.0000 0.82030  0.20420  0.88260  Biso   1.000  C
  C11      1.0000 0.91880  0.19770  0.80590  Biso   1.000  C
  C12      1.0000 0.71210  0.34000  0.91210  Biso   1.000  C
  C13      1.0000 0.95000  0.46690  0.03620  Biso   1.000  C
  C14      1.0000 0.42730  0.95880  0.50650  Biso   1.000  C
  C15      1.0000 0.51050  0.06080  0.15840  Biso   1.000  C
  C16      1.0000 0.38830  0.14270  0.22650  Biso   1.000  C
  N1       1.0000 0.06150  0.36770  0.74350  Biso   1.000  N
  N2       1.0000 0.01760  0.07730  0.78130  Biso   1.000  N
  Tb3      1.0000 0.64599  0.66326  0.93659  Biso   1.000  Tb
  Tb4      1.0000 0.38725  0.12948  0.67557  Biso   1.000  Tb
  O15      1.0000 0.78980  0.70400  0.22310  Biso   1.000  O
  O16      1.0000 0.89510  0.92900  0.29420  Biso   1.000  O
  O17      1.0000 0.51060  0.64520  0.34850  Biso   1.000  O
  O18      1.0000 0.36140  0.81400  0.27140  Biso   1.000  O
  O19      1.0000 0.24580  0.55600  0.11750  Biso   1.000  O
  O20      1.0000 0.41150  0.66340  0.03140  Biso   1.000  O
  O21      1.0000 0.21500  0.48380  0.95260  Biso   1.000  O
  O22      1.0000 0.96090  0.62880  0.92180  Biso   1.000  O
  O23      1.0000 0.66120  0.03060  0.42320  Biso   1.000  O
  O24      1.0000 0.59350  0.10950  0.55320  Biso   1.000  O
  O25      1.0000 0.60360  0.90950  0.70010  Biso   1.000  O
  O26      1.0000 0.38640  0.04560  0.81840  Biso   1.000  O
  O27      1.0000 0.70920  0.74820  0.79750  Biso   1.000  O
  O28      1.0000 0.50090  0.89300  0.91680  Biso   1.000  O
  C17      1.0000 0.93990  0.51200  0.29480  Biso   1.000  C
  H7       1.0000 0.83800  0.47430  0.29420  Biso   1.000  H
  C18      1.0000 0.08880  0.44260  0.33520  Biso   1.000  C
  H8       1.0000 0.09130  0.35580  0.36030  Biso   1.000  H
  C19      1.0000 0.23370  0.50030  0.33860  Biso   1.000  C
  H9       1.0000 0.33380  0.45570  0.36890  Biso   1.000  H
  C20      1.0000 0.23260  0.62350  0.29780  Biso   1.000  C
  C21      1.0000 0.08550  0.68580  0.25320  Biso   1.000  C
  C22      1.0000 0.37900  0.69870  0.30570  Biso   1.000  C
  C23      1.0000 0.97680  0.03720  0.17190  Biso   1.000  C
  H10      1.0000 0.90410  0.11970  0.19060  Biso   1.000  H
  C24      1.0000 0.07690  0.03400  0.09670  Biso   1.000  C
  H11      1.0000 0.07630  0.11440  0.06370  Biso   1.000  H
  C25      1.0000 0.17790  0.91250  0.07000  Biso   1.000  C
  H12      1.0000 0.24730  0.90930  0.01820  Biso   1.000  H
  C26      1.0000 0.17970  0.79580  0.11740  Biso   1.000  C
  C27      1.0000 0.08120  0.80230  0.19410  Biso   1.000  C
  C28      1.0000 0.28790  0.66000  0.08790  Biso   1.000  C
  C29      1.0000 0.05000  0.53310  0.96380  Biso   1.000  C
  C30      1.0000 0.57270  0.04120  0.49350  Biso   1.000  C
  C31      1.0000 0.48950  0.93920  0.84160  Biso   1.000  C
  C32      1.0000 0.61170  0.85730  0.77350  Biso   1.000  C
  N3       1.0000 0.93850  0.63230  0.25650  Biso   1.000  N
  N4       1.0000 0.98240  0.92270  0.21870  Biso   1.000  N
