data_image0
_cell_length_a       17.088
_cell_length_b       14.769
_cell_length_c       14.165
_cell_angle_alpha    90
_cell_angle_beta     116.039
_cell_angle_gamma    90

_symmetry_space_group_name_H-M    "P 1"
_symmetry_int_tables_number       1

loop_
  _symmetry_equiv_pos_as_xyz
  'x, y, z'

loop_
  _atom_site_label
  _atom_site_occupancy
  _atom_site_fract_x
  _atom_site_fract_y
  _atom_site_fract_z
  _atom_site_thermal_displace_type
  _atom_site_B_iso_or_equiv
  _atom_site_type_symbol
  Ni1      1.0000 0.79498  0.00151  0.99805  Biso   1.000  Ni
  Ni2      1.0000 0.80473  0.01593  0.25453  Biso   1.000  Ni
  O1       1.0000 0.48490  0.91690  0.35520  Biso   1.000  O
  O2       1.0000 0.86830  0.98670  0.91520  Biso   1.000  O
  N1       1.0000 0.39920  0.92620  0.29220  Biso   1.000  N
  N2       1.0000 0.95230  0.97620  0.96920  Biso   1.000  N
  C1       1.0000 0.35050  0.85100  0.26640  Biso   1.000  C
  H1       1.0000 0.37530  0.79450  0.29020  Biso   1.000  H
  C2       1.0000 0.26140  0.86000  0.20300  Biso   1.000  C
  H2       1.0000 0.22620  0.80870  0.18530  Biso   1.000  H
  C3       1.0000 0.22440  0.94320  0.16620  Biso   1.000  C
  C4       1.0000 0.27570  0.01500  0.19080  Biso   1.000  C
  H3       1.0000 0.25260  0.07140  0.16320  Biso   1.000  H
  C5       1.0000 0.36610  0.00660  0.25930  Biso   1.000  C
  H4       1.0000 0.40130  0.05770  0.28060  Biso   1.000  H
  C6       1.0000 0.00460  0.04850  0.00700  Biso   1.000  C
  H5       1.0000 0.98080  0.10620  0.99010  Biso   1.000  H
  C7       1.0000 0.09150  0.03960  0.06940  Biso   1.000  C
  H6       1.0000 0.12620  0.09110  0.09270  Biso   1.000  H
  C8       1.0000 0.12860  0.95560  0.09820  Biso   1.000  C
  C9       1.0000 0.07500  0.88120  0.05700  Biso   1.000  C
  H7       1.0000 0.09900  0.82350  0.07280  Biso   1.000  H
  C10      1.0000 0.98820  0.89000  0.99430  Biso   1.000  C
  H8       1.0000 0.95330  0.83900  0.96840  Biso   1.000  H
  O3       1.0000 0.38530  0.41100  0.59030  Biso   1.000  O
  O4       1.0000 0.38840  0.38880  0.74810  Biso   1.000  O
  O5       1.0000 0.72950  0.10850  0.90580  Biso   1.000  O
  O6       1.0000 0.71760  0.08050  0.74520  Biso   1.000  O
  C11      1.0000 0.64610  0.27980  0.81420  Biso   1.000  C
  C12      1.0000 0.73030  0.31110  0.88690  Biso   1.000  C
  H9       1.0000 0.77720  0.27150  0.90840  Biso   1.000  H
  C13      1.0000 0.74400  0.39720  0.92560  Biso   1.000  C
  H10      1.0000 0.79930  0.41530  0.97390  Biso   1.000  H
  C14      1.0000 0.67330  0.45910  0.89190  Biso   1.000  C
  H11      1.0000 0.68260  0.51830  0.91690  Biso   1.000  H
  C15      1.0000 0.59240  0.43220  0.82330  Biso   1.000  C
  H12      1.0000 0.54670  0.47360  0.80150  Biso   1.000  H
  C16      1.0000 0.57610  0.34430  0.78510  Biso   1.000  C
  C17      1.0000 0.49100  0.31520  0.70850  Biso   1.000  C
  C18      1.0000 0.48240  0.23080  0.66170  Biso   1.000  C
  H13      1.0000 0.42860  0.21360  0.60880  Biso   1.000  H
  C19      1.0000 0.55000  0.17350  0.69100  Biso   1.000  C
  H14      1.0000 0.54180  0.11830  0.65630  Biso   1.000  H
  C20      1.0000 0.63020  0.19300  0.76970  Biso   1.000  C
  C21      1.0000 0.41430  0.37880  0.67890  Biso   1.000  C
  C22      1.0000 0.70000  0.12370  0.80950  Biso   1.000  C
  O7       1.0000 0.88900  0.91840  0.25440  Biso   1.000  O
  O8       1.0000 0.85970  0.89630  0.08640  Biso   1.000  O
  O9       1.0000 0.22510  0.61690  0.26150  Biso   1.000  O
  O10      1.0000 0.20350  0.58670  0.40350  Biso   1.000  O
  C23      1.0000 0.96000  0.72500  0.15820  Biso   1.000  C
  C24      1.0000 0.88160  0.70040  0.07050  Biso   1.000  C
  H15      1.0000 0.83390  0.73910  0.04820  Biso   1.000  H
  C25      1.0000 0.87480  0.62210  0.01870  Biso   1.000  C
  H16      1.0000 0.82350  0.60740  0.96030  Biso   1.000  H
  C26      1.0000 0.94800  0.56180  0.05510  Biso   1.000  C
  H17      1.0000 0.94350  0.50730  0.02020  Biso   1.000  H
  C27      1.0000 0.02190  0.58220  0.13770  Biso   1.000  C
  H18      1.0000 0.06790  0.54120  0.16080  Biso   1.000  H
  C28      1.0000 0.03220  0.66790  0.19250  Biso   1.000  C
  C29      1.0000 0.10970  0.68860  0.28090  Biso   1.000  C
  C30      1.0000 0.11610  0.76310  0.33690  Biso   1.000  C
  H19      1.0000 0.16700  0.77460  0.39740  Biso   1.000  H
  C31      1.0000 0.04420  0.82630  0.30420  Biso   1.000  C
  H20      1.0000 0.04950  0.87920  0.34200  Biso   1.000  H
  C32      1.0000 0.96810  0.80740  0.21680  Biso   1.000  C
  C33      1.0000 0.18720  0.62630  0.31850  Biso   1.000  C
  C34      1.0000 0.89870  0.88160  0.18160  Biso   1.000  C
  O11      1.0000 0.72640  0.02270  0.08960  Biso   1.000  O
  H21      1.0000 0.68670  0.98270  0.07290  Biso   1.000  H
  H22      1.0000 0.70160  0.07410  0.07430  Biso   1.000  H
  Ni3      1.0000 0.29498  0.50151  0.99805  Biso   1.000  Ni
  Ni4      1.0000 0.30473  0.51593  0.25453  Biso   1.000  Ni
  O12      1.0000 0.98490  0.41690  0.35520  Biso   1.000  O
  O13      1.0000 0.36830  0.48670  0.91520  Biso   1.000  O
  N3       1.0000 0.89920  0.42620  0.29220  Biso   1.000  N
  N4       1.0000 0.45230  0.47620  0.96920  Biso   1.000  N
  C35      1.0000 0.85050  0.35100  0.26640  Biso   1.000  C
  H23      1.0000 0.87530  0.29450  0.29020  Biso   1.000  H
  C36      1.0000 0.76140  0.36000  0.20300  Biso   1.000  C
  H24      1.0000 0.72620  0.30870  0.18530  Biso   1.000  H
  C37      1.0000 0.72440  0.44320  0.16620  Biso   1.000  C
  C38      1.0000 0.77570  0.51500  0.19080  Biso   1.000  C
  H25      1.0000 0.75260  0.57140  0.16320  Biso   1.000  H
  C39      1.0000 0.86610  0.50660  0.25930  Biso   1.000  C
  H26      1.0000 0.90130  0.55770  0.28060  Biso   1.000  H
  C40      1.0000 0.50460  0.54850  0.00700  Biso   1.000  C
  H27      1.0000 0.48080  0.60620  0.99010  Biso   1.000  H
  C41      1.0000 0.59150  0.53960  0.06940  Biso   1.000  C
  H28      1.0000 0.62620  0.59110  0.09270  Biso   1.000  H
  C42      1.0000 0.62860  0.45560  0.09820  Biso   1.000  C
  C43      1.0000 0.57500  0.38120  0.05700  Biso   1.000  C
  H29      1.0000 0.59900  0.32350  0.07280  Biso   1.000  H
  C44      1.0000 0.48820  0.39000  0.99430  Biso   1.000  C
  H30      1.0000 0.45330  0.33900  0.96840  Biso   1.000  H
  O14      1.0000 0.88530  0.91100  0.59030  Biso   1.000  O
  O15      1.0000 0.88840  0.88880  0.74810  Biso   1.000  O
  O16      1.0000 0.22950  0.60850  0.90580  Biso   1.000  O
  O17      1.0000 0.21760  0.58050  0.74520  Biso   1.000  O
  C45      1.0000 0.14610  0.77980  0.81420  Biso   1.000  C
  C46      1.0000 0.23030  0.81110  0.88690  Biso   1.000  C
  H31      1.0000 0.27720  0.77150  0.90840  Biso   1.000  H
  C47      1.0000 0.24400  0.89720  0.92560  Biso   1.000  C
  H32      1.0000 0.29930  0.91530  0.97390  Biso   1.000  H
  C48      1.0000 0.17330  0.95910  0.89190  Biso   1.000  C
  H33      1.0000 0.18260  0.01830  0.91690  Biso   1.000  H
  C49      1.0000 0.09240  0.93220  0.82330  Biso   1.000  C
  H34      1.0000 0.04670  0.97360  0.80150  Biso   1.000  H
  C50      1.0000 0.07610  0.84430  0.78510  Biso   1.000  C
  C51      1.0000 0.99100  0.81520  0.70850  Biso   1.000  C
  C52      1.0000 0.98240  0.73080  0.66170  Biso   1.000  C
  H35      1.0000 0.92860  0.71360  0.60880  Biso   1.000  H
  C53      1.0000 0.05000  0.67350  0.69100  Biso   1.000  C
  H36      1.0000 0.04180  0.61830  0.65630  Biso   1.000  H
  C54      1.0000 0.13020  0.69300  0.76970  Biso   1.000  C
  C55      1.0000 0.91430  0.87880  0.67890  Biso   1.000  C
  C56      1.0000 0.20000  0.62370  0.80950  Biso   1.000  C
  O18      1.0000 0.38900  0.41840  0.25440  Biso   1.000  O
  O19      1.0000 0.35970  0.39630  0.08640  Biso   1.000  O
  O20      1.0000 0.72510  0.11690  0.26150  Biso   1.000  O
  O21      1.0000 0.70350  0.08670  0.40350  Biso   1.000  O
  C57      1.0000 0.46000  0.22500  0.15820  Biso   1.000  C
  C58      1.0000 0.38160  0.20040  0.07050  Biso   1.000  C
  H37      1.0000 0.33390  0.23910  0.04820  Biso   1.000  H
  C59      1.0000 0.37480  0.12210  0.01870  Biso   1.000  C
  H38      1.0000 0.32350  0.10740  0.96030  Biso   1.000  H
  C60      1.0000 0.44800  0.06180  0.05510  Biso   1.000  C
  H39      1.0000 0.44350  0.00730  0.02020  Biso   1.000  H
  C61      1.0000 0.52190  0.08220  0.13770  Biso   1.000  C
  H40      1.0000 0.56790  0.04120  0.16080  Biso   1.000  H
  C62      1.0000 0.53220  0.16790  0.19250  Biso   1.000  C
  C63      1.0000 0.60970  0.18860  0.28090  Biso   1.000  C
  C64      1.0000 0.61610  0.26310  0.33690  Biso   1.000  C
  H41      1.0000 0.66700  0.27460  0.39740  Biso   1.000  H
  C65      1.0000 0.54420  0.32630  0.30420  Biso   1.000  C
  H42      1.0000 0.54950  0.37920  0.34200  Biso   1.000  H
  C66      1.0000 0.46810  0.30740  0.21680  Biso   1.000  C
  C67      1.0000 0.68720  0.12630  0.31850  Biso   1.000  C
  C68      1.0000 0.39870  0.38160  0.18160  Biso   1.000  C
  O22      1.0000 0.22640  0.52270  0.08960  Biso   1.000  O
  H43      1.0000 0.18670  0.48270  0.07290  Biso   1.000  H
  H44      1.0000 0.20160  0.57410  0.07430  Biso   1.000  H
  Ni5      1.0000 0.79498  0.99849  0.49805  Biso   1.000  Ni
  Ni6      1.0000 0.80473  0.98407  0.75453  Biso   1.000  Ni
  O23      1.0000 0.48490  0.08310  0.85520  Biso   1.000  O
  O24      1.0000 0.86830  0.01330  0.41520  Biso   1.000  O
  N5       1.0000 0.39920  0.07380  0.79220  Biso   1.000  N
  N6       1.0000 0.95230  0.02380  0.46920  Biso   1.000  N
  C69      1.0000 0.35050  0.14900  0.76640  Biso   1.000  C
  H45      1.0000 0.37530  0.20550  0.79020  Biso   1.000  H
  C70      1.0000 0.26140  0.14000  0.70300  Biso   1.000  C
  H46      1.0000 0.22620  0.19130  0.68530  Biso   1.000  H
  C71      1.0000 0.22440  0.05680  0.66620  Biso   1.000  C
  C72      1.0000 0.27570  0.98500  0.69080  Biso   1.000  C
  H47      1.0000 0.25260  0.92860  0.66320  Biso   1.000  H
  C73      1.0000 0.36610  0.99340  0.75930  Biso   1.000  C
  H48      1.0000 0.40130  0.94230  0.78060  Biso   1.000  H
  C74      1.0000 0.00460  0.95150  0.50700  Biso   1.000  C
  H49      1.0000 0.98080  0.89380  0.49010  Biso   1.000  H
  C75      1.0000 0.09150  0.96040  0.56940  Biso   1.000  C
  H50      1.0000 0.12620  0.90890  0.59270  Biso   1.000  H
  C76      1.0000 0.12860  0.04440  0.59820  Biso   1.000  C
  C77      1.0000 0.07500  0.11880  0.55700  Biso   1.000  C
  H51      1.0000 0.09900  0.17650  0.57280  Biso   1.000  H
  C78      1.0000 0.98820  0.11000  0.49430  Biso   1.000  C
  H52      1.0000 0.95330  0.16100  0.46840  Biso   1.000  H
  O25      1.0000 0.38530  0.58900  0.09030  Biso   1.000  O
  O26      1.0000 0.38840  0.61120  0.24810  Biso   1.000  O
  O27      1.0000 0.72950  0.89150  0.40580  Biso   1.000  O
  O28      1.0000 0.71760  0.91950  0.24520  Biso   1.000  O
  C79      1.0000 0.64610  0.72020  0.31420  Biso   1.000  C
  C80      1.0000 0.73030  0.68890  0.38690  Biso   1.000  C
  H53      1.0000 0.77720  0.72850  0.40840  Biso   1.000  H
  C81      1.0000 0.74400  0.60280  0.42560  Biso   1.000  C
  H54      1.0000 0.79930  0.58470  0.47390  Biso   1.000  H
  C82      1.0000 0.67330  0.54090  0.39190  Biso   1.000  C
  H55      1.0000 0.68260  0.48170  0.41690  Biso   1.000  H
  C83      1.0000 0.59240  0.56780  0.32330  Biso   1.000  C
  H56      1.0000 0.54670  0.52640  0.30150  Biso   1.000  H
  C84      1.0000 0.57610  0.65570  0.28510  Biso   1.000  C
  C85      1.0000 0.49100  0.68480  0.20850  Biso   1.000  C
  C86      1.0000 0.48240  0.76920  0.16170  Biso   1.000  C
  H57      1.0000 0.42860  0.78640  0.10880  Biso   1.000  H
  C87      1.0000 0.55000  0.82650  0.19100  Biso   1.000  C
  H58      1.0000 0.54180  0.88170  0.15630  Biso   1.000  H
  C88      1.0000 0.63020  0.80700  0.26970  Biso   1.000  C
  C89      1.0000 0.41430  0.62120  0.17890  Biso   1.000  C
  C90      1.0000 0.70000  0.87630  0.30950  Biso   1.000  C
  O29      1.0000 0.88900  0.08160  0.75440  Biso   1.000  O
  O30      1.0000 0.85970  0.10370  0.58640  Biso   1.000  O
  O31      1.0000 0.22510  0.38310  0.76150  Biso   1.000  O
  O32      1.0000 0.20350  0.41330  0.90350  Biso   1.000  O
  C91      1.0000 0.96000  0.27500  0.65820  Biso   1.000  C
  C92      1.0000 0.88160  0.29960  0.57050  Biso   1.000  C
  H59      1.0000 0.83390  0.26090  0.54820  Biso   1.000  H
  C93      1.0000 0.87480  0.37790  0.51870  Biso   1.000  C
  H60      1.0000 0.82350  0.39260  0.46030  Biso   1.000  H
  C94      1.0000 0.94800  0.43820  0.55510  Biso   1.000  C
  H61      1.0000 0.94350  0.49270  0.52020  Biso   1.000  H
  C95      1.0000 0.02190  0.41780  0.63770  Biso   1.000  C
  H62      1.0000 0.06790  0.45880  0.66080  Biso   1.000  H
  C96      1.0000 0.03220  0.33210  0.69250  Biso   1.000  C
  C97      1.0000 0.10970  0.31140  0.78090  Biso   1.000  C
  C98      1.0000 0.11610  0.23690  0.83690  Biso   1.000  C
  H63      1.0000 0.16700  0.22540  0.89740  Biso   1.000  H
  C99      1.0000 0.04420  0.17370  0.80420  Biso   1.000  C
  H64      1.0000 0.04950  0.12080  0.84200  Biso   1.000  H
  C100     1.0000 0.96810  0.19260  0.71680  Biso   1.000  C
  C101     1.0000 0.18720  0.37370  0.81850  Biso   1.000  C
  C102     1.0000 0.89870  0.11840  0.68160  Biso   1.000  C
  O33      1.0000 0.72640  0.97730  0.58960  Biso   1.000  O
  H65      1.0000 0.68670  0.01730  0.57290  Biso   1.000  H
  H66      1.0000 0.70160  0.92590  0.57430  Biso   1.000  H
  Ni7      1.0000 0.29498  0.49849  0.49805  Biso   1.000  Ni
  Ni8      1.0000 0.30473  0.48407  0.75453  Biso   1.000  Ni
  O34      1.0000 0.98490  0.58310  0.85520  Biso   1.000  O
  O35      1.0000 0.36830  0.51330  0.41520  Biso   1.000  O
  N7       1.0000 0.89920  0.57380  0.79220  Biso   1.000  N
  N8       1.0000 0.45230  0.52380  0.46920  Biso   1.000  N
  C103     1.0000 0.85050  0.64900  0.76640  Biso   1.000  C
  H67      1.0000 0.87530  0.70550  0.79020  Biso   1.000  H
  C104     1.0000 0.76140  0.64000  0.70300  Biso   1.000  C
  H68      1.0000 0.72620  0.69130  0.68530  Biso   1.000  H
  C105     1.0000 0.72440  0.55680  0.66620  Biso   1.000  C
  C106     1.0000 0.77570  0.48500  0.69080  Biso   1.000  C
  H69      1.0000 0.75260  0.42860  0.66320  Biso   1.000  H
  C107     1.0000 0.86610  0.49340  0.75930  Biso   1.000  C
  H70      1.0000 0.90130  0.44230  0.78060  Biso   1.000  H
  C108     1.0000 0.50460  0.45150  0.50700  Biso   1.000  C
  H71      1.0000 0.48080  0.39380  0.49010  Biso   1.000  H
  C109     1.0000 0.59150  0.46040  0.56940  Biso   1.000  C
  H72      1.0000 0.62620  0.40890  0.59270  Biso   1.000  H
  C110     1.0000 0.62860  0.54440  0.59820  Biso   1.000  C
  C111     1.0000 0.57500  0.61880  0.55700  Biso   1.000  C
  H73      1.0000 0.59900  0.67650  0.57280  Biso   1.000  H
  C112     1.0000 0.48820  0.61000  0.49430  Biso   1.000  C
  H74      1.0000 0.45330  0.66100  0.46840  Biso   1.000  H
  O36      1.0000 0.88530  0.08900  0.09030  Biso   1.000  O
  O37      1.0000 0.88840  0.11120  0.24810  Biso   1.000  O
  O38      1.0000 0.22950  0.39150  0.40580  Biso   1.000  O
  O39      1.0000 0.21760  0.41950  0.24520  Biso   1.000  O
  C113     1.0000 0.14610  0.22020  0.31420  Biso   1.000  C
  C114     1.0000 0.23030  0.18890  0.38690  Biso   1.000  C
  H75      1.0000 0.27720  0.22850  0.40840  Biso   1.000  H
  C115     1.0000 0.24400  0.10280  0.42560  Biso   1.000  C
  H76      1.0000 0.29930  0.08470  0.47390  Biso   1.000  H
  C116     1.0000 0.17330  0.04090  0.39190  Biso   1.000  C
  H77      1.0000 0.18260  0.98170  0.41690  Biso   1.000  H
  C117     1.0000 0.09240  0.06780  0.32330  Biso   1.000  C
  H78      1.0000 0.04670  0.02640  0.30150  Biso   1.000  H
  C118     1.0000 0.07610  0.15570  0.28510  Biso   1.000  C
  C119     1.0000 0.99100  0.18480  0.20850  Biso   1.000  C
  C120     1.0000 0.98240  0.26920  0.16170  Biso   1.000  C
  H79      1.0000 0.92860  0.28640  0.10880  Biso   1.000  H
  C121     1.0000 0.05000  0.32650  0.19100  Biso   1.000  C
  H80      1.0000 0.04180  0.38170  0.15630  Biso   1.000  H
  C122     1.0000 0.13020  0.30700  0.26970  Biso   1.000  C
  C123     1.0000 0.91430  0.12120  0.17890  Biso   1.000  C
  C124     1.0000 0.20000  0.37630  0.30950  Biso   1.000  C
  O40      1.0000 0.38900  0.58160  0.75440  Biso   1.000  O
  O41      1.0000 0.35970  0.60370  0.58640  Biso   1.000  O
  O42      1.0000 0.72510  0.88310  0.76150  Biso   1.000  O
  O43      1.0000 0.70350  0.91330  0.90350  Biso   1.000  O
  C125     1.0000 0.46000  0.77500  0.65820  Biso   1.000  C
  C126     1.0000 0.38160  0.79960  0.57050  Biso   1.000  C
  H81      1.0000 0.33390  0.76090  0.54820  Biso   1.000  H
  C127     1.0000 0.37480  0.87790  0.51870  Biso   1.000  C
  H82      1.0000 0.32350  0.89260  0.46030  Biso   1.000  H
  C128     1.0000 0.44800  0.93820  0.55510  Biso   1.000  C
  H83      1.0000 0.44350  0.99270  0.52020  Biso   1.000  H
  C129     1.0000 0.52190  0.91780  0.63770  Biso   1.000  C
  H84      1.0000 0.56790  0.95880  0.66080  Biso   1.000  H
  C130     1.0000 0.53220  0.83210  0.69250  Biso   1.000  C
  C131     1.0000 0.60970  0.81140  0.78090  Biso   1.000  C
  C132     1.0000 0.61610  0.73690  0.83690  Biso   1.000  C
  H85      1.0000 0.66700  0.72540  0.89740  Biso   1.000  H
  C133     1.0000 0.54420  0.67370  0.80420  Biso   1.000  C
  H86      1.0000 0.54950  0.62080  0.84200  Biso   1.000  H
  C134     1.0000 0.46810  0.69260  0.71680  Biso   1.000  C
  C135     1.0000 0.68720  0.87370  0.81850  Biso   1.000  C
  C136     1.0000 0.39870  0.61840  0.68160  Biso   1.000  C
  O44      1.0000 0.22640  0.47730  0.58960  Biso   1.000  O
  H87      1.0000 0.18670  0.51730  0.57290  Biso   1.000  H
  H88      1.0000 0.20160  0.42590  0.57430  Biso   1.000  H
