data_TUGSOE_charged
_audit_creation_date              2014-07-02
_audit_creation_method            'Materials Studio'
_symmetry_space_group_name_H-M    'P1'
_symmetry_Int_Tables_number       1
_symmetry_cell_setting            triclinic
loop_
_symmetry_equiv_pos_as_xyz
  x,y,z
_cell_length_a                    13.6205
_cell_length_b                    15.4151
_cell_length_c                    15.9794
_cell_angle_alpha                 88.4400
_cell_angle_beta                  65.0510
_cell_angle_gamma                 75.6320
loop_
_atom_site_label
_atom_site_type_symbol
_atom_site_fract_x
_atom_site_fract_y
_atom_site_fract_z
_atom_site_U_iso_or_equiv
_atom_site_adp_type
_atom_site_occupancy
Cd1    Cd    0.98868   0.18129   0.19050   0.01267  Uiso   1.00
Cd2    Cd    0.01132   0.81871   0.80950   0.01267  Uiso   1.00
Cd3    Cd    0.00000   0.00000   0.00000   0.01267  Uiso   1.00
H1     H     0.17000   0.10680   0.82270   0.01267  Uiso   1.00
H2     H     0.15540   0.27720   0.01050   0.01267  Uiso   1.00
H3     H     0.29730   0.17320   0.70460   0.01267  Uiso   1.00
H4     H     0.17830   0.24230   0.72560   0.01267  Uiso   1.00
H5     H     0.32210   0.27860   0.58850   0.01267  Uiso   1.00
H6     H     0.47350   0.22480   0.62860   0.01267  Uiso   1.00
H7     H     0.46840   0.32590   0.60060   0.01267  Uiso   1.00
H8     H     0.49530   0.31030   0.73800   0.01267  Uiso   1.00
H9     H     0.35200   0.27560   0.87510   0.01267  Uiso   1.00
H10    H     0.40350   0.19350   0.79640   0.01267  Uiso   1.00
H11    H     0.09740   0.37070   0.84750   0.01267  Uiso   1.00
H12    H     0.16260   0.38440   0.90750   0.01267  Uiso   1.00
H13    H     0.16750   0.40260   0.68260   0.01267  Uiso   1.00
H14    H     0.27980   0.43600   0.63250   0.01267  Uiso   1.00
H15    H     0.38840   0.45460   0.72540   0.01267  Uiso   1.00
H16    H     0.34130   0.43380   0.83220   0.01267  Uiso   1.00
H17    H     0.15610   0.52960   0.93560   0.01267  Uiso   1.00
H18    H     0.13900   0.57870   0.69800   0.01267  Uiso   1.00
H19    H     0.04870   0.72530   0.60330   0.01267  Uiso   1.00
H20    H     0.23860   0.88610   0.47040   0.01267  Uiso   1.00
H21    H     0.32060   0.75100   0.34190   0.01267  Uiso   1.00
H22    H     0.29550   0.65950   0.38550   0.01267  Uiso   1.00
H23    H     0.35380   0.64190   0.22230   0.01267  Uiso   1.00
H24    H     0.29160   0.79660   0.20050   0.01267  Uiso   1.00
H25    H     0.24390   0.73600   0.15440   0.01267  Uiso   1.00
H26    H     0.16360   0.88400   0.35750   0.01267  Uiso   1.00
H27    H     0.03580   0.87820   0.40950   0.01267  Uiso   1.00
H28    H     0.09340   0.64910   0.46730   0.01267  Uiso   1.00
H29    H     0.99320   0.73500   0.47680   0.01267  Uiso   1.00
H30    H     0.02470   0.62870   0.35600   0.01267  Uiso   1.00
H31    H     0.20100   0.59440   0.22240   0.01267  Uiso   1.00
H32    H     0.22000   0.56370   0.31230   0.01267  Uiso   1.00
H33    H     0.96240   0.78520   0.33590   0.01267  Uiso   1.00
H34    H     0.04230   0.73020   0.23660   0.01267  Uiso   1.00
H35    H     0.08100   0.82960   0.11900   0.01267  Uiso   1.00
H36    H     0.07440   0.00220   0.30180   0.01267  Uiso   1.00
H37    H     0.26730   0.89010   0.95730   0.01267  Uiso   1.00
H38    H     0.28750   0.72450   0.76100   0.01267  Uiso   1.00
H39    H     0.40270   0.61120   0.81310   0.01267  Uiso   1.00
H40    H     0.48010   0.66030   0.73110   0.01267  Uiso   1.00
H41    H     0.59520   0.52890   0.75850   0.01267  Uiso   1.00
H42    H     0.60130   0.51780   0.90550   0.01267  Uiso   1.00
H43    H     0.47590   0.52520   0.91850   0.01267  Uiso   1.00
H44    H     0.47230   0.62640   0.03050   0.01267  Uiso   1.00
H45    H     0.35870   0.75860   0.00320   0.01267  Uiso   1.00
H46    H     0.32780   0.67140   0.97900   0.01267  Uiso   1.00
H47    H     0.52930   0.79740   0.76780   0.01267  Uiso   1.00
H48    H     0.48120   0.83680   0.87370   0.01267  Uiso   1.00
H49    H     0.72530   0.59600   0.77650   0.01267  Uiso   1.00
H50    H     0.67720   0.65130   0.70920   0.01267  Uiso   1.00
H51    H     0.64940   0.65720   0.94450   0.01267  Uiso   1.00
H52    H     0.55330   0.75010   0.98170   0.01267  Uiso   1.00
H53    H     0.83000   0.89320   0.17730   0.01267  Uiso   1.00
H54    H     0.84460   0.72280   0.98950   0.01267  Uiso   1.00
H55    H     0.70270   0.82680   0.29540   0.01267  Uiso   1.00
H56    H     0.82170   0.75770   0.27440   0.01267  Uiso   1.00
H57    H     0.67790   0.72140   0.41150   0.01267  Uiso   1.00
H58    H     0.52650   0.77520   0.37140   0.01267  Uiso   1.00
H59    H     0.53160   0.67410   0.39940   0.01267  Uiso   1.00
H60    H     0.50470   0.68970   0.26200   0.01267  Uiso   1.00
H61    H     0.64800   0.72440   0.12490   0.01267  Uiso   1.00
H62    H     0.59650   0.80650   0.20360   0.01267  Uiso   1.00
H63    H     0.90260   0.62930   0.15250   0.01267  Uiso   1.00
H64    H     0.83740   0.61560   0.09250   0.01267  Uiso   1.00
H65    H     0.83250   0.59740   0.31740   0.01267  Uiso   1.00
H66    H     0.72020   0.56400   0.36750   0.01267  Uiso   1.00
H67    H     0.61160   0.54540   0.27460   0.01267  Uiso   1.00
H68    H     0.65870   0.56620   0.16780   0.01267  Uiso   1.00
H69    H     0.84390   0.47040   0.06440   0.01267  Uiso   1.00
H70    H     0.86100   0.42130   0.30200   0.01267  Uiso   1.00
H71    H     0.95130   0.27470   0.39670   0.01267  Uiso   1.00
H72    H     0.76140   0.11390   0.52960   0.01267  Uiso   1.00
H73    H     0.67940   0.24900   0.65810   0.01267  Uiso   1.00
H74    H     0.70450   0.34050   0.61450   0.01267  Uiso   1.00
H75    H     0.64620   0.35810   0.77770   0.01267  Uiso   1.00
H76    H     0.70840   0.20340   0.79950   0.01267  Uiso   1.00
H77    H     0.75610   0.26400   0.84560   0.01267  Uiso   1.00
H78    H     0.83640   0.11600   0.64250   0.01267  Uiso   1.00
H79    H     0.96420   0.12180   0.59050   0.01267  Uiso   1.00
H80    H     0.90660   0.35090   0.53270   0.01267  Uiso   1.00
H81    H     0.00680   0.26500   0.52320   0.01267  Uiso   1.00
H82    H     0.97530   0.37130   0.64400   0.01267  Uiso   1.00
H83    H     0.79900   0.40560   0.77760   0.01267  Uiso   1.00
H84    H     0.78000   0.43630   0.68770   0.01267  Uiso   1.00
H85    H     0.03760   0.21480   0.66410   0.01267  Uiso   1.00
H86    H     0.95770   0.26980   0.76340   0.01267  Uiso   1.00
H87    H     0.91900   0.17040   0.88100   0.01267  Uiso   1.00
H88    H     0.92560   0.99780   0.69820   0.01267  Uiso   1.00
H89    H     0.73270   0.10990   0.04270   0.01267  Uiso   1.00
H90    H     0.71250   0.27550   0.23900   0.01267  Uiso   1.00
H91    H     0.59730   0.38880   0.18690   0.01267  Uiso   1.00
H92    H     0.51990   0.33970   0.26890   0.01267  Uiso   1.00
H93    H     0.40480   0.47110   0.24150   0.01267  Uiso   1.00
H94    H     0.39870   0.48220   0.09450   0.01267  Uiso   1.00
H95    H     0.52410   0.47480   0.08150   0.01267  Uiso   1.00
H96    H     0.52770   0.37360   0.96950   0.01267  Uiso   1.00
H97    H     0.64130   0.24140   0.99680   0.01267  Uiso   1.00
H98    H     0.67220   0.32860   0.02100   0.01267  Uiso   1.00
H99    H     0.47070   0.20260   0.23220   0.01267  Uiso   1.00
H100   H     0.51880   0.16320   0.12630   0.01267  Uiso   1.00
H101   H     0.27470   0.40400   0.22350   0.01267  Uiso   1.00
H102   H     0.32280   0.34870   0.29080   0.01267  Uiso   1.00
H103   H     0.35060   0.34280   0.05550   0.01267  Uiso   1.00
H104   H     0.44670   0.24990   0.01830   0.01267  Uiso   1.00
C1     C     0.15410   0.13610   0.88030   0.01267  Uiso   1.00
C2     C     0.14590   0.22850   0.98220   0.01267  Uiso   1.00
C3     C     0.24310   0.26670   0.81720   0.01267  Uiso   1.00
C4     C     0.25360   0.23680   0.72270   0.01267  Uiso   1.00
C5     C     0.31380   0.29770   0.65090   0.01267  Uiso   1.00
C6     C     0.42890   0.28810   0.64740   0.01267  Uiso   1.00
C7     C     0.41880   0.31650   0.74140   0.01267  Uiso   1.00
C8     C     0.35920   0.25710   0.81350   0.01267  Uiso   1.00
C9     C     0.17240   0.36500   0.84530   0.01267  Uiso   1.00
C10    C     0.23410   0.42460   0.77290   0.01267  Uiso   1.00
C11    C     0.24320   0.39680   0.67910   0.01267  Uiso   1.00
C12    C     0.34950   0.41520   0.77030   0.01267  Uiso   1.00
C13    C     0.14060   0.55960   0.88810   0.01267  Uiso   1.00
C14    C     0.13090   0.58570   0.75960   0.01267  Uiso   1.00
C15    C     0.09130   0.76840   0.58990   0.01267  Uiso   1.00
C16    C     0.19390   0.85580   0.51840   0.01267  Uiso   1.00
C17    C     0.14990   0.76180   0.41610   0.01267  Uiso   1.00
C18    C     0.27040   0.71080   0.35430   0.01267  Uiso   1.00
C19    C     0.27540   0.67670   0.26290   0.01267  Uiso   1.00
C20    C     0.24020   0.75730   0.21380   0.01267  Uiso   1.00
C21    C     0.11980   0.81000   0.27720   0.01267  Uiso   1.00
C22    C     0.11340   0.84390   0.36910   0.01267  Uiso   1.00
C23    C     0.07080   0.70130   0.43570   0.01267  Uiso   1.00
C24    C     0.07610   0.66870   0.34400   0.01267  Uiso   1.00
C25    C     0.19680   0.61640   0.28170   0.01267  Uiso   1.00
C26    C     0.04010   0.75070   0.29570   0.01267  Uiso   1.00
C27    C     0.07260   0.88390   0.15100   0.01267  Uiso   1.00
C28    C     0.06860   0.97770   0.25060   0.01267  Uiso   1.00
C29    C     0.25010   0.86230   0.91470   0.01267  Uiso   1.00
C30    C     0.26120   0.77240   0.80750   0.01267  Uiso   1.00
C31    C     0.41920   0.72850   0.86080   0.01267  Uiso   1.00
C32    C     0.46140   0.64410   0.79540   0.01267  Uiso   1.00
C33    C     0.56640   0.58450   0.80160   0.01267  Uiso   1.00
C34    C     0.53490   0.55780   0.90090   0.01267  Uiso   1.00
C35    C     0.49230   0.64320   0.96560   0.01267  Uiso   1.00
C36    C     0.38740   0.70360   0.96050   0.01267  Uiso   1.00
C37    C     0.50940   0.78100   0.83220   0.01267  Uiso   1.00
C38    C     0.61300   0.71930   0.83970   0.01267  Uiso   1.00
C39    C     0.65720   0.63480   0.77360   0.01267  Uiso   1.00
C40    C     0.58220   0.69480   0.93930   0.01267  Uiso   1.00
C41    C     0.80600   0.74160   0.80580   0.01267  Uiso   1.00
C42    C     0.68400   0.86340   0.80660   0.01267  Uiso   1.00
C43    C     0.84590   0.86390   0.11970   0.01267  Uiso   1.00
C44    C     0.85410   0.77150   0.01780   0.01267  Uiso   1.00
C45    C     0.75690   0.73330   0.18280   0.01267  Uiso   1.00
C46    C     0.74640   0.76320   0.27730   0.01267  Uiso   1.00
C47    C     0.68620   0.70230   0.34910   0.01267  Uiso   1.00
C48    C     0.57110   0.71190   0.35260   0.01267  Uiso   1.00
C49    C     0.58120   0.68350   0.25860   0.01267  Uiso   1.00
C50    C     0.64080   0.74290   0.18650   0.01267  Uiso   1.00
C51    C     0.82760   0.63500   0.15470   0.01267  Uiso   1.00
C52    C     0.76590   0.57540   0.22710   0.01267  Uiso   1.00
C53    C     0.75680   0.60320   0.32090   0.01267  Uiso   1.00
C54    C     0.65050   0.58480   0.22970   0.01267  Uiso   1.00
C55    C     0.85940   0.44040   0.11190   0.01267  Uiso   1.00
C56    C     0.86910   0.41430   0.24040   0.01267  Uiso   1.00
C57    C     0.90870   0.23160   0.41010   0.01267  Uiso   1.00
C58    C     0.80610   0.14420   0.48160   0.01267  Uiso   1.00
C59    C     0.85010   0.23820   0.58390   0.01267  Uiso   1.00
C60    C     0.72960   0.28920   0.64570   0.01267  Uiso   1.00
C61    C     0.72460   0.32330   0.73710   0.01267  Uiso   1.00
C62    C     0.75980   0.24270   0.78620   0.01267  Uiso   1.00
C63    C     0.88020   0.19000   0.72280   0.01267  Uiso   1.00
C64    C     0.88660   0.15610   0.63090   0.01267  Uiso   1.00
C65    C     0.92920   0.29870   0.56430   0.01267  Uiso   1.00
C66    C     0.92390   0.33130   0.65600   0.01267  Uiso   1.00
C67    C     0.80320   0.38360   0.71830   0.01267  Uiso   1.00
C68    C     0.95990   0.24930   0.70430   0.01267  Uiso   1.00
C69    C     0.92740   0.11610   0.84900   0.01267  Uiso   1.00
C70    C     0.93140   0.02230   0.74940   0.01267  Uiso   1.00
C71    C     0.74990   0.13770   0.08530   0.01267  Uiso   1.00
C72    C     0.73880   0.22760   0.19250   0.01267  Uiso   1.00
C73    C     0.58080   0.27150   0.13920   0.01267  Uiso   1.00
C74    C     0.53860   0.35590   0.20460   0.01267  Uiso   1.00
C75    C     0.43360   0.41550   0.19840   0.01267  Uiso   1.00
C76    C     0.46510   0.44220   0.09910   0.01267  Uiso   1.00
C77    C     0.50770   0.35680   0.03440   0.01267  Uiso   1.00
C78    C     0.61260   0.29640   0.03950   0.01267  Uiso   1.00
C79    C     0.49060   0.21900   0.16780   0.01267  Uiso   1.00
C80    C     0.38700   0.28070   0.16030   0.01267  Uiso   1.00
C81    C     0.34280   0.36520   0.22640   0.01267  Uiso   1.00
C82    C     0.41780   0.30520   0.06070   0.01267  Uiso   1.00
C83    C     0.19400   0.25840   0.19420   0.01267  Uiso   1.00
C84    C     0.31600   0.13660   0.19340   0.01267  Uiso   1.00
N1     N     0.10010   0.10950   0.96120   0.01267  Uiso   1.00
N2     N     0.09410   0.16890   0.02720   0.01267  Uiso   1.00
N3     N     0.18410   0.21080   0.88960   0.01267  Uiso   1.00
N4     N     0.16780   0.51930   0.80440   0.01267  Uiso   1.00
N5     N     0.09040   0.64500   0.89570   0.01267  Uiso   1.00
N6     N     0.08190   0.66180   0.81350   0.01267  Uiso   1.00
N7     N     0.10590   0.81110   0.65100   0.01267  Uiso   1.00
N8     N     0.17130   0.86860   0.60600   0.01267  Uiso   1.00
N9     N     0.14540   0.79400   0.50480   0.01267  Uiso   1.00
N10    N     0.08640   0.88950   0.22970   0.01267  Uiso   1.00
N11    N     0.04580   0.96470   0.12570   0.01267  Uiso   1.00
N12    N     0.04210   0.02500   0.19010   0.01267  Uiso   1.00
N13    N     0.15760   0.89070   0.90250   0.01267  Uiso   1.00
N14    N     0.16560   0.83400   0.83350   0.01267  Uiso   1.00
N15    N     0.31730   0.78680   0.85670   0.01267  Uiso   1.00
N16    N     0.70090   0.76880   0.81310   0.01267  Uiso   1.00
N17    N     0.85360   0.80440   0.79560   0.01267  Uiso   1.00
N18    N     0.77680   0.88750   0.79590   0.01267  Uiso   1.00
N19    N     0.89990   0.89050   0.03880   0.01267  Uiso   1.00
N20    N     0.90590   0.83110   0.97280   0.01267  Uiso   1.00
N21    N     0.81590   0.78920   0.11040   0.01267  Uiso   1.00
N22    N     0.83220   0.48070   0.19560   0.01267  Uiso   1.00
N23    N     0.90960   0.35500   0.10430   0.01267  Uiso   1.00
N24    N     0.91810   0.33820   0.18650   0.01267  Uiso   1.00
N25    N     0.89410   0.18890   0.34900   0.01267  Uiso   1.00
N26    N     0.82870   0.13140   0.39400   0.01267  Uiso   1.00
N27    N     0.85460   0.20600   0.49520   0.01267  Uiso   1.00
N28    N     0.91360   0.11050   0.77030   0.01267  Uiso   1.00
N29    N     0.95420   0.03530   0.87430   0.01267  Uiso   1.00
N30    N     0.95790   0.97500   0.80990   0.01267  Uiso   1.00
N31    N     0.84240   0.10930   0.09750   0.01267  Uiso   1.00
N32    N     0.83440   0.16600   0.16650   0.01267  Uiso   1.00
N33    N     0.68270   0.21320   0.14330   0.01267  Uiso   1.00
N34    N     0.29910   0.23120   0.18690   0.01267  Uiso   1.00
N35    N     0.14640   0.19560   0.20440   0.01267  Uiso   1.00
N36    N     0.22320   0.11250   0.20410   0.01267  Uiso   1.00
N37    N     0.85500   0.51680   0.89380   0.01267  Uiso   1.00
O1     O     0.84690   0.58250   0.94010   0.01267  Uiso   1.00
O2     O     0.91800   0.49850   0.81100   0.01267  Uiso   1.00
O3     O     0.79470   0.46450   0.93570   0.01267  Uiso   1.00
N38    N     0.35940   0.51530   0.46040   0.01267  Uiso   1.00
O4     O     0.45050   0.53160   0.42870   0.01267  Uiso   1.00
O5     O     0.27580   0.56780   0.52410   0.01267  Uiso   1.00
O6     O     0.34870   0.44620   0.43100   0.01267  Uiso   1.00
N39    N     0.58780   0.04600   0.68630   0.01267  Uiso   1.00
O7     O     0.51100   0.01860   0.74870   0.01267  Uiso   1.00
O8     O     0.63720   0.08960   0.70980   0.01267  Uiso   1.00
O9     O     0.59710   0.03940   0.60660   0.01267  Uiso   1.00
N40    N     0.39030   0.94880   0.08780   0.01267  Uiso   1.00
O10    O     0.46100   0.89020   0.10360   0.01267  Uiso   1.00
O11    O     0.39460   0.02790   0.09410   0.01267  Uiso   1.00
O12    O     0.31830   0.95850   0.04360   0.01267  Uiso   1.00
N41    N     0.14500   0.48320   0.10620   0.01267  Uiso   1.00
O13    O     0.15310   0.41750   0.05990   0.01267  Uiso   1.00
O14    O     0.08200   0.50150   0.18900   0.01267  Uiso   1.00
O15    O     0.20530   0.53550   0.06430   0.01267  Uiso   1.00
N42    N     0.64060   0.48470   0.53960   0.01267  Uiso   1.00
O16    O     0.54950   0.46840   0.57130   0.01267  Uiso   1.00
O17    O     0.72420   0.43220   0.47590   0.01267  Uiso   1.00
O18    O     0.65130   0.55380   0.56900   0.01267  Uiso   1.00
N43    N     0.41220   0.95400   0.31370   0.01267  Uiso   1.00
O19    O     0.48900   0.98140   0.25130   0.01267  Uiso   1.00
O20    O     0.36280   0.91040   0.29020   0.01267  Uiso   1.00
O21    O     0.40290   0.96060   0.39340   0.01267  Uiso   1.00
N44    N     0.60970   0.05120   0.91220   0.01267  Uiso   1.00
O22    O     0.53900   0.10980   0.89640   0.01267  Uiso   1.00
O23    O     0.60540   0.97210   0.90590   0.01267  Uiso   1.00
O24    O     0.68170   0.04150   0.95640   0.01267  Uiso   1.00
