data_image0
_cell_length_a       24.9497
_cell_length_b       9.4852
_cell_length_c       21.7319
_cell_angle_alpha    90
_cell_angle_beta     102.261
_cell_angle_gamma    90

_symmetry_space_group_name_H-M    "P 1"
_symmetry_int_tables_number       1

loop_
  _symmetry_equiv_pos_as_xyz
  'x, y, z'

loop_
  _atom_site_label
  _atom_site_occupancy
  _atom_site_fract_x
  _atom_site_fract_y
  _atom_site_fract_z
  _atom_site_thermal_displace_type
  _atom_site_B_iso_or_equiv
  _atom_site_type_symbol
  Cu1      1.0000 0.79709  0.57882  0.47043  Biso   1.000  Cu
  N1       1.0000 0.87464  0.64810  0.48242  Biso   1.000  N
  N2       1.0000 0.22263  0.99020  0.46251  Biso   1.000  N
  C1       1.0000 0.88893  0.73520  0.44069  Biso   1.000  C
  H1       1.0000 0.86110  0.76920  0.40720  Biso   1.000  H
  C2       1.0000 0.94214  0.77880  0.44360  Biso   1.000  C
  H2       1.0000 0.95020  0.84130  0.41270  Biso   1.000  H
  C3       1.0000 0.98369  0.73130  0.49167  Biso   1.000  C
  C4       1.0000 0.96882  0.64010  0.53490  Biso   1.000  C
  H3       1.0000 0.99600  0.60360  0.56850  Biso   1.000  H
  C5       1.0000 0.91446  0.60210  0.52926  Biso   1.000  C
  H4       1.0000 0.90510  0.54080  0.55990  Biso   1.000  H
  C6       1.0000 0.04143  0.76960  0.49662  Biso   1.000  C
  H5       1.0000 0.06820  0.72570  0.52850  Biso   1.000  H
  C7       1.0000 0.05840  0.86210  0.45910  Biso   1.000  C
  H6       1.0000 0.03100  0.90730  0.42830  Biso   1.000  H
  C8       1.0000 0.11561  0.90080  0.46083  Biso   1.000  C
  C9       1.0000 0.12705  0.99680  0.41680  Biso   1.000  C
  H7       1.0000 0.09810  0.03520  0.38580  Biso   1.000  H
  C10      1.0000 0.18071  0.03620  0.41836  Biso   1.000  C
  H8       1.0000 0.18800  0.09830  0.38680  Biso   1.000  H
  C11      1.0000 0.21186  0.89690  0.50469  Biso   1.000  C
  H9       1.0000 0.24160  0.86260  0.53600  Biso   1.000  H
  C12      1.0000 0.15999  0.84840  0.50487  Biso   1.000  C
  H10      1.0000 0.15450  0.77980  0.53480  Biso   1.000  H
  Cu2      1.0000 0.29709  0.07882  0.47043  Biso   1.000  Cu
  N3       1.0000 0.37464  0.14810  0.48242  Biso   1.000  N
  N4       1.0000 0.72263  0.49020  0.46251  Biso   1.000  N
  C13      1.0000 0.38893  0.23520  0.44069  Biso   1.000  C
  H11      1.0000 0.36110  0.26920  0.40720  Biso   1.000  H
  C14      1.0000 0.44214  0.27880  0.44360  Biso   1.000  C
  H12      1.0000 0.45020  0.34130  0.41270  Biso   1.000  H
  C15      1.0000 0.48369  0.23130  0.49167  Biso   1.000  C
  C16      1.0000 0.46882  0.14010  0.53490  Biso   1.000  C
  H13      1.0000 0.49600  0.10360  0.56850  Biso   1.000  H
  C17      1.0000 0.41446  0.10210  0.52926  Biso   1.000  C
  H14      1.0000 0.40510  0.04080  0.55990  Biso   1.000  H
  C18      1.0000 0.54143  0.26960  0.49662  Biso   1.000  C
  H15      1.0000 0.56820  0.22570  0.52850  Biso   1.000  H
  C19      1.0000 0.55840  0.36210  0.45910  Biso   1.000  C
  H16      1.0000 0.53100  0.40730  0.42830  Biso   1.000  H
  C20      1.0000 0.61561  0.40080  0.46083  Biso   1.000  C
  C21      1.0000 0.62705  0.49680  0.41680  Biso   1.000  C
  H17      1.0000 0.59810  0.53520  0.38580  Biso   1.000  H
  C22      1.0000 0.68071  0.53620  0.41836  Biso   1.000  C
  H18      1.0000 0.68800  0.59830  0.38680  Biso   1.000  H
  C23      1.0000 0.71186  0.39690  0.50469  Biso   1.000  C
  H19      1.0000 0.74160  0.36260  0.53600  Biso   1.000  H
  C24      1.0000 0.65999  0.34840  0.50487  Biso   1.000  C
  H20      1.0000 0.65450  0.27980  0.53480  Biso   1.000  H
  O1       1.0000 0.23293  0.79800  0.06622  Biso   1.000  O
  O2       1.0000 0.30783  0.92350  0.06196  Biso   1.000  O
  O3       1.0000 0.29220  0.03670  0.38119  Biso   1.000  O
  O4       1.0000 0.36502  0.89230  0.39499  Biso   1.000  O
  O5       1.0000 0.17629  0.80520  0.27444  Biso   1.000  O
  O6       1.0000 0.24415  0.74950  0.35020  Biso   1.000  O
  N5       1.0000 0.22561  0.79920  0.29810  Biso   1.000  N
  C25      1.0000 0.27404  0.86650  0.09078  Biso   1.000  C
  C26      1.0000 0.28696  0.88800  0.16120  Biso   1.000  C
  C27      1.0000 0.33448  0.95690  0.19135  Biso   1.000  C
  H21      1.0000 0.35890  0.99330  0.16720  Biso   1.000  H
  C28      1.0000 0.34678  0.97330  0.25666  Biso   1.000  C
  H22      1.0000 0.38000  0.01810  0.27660  Biso   1.000  H
  C29      1.0000 0.31100  0.92500  0.29253  Biso   1.000  C
  C30      1.0000 0.26425  0.85460  0.26154  Biso   1.000  C
  C31      1.0000 0.25211  0.83390  0.19698  Biso   1.000  C
  H23      1.0000 0.22020  0.78300  0.17750  Biso   1.000  H
  C32      1.0000 0.32467  0.95020  0.36326  Biso   1.000  C
  O7       1.0000 0.73293  0.29800  0.06622  Biso   1.000  O
  O8       1.0000 0.80783  0.42350  0.06196  Biso   1.000  O
  O9       1.0000 0.79220  0.53670  0.38119  Biso   1.000  O
  O10      1.0000 0.86502  0.39230  0.39499  Biso   1.000  O
  O11      1.0000 0.67629  0.30520  0.27444  Biso   1.000  O
  O12      1.0000 0.74415  0.24950  0.35020  Biso   1.000  O
  N6       1.0000 0.72561  0.29920  0.29810  Biso   1.000  N
  C33      1.0000 0.77404  0.36650  0.09078  Biso   1.000  C
  C34      1.0000 0.78696  0.38800  0.16120  Biso   1.000  C
  C35      1.0000 0.83448  0.45690  0.19135  Biso   1.000  C
  H24      1.0000 0.85890  0.49330  0.16720  Biso   1.000  H
  C36      1.0000 0.84678  0.47330  0.25666  Biso   1.000  C
  H25      1.0000 0.88000  0.51810  0.27660  Biso   1.000  H
  C37      1.0000 0.81100  0.42500  0.29253  Biso   1.000  C
  C38      1.0000 0.76425  0.35460  0.26154  Biso   1.000  C
  C39      1.0000 0.75211  0.33390  0.19698  Biso   1.000  C
  H26      1.0000 0.72020  0.28300  0.17750  Biso   1.000  H
  C40      1.0000 0.82467  0.45020  0.36326  Biso   1.000  C
  O13      1.0000 0.23293  0.20200  0.56622  Biso   1.000  O
  O14      1.0000 0.30783  0.07650  0.56196  Biso   1.000  O
  O15      1.0000 0.29220  0.96330  0.88119  Biso   1.000  O
  O16      1.0000 0.36502  0.10770  0.89499  Biso   1.000  O
  O17      1.0000 0.17629  0.19480  0.77444  Biso   1.000  O
  O18      1.0000 0.24415  0.25050  0.85020  Biso   1.000  O
  N7       1.0000 0.22561  0.20080  0.79810  Biso   1.000  N
  C41      1.0000 0.27404  0.13350  0.59078  Biso   1.000  C
  C42      1.0000 0.28696  0.11200  0.66120  Biso   1.000  C
  C43      1.0000 0.33448  0.04310  0.69135  Biso   1.000  C
  H27      1.0000 0.35890  0.00670  0.66720  Biso   1.000  H
  C44      1.0000 0.34678  0.02670  0.75666  Biso   1.000  C
  H28      1.0000 0.38000  0.98190  0.77660  Biso   1.000  H
  C45      1.0000 0.31100  0.07500  0.79253  Biso   1.000  C
  C46      1.0000 0.26425  0.14540  0.76154  Biso   1.000  C
  C47      1.0000 0.25211  0.16610  0.69698  Biso   1.000  C
  H29      1.0000 0.22020  0.21700  0.67750  Biso   1.000  H
  C48      1.0000 0.32467  0.04980  0.86326  Biso   1.000  C
  O19      1.0000 0.73293  0.70200  0.56622  Biso   1.000  O
  O20      1.0000 0.80783  0.57650  0.56196  Biso   1.000  O
  O21      1.0000 0.79220  0.46330  0.88119  Biso   1.000  O
  O22      1.0000 0.86502  0.60770  0.89499  Biso   1.000  O
  O23      1.0000 0.67629  0.69480  0.77444  Biso   1.000  O
  O24      1.0000 0.74415  0.75050  0.85020  Biso   1.000  O
  N8       1.0000 0.72561  0.70080  0.79810  Biso   1.000  N
  C49      1.0000 0.77404  0.63350  0.59078  Biso   1.000  C
  C50      1.0000 0.78696  0.61200  0.66120  Biso   1.000  C
  C51      1.0000 0.83448  0.54310  0.69135  Biso   1.000  C
  H30      1.0000 0.85890  0.50670  0.66720  Biso   1.000  H
  C52      1.0000 0.84678  0.52670  0.75666  Biso   1.000  C
  H31      1.0000 0.88000  0.48190  0.77660  Biso   1.000  H
  C53      1.0000 0.81100  0.57500  0.79253  Biso   1.000  C
  C54      1.0000 0.76425  0.64540  0.76154  Biso   1.000  C
  C55      1.0000 0.75211  0.66610  0.69698  Biso   1.000  C
  H32      1.0000 0.72020  0.71700  0.67750  Biso   1.000  H
  C56      1.0000 0.82467  0.54980  0.86326  Biso   1.000  C
  Cu3      1.0000 0.79709  0.42118  0.97043  Biso   1.000  Cu
  N9       1.0000 0.87464  0.35190  0.98242  Biso   1.000  N
  N10      1.0000 0.22263  0.00980  0.96251  Biso   1.000  N
  C57      1.0000 0.88893  0.26480  0.94069  Biso   1.000  C
  H33      1.0000 0.86110  0.23080  0.90720  Biso   1.000  H
  C58      1.0000 0.94214  0.22120  0.94360  Biso   1.000  C
  H34      1.0000 0.95020  0.15870  0.91270  Biso   1.000  H
  C59      1.0000 0.98369  0.26870  0.99167  Biso   1.000  C
  C60      1.0000 0.96882  0.35990  0.03490  Biso   1.000  C
  H35      1.0000 0.99600  0.39640  0.06850  Biso   1.000  H
  C61      1.0000 0.91446  0.39790  0.02926  Biso   1.000  C
  H36      1.0000 0.90510  0.45920  0.05990  Biso   1.000  H
  C62      1.0000 0.04143  0.23040  0.99662  Biso   1.000  C
  H37      1.0000 0.06820  0.27430  0.02850  Biso   1.000  H
  C63      1.0000 0.05840  0.13790  0.95910  Biso   1.000  C
  H38      1.0000 0.03100  0.09270  0.92830  Biso   1.000  H
  C64      1.0000 0.11561  0.09920  0.96083  Biso   1.000  C
  C65      1.0000 0.12705  0.00320  0.91680  Biso   1.000  C
  H39      1.0000 0.09810  0.96480  0.88580  Biso   1.000  H
  C66      1.0000 0.18071  0.96380  0.91836  Biso   1.000  C
  H40      1.0000 0.18800  0.90170  0.88680  Biso   1.000  H
  C67      1.0000 0.21186  0.10310  0.00469  Biso   1.000  C
  H41      1.0000 0.24160  0.13740  0.03600  Biso   1.000  H
  C68      1.0000 0.15999  0.15160  0.00487  Biso   1.000  C
  H42      1.0000 0.15450  0.22020  0.03480  Biso   1.000  H
  Cu4      1.0000 0.29709  0.92118  0.97043  Biso   1.000  Cu
  N11      1.0000 0.37464  0.85190  0.98242  Biso   1.000  N
  N12      1.0000 0.72263  0.50980  0.96251  Biso   1.000  N
  C69      1.0000 0.38893  0.76480  0.94069  Biso   1.000  C
  H43      1.0000 0.36110  0.73080  0.90720  Biso   1.000  H
  C70      1.0000 0.44214  0.72120  0.94360  Biso   1.000  C
  H44      1.0000 0.45020  0.65870  0.91270  Biso   1.000  H
  C71      1.0000 0.48369  0.76870  0.99167  Biso   1.000  C
  C72      1.0000 0.46882  0.85990  0.03490  Biso   1.000  C
  H45      1.0000 0.49600  0.89640  0.06850  Biso   1.000  H
  C73      1.0000 0.41446  0.89790  0.02926  Biso   1.000  C
  H46      1.0000 0.40510  0.95920  0.05990  Biso   1.000  H
  C74      1.0000 0.54143  0.73040  0.99662  Biso   1.000  C
  H47      1.0000 0.56820  0.77430  0.02850  Biso   1.000  H
  C75      1.0000 0.55840  0.63790  0.95910  Biso   1.000  C
  H48      1.0000 0.53100  0.59270  0.92830  Biso   1.000  H
  C76      1.0000 0.61561  0.59920  0.96083  Biso   1.000  C
  C77      1.0000 0.62705  0.50320  0.91680  Biso   1.000  C
  H49      1.0000 0.59810  0.46480  0.88580  Biso   1.000  H
  C78      1.0000 0.68071  0.46380  0.91836  Biso   1.000  C
  H50      1.0000 0.68800  0.40170  0.88680  Biso   1.000  H
  C79      1.0000 0.71186  0.60310  0.00469  Biso   1.000  C
  H51      1.0000 0.74160  0.63740  0.03600  Biso   1.000  H
  C80      1.0000 0.65999  0.65160  0.00487  Biso   1.000  C
  H52      1.0000 0.65450  0.72020  0.03480  Biso   1.000  H
  O25      1.0000 0.76707  0.79800  0.43378  Biso   1.000  O
  O26      1.0000 0.69217  0.92350  0.43804  Biso   1.000  O
  O27      1.0000 0.70780  0.03670  0.11881  Biso   1.000  O
  O28      1.0000 0.63498  0.89230  0.10501  Biso   1.000  O
  O29      1.0000 0.82371  0.80520  0.22556  Biso   1.000  O
  O30      1.0000 0.75585  0.74950  0.14980  Biso   1.000  O
  N13      1.0000 0.77439  0.79920  0.20190  Biso   1.000  N
  C81      1.0000 0.72596  0.86650  0.40922  Biso   1.000  C
  C82      1.0000 0.71304  0.88800  0.33880  Biso   1.000  C
  C83      1.0000 0.66552  0.95690  0.30865  Biso   1.000  C
  H53      1.0000 0.64110  0.99330  0.33280  Biso   1.000  H
  C84      1.0000 0.65322  0.97330  0.24334  Biso   1.000  C
  H54      1.0000 0.62000  0.01810  0.22340  Biso   1.000  H
  C85      1.0000 0.68900  0.92500  0.20747  Biso   1.000  C
  C86      1.0000 0.73575  0.85460  0.23846  Biso   1.000  C
  C87      1.0000 0.74789  0.83390  0.30302  Biso   1.000  C
  H55      1.0000 0.77980  0.78300  0.32250  Biso   1.000  H
  C88      1.0000 0.67533  0.95020  0.13674  Biso   1.000  C
  O31      1.0000 0.26707  0.29800  0.43378  Biso   1.000  O
  O32      1.0000 0.19217  0.42350  0.43804  Biso   1.000  O
  O33      1.0000 0.20780  0.53670  0.11881  Biso   1.000  O
  O34      1.0000 0.13498  0.39230  0.10501  Biso   1.000  O
  O35      1.0000 0.32371  0.30520  0.22556  Biso   1.000  O
  O36      1.0000 0.25585  0.24950  0.14980  Biso   1.000  O
  N14      1.0000 0.27439  0.29920  0.20190  Biso   1.000  N
  C89      1.0000 0.22596  0.36650  0.40922  Biso   1.000  C
  C90      1.0000 0.21304  0.38800  0.33880  Biso   1.000  C
  C91      1.0000 0.16552  0.45690  0.30865  Biso   1.000  C
  H56      1.0000 0.14110  0.49330  0.33280  Biso   1.000  H
  C92      1.0000 0.15322  0.47330  0.24334  Biso   1.000  C
  H57      1.0000 0.12000  0.51810  0.22340  Biso   1.000  H
  C93      1.0000 0.18900  0.42500  0.20747  Biso   1.000  C
  C94      1.0000 0.23575  0.35460  0.23846  Biso   1.000  C
  C95      1.0000 0.24789  0.33390  0.30302  Biso   1.000  C
  H58      1.0000 0.27980  0.28300  0.32250  Biso   1.000  H
  C96      1.0000 0.17533  0.45020  0.13674  Biso   1.000  C
  Cu5      1.0000 0.20291  0.57882  0.02957  Biso   1.000  Cu
  N15      1.0000 0.12536  0.64810  0.01758  Biso   1.000  N
  N16      1.0000 0.77737  0.99020  0.03749  Biso   1.000  N
  C97      1.0000 0.11107  0.73520  0.05931  Biso   1.000  C
  H59      1.0000 0.13890  0.76920  0.09280  Biso   1.000  H
  C98      1.0000 0.05786  0.77880  0.05640  Biso   1.000  C
  H60      1.0000 0.04980  0.84130  0.08730  Biso   1.000  H
  C99      1.0000 0.01631  0.73130  0.00833  Biso   1.000  C
  C100     1.0000 0.03118  0.64010  0.96510  Biso   1.000  C
  H61      1.0000 0.00400  0.60360  0.93150  Biso   1.000  H
  C101     1.0000 0.08554  0.60210  0.97074  Biso   1.000  C
  H62      1.0000 0.09490  0.54080  0.94010  Biso   1.000  H
  C102     1.0000 0.95857  0.76960  0.00338  Biso   1.000  C
  H63      1.0000 0.93180  0.72570  0.97150  Biso   1.000  H
  C103     1.0000 0.94160  0.86210  0.04090  Biso   1.000  C
  H64      1.0000 0.96900  0.90730  0.07170  Biso   1.000  H
  C104     1.0000 0.88439  0.90080  0.03917  Biso   1.000  C
  C105     1.0000 0.87295  0.99680  0.08320  Biso   1.000  C
  H65      1.0000 0.90190  0.03520  0.11420  Biso   1.000  H
  C106     1.0000 0.81929  0.03620  0.08164  Biso   1.000  C
  H66      1.0000 0.81200  0.09830  0.11320  Biso   1.000  H
  C107     1.0000 0.78814  0.89690  0.99531  Biso   1.000  C
  H67      1.0000 0.75840  0.86260  0.96400  Biso   1.000  H
  C108     1.0000 0.84001  0.84840  0.99513  Biso   1.000  C
  H68      1.0000 0.84550  0.77980  0.96520  Biso   1.000  H
  Cu6      1.0000 0.70291  0.07882  0.02957  Biso   1.000  Cu
  N17      1.0000 0.62536  0.14810  0.01758  Biso   1.000  N
  N18      1.0000 0.27737  0.49020  0.03749  Biso   1.000  N
  C109     1.0000 0.61107  0.23520  0.05931  Biso   1.000  C
  H69      1.0000 0.63890  0.26920  0.09280  Biso   1.000  H
  C110     1.0000 0.55786  0.27880  0.05640  Biso   1.000  C
  H70      1.0000 0.54980  0.34130  0.08730  Biso   1.000  H
  C111     1.0000 0.51631  0.23130  0.00833  Biso   1.000  C
  C112     1.0000 0.53118  0.14010  0.96510  Biso   1.000  C
  H71      1.0000 0.50400  0.10360  0.93150  Biso   1.000  H
  C113     1.0000 0.58554  0.10210  0.97074  Biso   1.000  C
  H72      1.0000 0.59490  0.04080  0.94010  Biso   1.000  H
  C114     1.0000 0.45857  0.26960  0.00338  Biso   1.000  C
  H73      1.0000 0.43180  0.22570  0.97150  Biso   1.000  H
  C115     1.0000 0.44160  0.36210  0.04090  Biso   1.000  C
  H74      1.0000 0.46900  0.40730  0.07170  Biso   1.000  H
  C116     1.0000 0.38439  0.40080  0.03917  Biso   1.000  C
  C117     1.0000 0.37295  0.49680  0.08320  Biso   1.000  C
  H75      1.0000 0.40190  0.53520  0.11420  Biso   1.000  H
  C118     1.0000 0.31929  0.53620  0.08164  Biso   1.000  C
  H76      1.0000 0.31200  0.59830  0.11320  Biso   1.000  H
  C119     1.0000 0.28814  0.39690  0.99531  Biso   1.000  C
  H77      1.0000 0.25840  0.36260  0.96400  Biso   1.000  H
  C120     1.0000 0.34001  0.34840  0.99513  Biso   1.000  C
  H78      1.0000 0.34550  0.27980  0.96520  Biso   1.000  H
  Cu7      1.0000 0.20291  0.42118  0.52957  Biso   1.000  Cu
  N19      1.0000 0.12536  0.35190  0.51758  Biso   1.000  N
  N20      1.0000 0.77737  0.00980  0.53749  Biso   1.000  N
  C121     1.0000 0.11107  0.26480  0.55931  Biso   1.000  C
  H79      1.0000 0.13890  0.23080  0.59280  Biso   1.000  H
  C122     1.0000 0.05786  0.22120  0.55640  Biso   1.000  C
  H80      1.0000 0.04980  0.15870  0.58730  Biso   1.000  H
  C123     1.0000 0.01631  0.26870  0.50833  Biso   1.000  C
  C124     1.0000 0.03118  0.35990  0.46510  Biso   1.000  C
  H81      1.0000 0.00400  0.39640  0.43150  Biso   1.000  H
  C125     1.0000 0.08554  0.39790  0.47074  Biso   1.000  C
  H82      1.0000 0.09490  0.45920  0.44010  Biso   1.000  H
  C126     1.0000 0.95857  0.23040  0.50338  Biso   1.000  C
  H83      1.0000 0.93180  0.27430  0.47150  Biso   1.000  H
  C127     1.0000 0.94160  0.13790  0.54090  Biso   1.000  C
  H84      1.0000 0.96900  0.09270  0.57170  Biso   1.000  H
  C128     1.0000 0.88439  0.09920  0.53917  Biso   1.000  C
  C129     1.0000 0.87295  0.00320  0.58320  Biso   1.000  C
  H85      1.0000 0.90190  0.96480  0.61420  Biso   1.000  H
  C130     1.0000 0.81929  0.96380  0.58164  Biso   1.000  C
  H86      1.0000 0.81200  0.90170  0.61320  Biso   1.000  H
  C131     1.0000 0.78814  0.10310  0.49531  Biso   1.000  C
  H87      1.0000 0.75840  0.13740  0.46400  Biso   1.000  H
  C132     1.0000 0.84001  0.15160  0.49513  Biso   1.000  C
  H88      1.0000 0.84550  0.22020  0.46520  Biso   1.000  H
  Cu8      1.0000 0.70291  0.92118  0.52957  Biso   1.000  Cu
  N21      1.0000 0.62536  0.85190  0.51758  Biso   1.000  N
  N22      1.0000 0.27737  0.50980  0.53749  Biso   1.000  N
  C133     1.0000 0.61107  0.76480  0.55931  Biso   1.000  C
  H89      1.0000 0.63890  0.73080  0.59280  Biso   1.000  H
  C134     1.0000 0.55786  0.72120  0.55640  Biso   1.000  C
  H90      1.0000 0.54980  0.65870  0.58730  Biso   1.000  H
  C135     1.0000 0.51631  0.76870  0.50833  Biso   1.000  C
  C136     1.0000 0.53118  0.85990  0.46510  Biso   1.000  C
  H91      1.0000 0.50400  0.89640  0.43150  Biso   1.000  H
  C137     1.0000 0.58554  0.89790  0.47074  Biso   1.000  C
  H92      1.0000 0.59490  0.95920  0.44010  Biso   1.000  H
  C138     1.0000 0.45857  0.73040  0.50338  Biso   1.000  C
  H93      1.0000 0.43180  0.77430  0.47150  Biso   1.000  H
  C139     1.0000 0.44160  0.63790  0.54090  Biso   1.000  C
  H94      1.0000 0.46900  0.59270  0.57170  Biso   1.000  H
  C140     1.0000 0.38439  0.59920  0.53917  Biso   1.000  C
  C141     1.0000 0.37295  0.50320  0.58320  Biso   1.000  C
  H95      1.0000 0.40190  0.46480  0.61420  Biso   1.000  H
  C142     1.0000 0.31929  0.46380  0.58164  Biso   1.000  C
  H96      1.0000 0.31200  0.40170  0.61320  Biso   1.000  H
  C143     1.0000 0.28814  0.60310  0.49531  Biso   1.000  C
  H97      1.0000 0.25840  0.63740  0.46400  Biso   1.000  H
  C144     1.0000 0.34001  0.65160  0.49513  Biso   1.000  C
  H98      1.0000 0.34550  0.72020  0.46520  Biso   1.000  H
  O37      1.0000 0.76707  0.20200  0.93378  Biso   1.000  O
  O38      1.0000 0.69217  0.07650  0.93804  Biso   1.000  O
  O39      1.0000 0.70780  0.96330  0.61881  Biso   1.000  O
  O40      1.0000 0.63498  0.10770  0.60501  Biso   1.000  O
  O41      1.0000 0.82371  0.19480  0.72556  Biso   1.000  O
  O42      1.0000 0.75585  0.25050  0.64980  Biso   1.000  O
  N23      1.0000 0.77439  0.20080  0.70190  Biso   1.000  N
  C145     1.0000 0.72596  0.13350  0.90922  Biso   1.000  C
  C146     1.0000 0.71304  0.11200  0.83880  Biso   1.000  C
  C147     1.0000 0.66552  0.04310  0.80865  Biso   1.000  C
  H99      1.0000 0.64110  0.00670  0.83280  Biso   1.000  H
  C148     1.0000 0.65322  0.02670  0.74334  Biso   1.000  C
  H100     1.0000 0.62000  0.98190  0.72340  Biso   1.000  H
  C149     1.0000 0.68900  0.07500  0.70747  Biso   1.000  C
  C150     1.0000 0.73575  0.14540  0.73846  Biso   1.000  C
  C151     1.0000 0.74789  0.16610  0.80302  Biso   1.000  C
  H101     1.0000 0.77980  0.21700  0.82250  Biso   1.000  H
  C152     1.0000 0.67533  0.04980  0.63674  Biso   1.000  C
  O43      1.0000 0.26707  0.70200  0.93378  Biso   1.000  O
  O44      1.0000 0.19217  0.57650  0.93804  Biso   1.000  O
  O45      1.0000 0.20780  0.46330  0.61881  Biso   1.000  O
  O46      1.0000 0.13498  0.60770  0.60501  Biso   1.000  O
  O47      1.0000 0.32371  0.69480  0.72556  Biso   1.000  O
  O48      1.0000 0.25585  0.75050  0.64980  Biso   1.000  O
  N24      1.0000 0.27439  0.70080  0.70190  Biso   1.000  N
  C153     1.0000 0.22596  0.63350  0.90922  Biso   1.000  C
  C154     1.0000 0.21304  0.61200  0.83880  Biso   1.000  C
  C155     1.0000 0.16552  0.54310  0.80865  Biso   1.000  C
  H102     1.0000 0.14110  0.50670  0.83280  Biso   1.000  H
  C156     1.0000 0.15322  0.52670  0.74334  Biso   1.000  C
  H103     1.0000 0.12000  0.48190  0.72340  Biso   1.000  H
  C157     1.0000 0.18900  0.57500  0.70747  Biso   1.000  C
  C158     1.0000 0.23575  0.64540  0.73846  Biso   1.000  C
  C159     1.0000 0.24789  0.66610  0.80302  Biso   1.000  C
  H104     1.0000 0.27980  0.71700  0.82250  Biso   1.000  H
  C160     1.0000 0.17533  0.54980  0.63674  Biso   1.000  C
