data_image0
_cell_length_a       9.812
_cell_length_b       14.283
_cell_length_c       19.572
_cell_angle_alpha    90
_cell_angle_beta     96.941
_cell_angle_gamma    90

_symmetry_space_group_name_H-M    "P 1"
_symmetry_int_tables_number       1

loop_
  _symmetry_equiv_pos_as_xyz
  'x, y, z'

loop_
  _atom_site_label
  _atom_site_occupancy
  _atom_site_fract_x
  _atom_site_fract_y
  _atom_site_fract_z
  _atom_site_thermal_displace_type
  _atom_site_B_iso_or_equiv
  _atom_site_type_symbol
  Cd1      1.0000 0.73402  0.24952  0.34863  Biso   1.000  Cd
  C1       1.0000 0.26060  0.98670  0.27660  Biso   1.000  C
  H1       1.0000 0.22850  0.00310  0.23160  Biso   1.000  H
  C2       1.0000 0.18030  0.99890  0.32920  Biso   1.000  C
  C3       1.0000 0.22420  0.97420  0.39640  Biso   1.000  C
  H2       1.0000 0.16780  0.98280  0.43080  Biso   1.000  H
  C4       1.0000 0.35420  0.93630  0.41130  Biso   1.000  C
  C5       1.0000 0.43880  0.92440  0.36000  Biso   1.000  C
  H3       1.0000 0.52680  0.90010  0.37020  Biso   1.000  H
  C6       1.0000 0.38940  0.94950  0.29310  Biso   1.000  C
  C7       1.0000 0.99440  0.11180  0.34550  Biso   1.000  C
  H4       1.0000 0.04400  0.14630  0.38040  Biso   1.000  H
  C8       1.0000 0.83330  0.06320  0.27100  Biso   1.000  C
  H5       1.0000 0.74800  0.05760  0.24490  Biso   1.000  H
  C9       1.0000 0.94260  0.00710  0.26580  Biso   1.000  C
  H6       1.0000 0.94740  0.95770  0.23520  Biso   1.000  H
  C10      1.0000 0.32320  0.90170  0.53240  Biso   1.000  C
  H7       1.0000 0.23400  0.92450  0.53020  Biso   1.000  H
  C11      1.0000 0.51620  0.83910  0.56890  Biso   1.000  C
  H8       1.0000 0.58630  0.81010  0.59750  Biso   1.000  H
  C12      1.0000 0.52520  0.86560  0.50330  Biso   1.000  C
  H9       1.0000 0.60000  0.85790  0.47880  Biso   1.000  H
  C13      1.0000 0.56660  0.86410  0.23800  Biso   1.000  C
  H10      1.0000 0.58390  0.81840  0.27180  Biso   1.000  H
  C14      1.0000 0.57240  0.94350  0.14590  Biso   1.000  C
  H11      1.0000 0.59630  0.96340  0.10370  Biso   1.000  H
  C15      1.0000 0.47730  0.98450  0.18020  Biso   1.000  C
  H12      1.0000 0.42400  0.03650  0.16630  Biso   1.000  H
  C16      1.0000 0.53390  0.25160  0.23330  Biso   1.000  C
  C17      1.0000 0.31620  0.20690  0.98950  Biso   1.000  C
  C18      1.0000 0.30720  0.20570  0.06560  Biso   1.000  C
  C19      1.0000 0.42130  0.22790  0.11210  Biso   1.000  C
  H13      1.0000 0.50570  0.23890  0.09650  Biso   1.000  H
  C20      1.0000 0.40860  0.23370  0.18200  Biso   1.000  C
  C21      1.0000 0.28360  0.21890  0.20470  Biso   1.000  C
  H14      1.0000 0.27540  0.22380  0.25140  Biso   1.000  H
  C22      1.0000 0.16880  0.19660  0.15850  Biso   1.000  C
  C23      1.0000 0.18140  0.18810  0.08910  Biso   1.000  C
  H15      1.0000 0.10610  0.17080  0.05830  Biso   1.000  H
  N1       1.0000 0.86740  0.12930  0.32050  Biso   1.000  N
  N2       1.0000 0.04430  0.03740  0.31424  Biso   1.000  N
  N3       1.0000 0.38990  0.86100  0.58730  Biso   1.000  N
  N4       1.0000 0.40110  0.90620  0.47990  Biso   1.000  N
  N5       1.0000 0.62840  0.86870  0.18230  Biso   1.000  N
  N6       1.0000 0.47510  0.93360  0.23996  Biso   1.000  N
  O1       1.0000 0.65070  0.24120  0.21520  Biso   1.000  O
  O2       1.0000 0.51720  0.27470  0.29322  Biso   1.000  O
  O3       1.0000 0.41360  0.24900  0.96690  Biso   1.000  O
  O4       1.0000 0.21960  0.16990  0.95025  Biso   1.000  O
  O5       1.0000 0.04830  0.18340  0.18494  Biso   1.000  O
  H16      1.0000 0.98980  0.16490  0.15450  Biso   1.000  H
  Cd2      1.0000 0.76598  0.74952  0.15137  Biso   1.000  Cd
  C24      1.0000 0.23940  0.48670  0.22340  Biso   1.000  C
  H17      1.0000 0.27150  0.50310  0.26840  Biso   1.000  H
  C25      1.0000 0.31970  0.49890  0.17080  Biso   1.000  C
  C26      1.0000 0.27580  0.47420  0.10360  Biso   1.000  C
  H18      1.0000 0.33220  0.48280  0.06920  Biso   1.000  H
  C27      1.0000 0.14580  0.43630  0.08870  Biso   1.000  C
  C28      1.0000 0.06120  0.42440  0.14000  Biso   1.000  C
  H19      1.0000 0.97320  0.40010  0.12980  Biso   1.000  H
  C29      1.0000 0.11060  0.44950  0.20690  Biso   1.000  C
  C30      1.0000 0.50560  0.61180  0.15450  Biso   1.000  C
  H20      1.0000 0.45600  0.64630  0.11960  Biso   1.000  H
  C31      1.0000 0.66670  0.56320  0.22900  Biso   1.000  C
  H21      1.0000 0.75200  0.55760  0.25510  Biso   1.000  H
  C32      1.0000 0.55740  0.50710  0.23420  Biso   1.000  C
  H22      1.0000 0.55260  0.45770  0.26480  Biso   1.000  H
  C33      1.0000 0.17680  0.40170  0.96760  Biso   1.000  C
  H23      1.0000 0.26600  0.42450  0.96980  Biso   1.000  H
  C34      1.0000 0.98380  0.33910  0.93110  Biso   1.000  C
  H24      1.0000 0.91370  0.31010  0.90250  Biso   1.000  H
  C35      1.0000 0.97480  0.36560  0.99670  Biso   1.000  C
  H25      1.0000 0.90000  0.35790  0.02120  Biso   1.000  H
  C36      1.0000 0.93340  0.36410  0.26200  Biso   1.000  C
  H26      1.0000 0.91610  0.31840  0.22820  Biso   1.000  H
  C37      1.0000 0.92760  0.44350  0.35410  Biso   1.000  C
  H27      1.0000 0.90370  0.46340  0.39630  Biso   1.000  H
  C38      1.0000 0.02270  0.48450  0.31980  Biso   1.000  C
  H28      1.0000 0.07600  0.53650  0.33370  Biso   1.000  H
  C39      1.0000 0.96610  0.75160  0.26670  Biso   1.000  C
  C40      1.0000 0.18380  0.70690  0.51050  Biso   1.000  C
  C41      1.0000 0.19280  0.70570  0.43440  Biso   1.000  C
  C42      1.0000 0.07870  0.72790  0.38790  Biso   1.000  C
  H29      1.0000 0.99430  0.73890  0.40350  Biso   1.000  H
  C43      1.0000 0.09140  0.73370  0.31800  Biso   1.000  C
  C44      1.0000 0.21640  0.71890  0.29530  Biso   1.000  C
  H30      1.0000 0.22460  0.72380  0.24860  Biso   1.000  H
  C45      1.0000 0.33120  0.69660  0.34150  Biso   1.000  C
  C46      1.0000 0.31860  0.68810  0.41090  Biso   1.000  C
  H31      1.0000 0.39390  0.67080  0.44170  Biso   1.000  H
  N7       1.0000 0.63260  0.62930  0.17950  Biso   1.000  N
  N8       1.0000 0.45570  0.53740  0.18576  Biso   1.000  N
  N9       1.0000 0.11010  0.36100  0.91270  Biso   1.000  N
  N10      1.0000 0.09890  0.40620  0.02010  Biso   1.000  N
  N11      1.0000 0.87160  0.36870  0.31770  Biso   1.000  N
  N12      1.0000 0.02490  0.43360  0.26004  Biso   1.000  N
  O6       1.0000 0.84930  0.74120  0.28480  Biso   1.000  O
  O7       1.0000 0.98280  0.77470  0.20678  Biso   1.000  O
  O8       1.0000 0.08640  0.74900  0.53310  Biso   1.000  O
  O9       1.0000 0.28040  0.66990  0.54975  Biso   1.000  O
  O10      1.0000 0.45170  0.68340  0.31506  Biso   1.000  O
  H32      1.0000 0.51020  0.66490  0.34550  Biso   1.000  H
  Cd3      1.0000 0.26598  0.75048  0.65137  Biso   1.000  Cd
  C47      1.0000 0.73940  0.01330  0.72340  Biso   1.000  C
  H33      1.0000 0.77150  0.99690  0.76840  Biso   1.000  H
  C48      1.0000 0.81970  0.00110  0.67080  Biso   1.000  C
  C49      1.0000 0.77580  0.02580  0.60360  Biso   1.000  C
  H34      1.0000 0.83220  0.01720  0.56920  Biso   1.000  H
  C50      1.0000 0.64580  0.06370  0.58870  Biso   1.000  C
  C51      1.0000 0.56120  0.07560  0.64000  Biso   1.000  C
  H35      1.0000 0.47320  0.09990  0.62980  Biso   1.000  H
  C52      1.0000 0.61060  0.05050  0.70690  Biso   1.000  C
  C53      1.0000 0.00560  0.88820  0.65450  Biso   1.000  C
  H36      1.0000 0.95600  0.85370  0.61960  Biso   1.000  H
  C54      1.0000 0.16670  0.93680  0.72900  Biso   1.000  C
  H37      1.0000 0.25200  0.94240  0.75510  Biso   1.000  H
  C55      1.0000 0.05740  0.99290  0.73420  Biso   1.000  C
  H38      1.0000 0.05260  0.04230  0.76480  Biso   1.000  H
  C56      1.0000 0.67680  0.09830  0.46760  Biso   1.000  C
  H39      1.0000 0.76600  0.07550  0.46980  Biso   1.000  H
  C57      1.0000 0.48380  0.16090  0.43110  Biso   1.000  C
  H40      1.0000 0.41370  0.18990  0.40250  Biso   1.000  H
  C58      1.0000 0.47480  0.13440  0.49670  Biso   1.000  C
  H41      1.0000 0.40000  0.14210  0.52120  Biso   1.000  H
  C59      1.0000 0.43340  0.13590  0.76200  Biso   1.000  C
  H42      1.0000 0.41610  0.18160  0.72820  Biso   1.000  H
  C60      1.0000 0.42760  0.05650  0.85410  Biso   1.000  C
  H43      1.0000 0.40370  0.03660  0.89630  Biso   1.000  H
  C61      1.0000 0.52270  0.01550  0.81980  Biso   1.000  C
  H44      1.0000 0.57600  0.96350  0.83370  Biso   1.000  H
  C62      1.0000 0.46610  0.74840  0.76670  Biso   1.000  C
  C63      1.0000 0.68380  0.79310  0.01050  Biso   1.000  C
  C64      1.0000 0.69280  0.79430  0.93440  Biso   1.000  C
  C65      1.0000 0.57870  0.77210  0.88790  Biso   1.000  C
  H45      1.0000 0.49430  0.76110  0.90350  Biso   1.000  H
  C66      1.0000 0.59140  0.76630  0.81800  Biso   1.000  C
  C67      1.0000 0.71640  0.78110  0.79530  Biso   1.000  C
  H46      1.0000 0.72460  0.77620  0.74860  Biso   1.000  H
  C68      1.0000 0.83120  0.80340  0.84150  Biso   1.000  C
  C69      1.0000 0.81860  0.81190  0.91090  Biso   1.000  C
  H47      1.0000 0.89390  0.82920  0.94170  Biso   1.000  H
  N13      1.0000 0.13260  0.87070  0.67950  Biso   1.000  N
  N14      1.0000 0.95570  0.96260  0.68576  Biso   1.000  N
  N15      1.0000 0.61010  0.13900  0.41270  Biso   1.000  N
  N16      1.0000 0.59890  0.09380  0.52010  Biso   1.000  N
  N17      1.0000 0.37160  0.13130  0.81770  Biso   1.000  N
  N18      1.0000 0.52490  0.06640  0.76004  Biso   1.000  N
  O11      1.0000 0.34930  0.75880  0.78480  Biso   1.000  O
  O12      1.0000 0.48280  0.72530  0.70678  Biso   1.000  O
  O13      1.0000 0.58640  0.75100  0.03310  Biso   1.000  O
  O14      1.0000 0.78040  0.83010  0.04975  Biso   1.000  O
  O15      1.0000 0.95170  0.81660  0.81506  Biso   1.000  O
  H48      1.0000 0.01020  0.83510  0.84550  Biso   1.000  H
  Cd4      1.0000 0.23402  0.25048  0.84863  Biso   1.000  Cd
  C70      1.0000 0.76060  0.51330  0.77660  Biso   1.000  C
  H49      1.0000 0.72850  0.49690  0.73160  Biso   1.000  H
  C71      1.0000 0.68030  0.50110  0.82920  Biso   1.000  C
  C72      1.0000 0.72420  0.52580  0.89640  Biso   1.000  C
  H50      1.0000 0.66780  0.51720  0.93080  Biso   1.000  H
  C73      1.0000 0.85420  0.56370  0.91130  Biso   1.000  C
  C74      1.0000 0.93880  0.57560  0.86000  Biso   1.000  C
  H51      1.0000 0.02680  0.59990  0.87020  Biso   1.000  H
  C75      1.0000 0.88940  0.55050  0.79310  Biso   1.000  C
  C76      1.0000 0.49440  0.38820  0.84550  Biso   1.000  C
  H52      1.0000 0.54400  0.35370  0.88040  Biso   1.000  H
  C77      1.0000 0.33330  0.43680  0.77100  Biso   1.000  C
  H53      1.0000 0.24800  0.44240  0.74490  Biso   1.000  H
  C78      1.0000 0.44260  0.49290  0.76580  Biso   1.000  C
  H54      1.0000 0.44740  0.54230  0.73520  Biso   1.000  H
  C79      1.0000 0.82320  0.59830  0.03240  Biso   1.000  C
  H55      1.0000 0.73400  0.57550  0.03020  Biso   1.000  H
  C80      1.0000 0.01620  0.66090  0.06890  Biso   1.000  C
  H56      1.0000 0.08630  0.68990  0.09750  Biso   1.000  H
  C81      1.0000 0.02520  0.63440  0.00330  Biso   1.000  C
  H57      1.0000 0.10000  0.64210  0.97880  Biso   1.000  H
  C82      1.0000 0.06660  0.63590  0.73800  Biso   1.000  C
  H58      1.0000 0.08390  0.68160  0.77180  Biso   1.000  H
  C83      1.0000 0.07240  0.55650  0.64590  Biso   1.000  C
  H59      1.0000 0.09630  0.53660  0.60370  Biso   1.000  H
  C84      1.0000 0.97730  0.51550  0.68020  Biso   1.000  C
  H60      1.0000 0.92400  0.46350  0.66630  Biso   1.000  H
  C85      1.0000 0.03390  0.24840  0.73330  Biso   1.000  C
  C86      1.0000 0.81620  0.29310  0.48950  Biso   1.000  C
  C87      1.0000 0.80720  0.29430  0.56560  Biso   1.000  C
  C88      1.0000 0.92130  0.27210  0.61210  Biso   1.000  C
  H61      1.0000 0.00570  0.26110  0.59650  Biso   1.000  H
  C89      1.0000 0.90860  0.26630  0.68200  Biso   1.000  C
  C90      1.0000 0.78360  0.28110  0.70470  Biso   1.000  C
  H62      1.0000 0.77540  0.27620  0.75140  Biso   1.000  H
  C91      1.0000 0.66880  0.30340  0.65850  Biso   1.000  C
  C92      1.0000 0.68140  0.31190  0.58910  Biso   1.000  C
  H63      1.0000 0.60610  0.32920  0.55830  Biso   1.000  H
  N19      1.0000 0.36740  0.37070  0.82050  Biso   1.000  N
  N20      1.0000 0.54430  0.46260  0.81424  Biso   1.000  N
  N21      1.0000 0.88990  0.63900  0.08730  Biso   1.000  N
  N22      1.0000 0.90110  0.59380  0.97990  Biso   1.000  N
  N23      1.0000 0.12840  0.63130  0.68230  Biso   1.000  N
  N24      1.0000 0.97510  0.56640  0.73996  Biso   1.000  N
  O16      1.0000 0.15070  0.25880  0.71520  Biso   1.000  O
  O17      1.0000 0.01720  0.22530  0.79322  Biso   1.000  O
  O18      1.0000 0.91360  0.25100  0.46690  Biso   1.000  O
  O19      1.0000 0.71960  0.33010  0.45025  Biso   1.000  O
  O20      1.0000 0.54830  0.31660  0.68494  Biso   1.000  O
  H64      1.0000 0.48980  0.33510  0.65450  Biso   1.000  H
