data_image0
_cell_length_a       9.042
_cell_length_b       9.042
_cell_length_c       27.231
_cell_angle_alpha    90
_cell_angle_beta     90
_cell_angle_gamma    90

_symmetry_space_group_name_H-M    "P 1"
_symmetry_int_tables_number       1

loop_
  _symmetry_equiv_pos_as_xyz
  'x, y, z'

loop_
  _atom_site_label
  _atom_site_occupancy
  _atom_site_fract_x
  _atom_site_fract_y
  _atom_site_fract_z
  _atom_site_thermal_displace_type
  _atom_site_B_iso_or_equiv
  _atom_site_type_symbol
  Cd1      1.0000 0.18552  0.38249  0.19968  Biso   1.000  Cd
  C1       1.0000 0.48830  0.79750  0.30977  Biso   1.000  C
  H1       1.0000 0.41660  0.82500  0.33250  Biso   1.000  H
  C2       1.0000 0.52990  0.89170  0.27268  Biso   1.000  C
  C3       1.0000 0.63800  0.85650  0.23874  Biso   1.000  C
  H2       1.0000 0.66370  0.92240  0.21390  Biso   1.000  H
  C4       1.0000 0.70700  0.72000  0.24278  Biso   1.000  C
  C5       1.0000 0.66520  0.61910  0.27910  Biso   1.000  C
  H3       1.0000 0.70960  0.52650  0.28090  Biso   1.000  H
  C6       1.0000 0.55660  0.65940  0.31237  Biso   1.000  C
  C7       1.0000 0.38680  0.09190  0.23068  Biso   1.000  C
  H4       1.0000 0.37850  0.04680  0.20010  Biso   1.000  H
  C8       1.0000 0.36560  0.24600  0.29024  Biso   1.000  C
  H5       1.0000 0.33850  0.32900  0.30830  Biso   1.000  H
  C9       1.0000 0.44670  0.13100  0.30748  Biso   1.000  C
  H6       1.0000 0.48610  0.12050  0.33880  Biso   1.000  H
  C10      1.0000 0.87800  0.54870  0.20016  Biso   1.000  C
  H7       1.0000 0.83650  0.46090  0.21140  Biso   1.000  H
  C11      1.0000 0.01960  0.70370  0.16429  Biso   1.000  C
  H8       1.0000 0.09670  0.74280  0.14580  Biso   1.000  H
  C12      1.0000 0.91480  0.78400  0.18694  Biso   1.000  C
  H9       1.0000 0.90530  0.88640  0.18680  Biso   1.000  H
  C13      1.0000 0.59720  0.44490  0.36811  Biso   1.000  C
  H10      1.0000 0.69210  0.42140  0.35750  Biso   1.000  H
  C14      1.0000 0.38310  0.55780  0.37602  Biso   1.000  C
  H11      1.0000 0.30450  0.62320  0.37230  Biso   1.000  H
  C15      1.0000 0.39140  0.44260  0.40782  Biso   1.000  C
  H12      1.0000 0.31790  0.41530  0.42990  Biso   1.000  H
  N1       1.0000 0.32990  0.22070  0.24207  Biso   1.000  N
  N2       1.0000 0.45860  0.03420  0.26942  Biso   1.000  N
  N3       1.0000 0.99660  0.55650  0.17231  Biso   1.000  N
  N4       1.0000 0.82450  0.68430  0.21029  Biso   1.000  N
  N5       1.0000 0.51480  0.55850  0.35023  Biso   1.000  N
  N6       1.0000 0.52480  0.37290  0.40239  Biso   1.000  N
  Cd2      1.0000 0.81448  0.61751  0.69968  Biso   1.000  Cd
  C16      1.0000 0.51170  0.20250  0.80977  Biso   1.000  C
  H13      1.0000 0.58340  0.17500  0.83250  Biso   1.000  H
  C17      1.0000 0.47010  0.10830  0.77268  Biso   1.000  C
  C18      1.0000 0.36200  0.14350  0.73874  Biso   1.000  C
  H14      1.0000 0.33630  0.07760  0.71390  Biso   1.000  H
  C19      1.0000 0.29300  0.28000  0.74278  Biso   1.000  C
  C20      1.0000 0.33480  0.38090  0.77910  Biso   1.000  C
  H15      1.0000 0.29040  0.47350  0.78090  Biso   1.000  H
  C21      1.0000 0.44340  0.34060  0.81237  Biso   1.000  C
  C22      1.0000 0.61320  0.90810  0.73068  Biso   1.000  C
  H16      1.0000 0.62150  0.95320  0.70010  Biso   1.000  H
  C23      1.0000 0.63440  0.75400  0.79024  Biso   1.000  C
  H17      1.0000 0.66150  0.67100  0.80830  Biso   1.000  H
  C24      1.0000 0.55330  0.86900  0.80748  Biso   1.000  C
  H18      1.0000 0.51390  0.87950  0.83880  Biso   1.000  H
  C25      1.0000 0.12200  0.45130  0.70016  Biso   1.000  C
  H19      1.0000 0.16350  0.53910  0.71140  Biso   1.000  H
  C26      1.0000 0.98040  0.29630  0.66429  Biso   1.000  C
  H20      1.0000 0.90330  0.25720  0.64580  Biso   1.000  H
  C27      1.0000 0.08520  0.21600  0.68694  Biso   1.000  C
  H21      1.0000 0.09470  0.11360  0.68680  Biso   1.000  H
  C28      1.0000 0.40280  0.55510  0.86811  Biso   1.000  C
  H22      1.0000 0.30790  0.57860  0.85750  Biso   1.000  H
  C29      1.0000 0.61690  0.44220  0.87602  Biso   1.000  C
  H23      1.0000 0.69550  0.37680  0.87230  Biso   1.000  H
  C30      1.0000 0.60860  0.55740  0.90782  Biso   1.000  C
  H24      1.0000 0.68210  0.58470  0.92990  Biso   1.000  H
  N7       1.0000 0.67010  0.77930  0.74207  Biso   1.000  N
  N8       1.0000 0.54140  0.96580  0.76942  Biso   1.000  N
  N9       1.0000 0.00340  0.44350  0.67231  Biso   1.000  N
  N10      1.0000 0.17550  0.31570  0.71029  Biso   1.000  N
  N11      1.0000 0.48520  0.44150  0.85023  Biso   1.000  N
  N12      1.0000 0.47520  0.62710  0.90239  Biso   1.000  N
  Cd3      1.0000 0.61751  0.18552  0.44968  Biso   1.000  Cd
  C31      1.0000 0.20250  0.48830  0.55977  Biso   1.000  C
  H25      1.0000 0.17500  0.41660  0.58250  Biso   1.000  H
  C32      1.0000 0.10830  0.52990  0.52268  Biso   1.000  C
  C33      1.0000 0.14350  0.63800  0.48874  Biso   1.000  C
  H26      1.0000 0.07760  0.66370  0.46390  Biso   1.000  H
  C34      1.0000 0.28000  0.70700  0.49278  Biso   1.000  C
  C35      1.0000 0.38090  0.66520  0.52910  Biso   1.000  C
  H27      1.0000 0.47350  0.70960  0.53090  Biso   1.000  H
  C36      1.0000 0.34060  0.55660  0.56237  Biso   1.000  C
  C37      1.0000 0.90810  0.38680  0.48068  Biso   1.000  C
  H28      1.0000 0.95320  0.37850  0.45010  Biso   1.000  H
  C38      1.0000 0.75400  0.36560  0.54024  Biso   1.000  C
  H29      1.0000 0.67100  0.33850  0.55830  Biso   1.000  H
  C39      1.0000 0.86900  0.44670  0.55748  Biso   1.000  C
  H30      1.0000 0.87950  0.48610  0.58880  Biso   1.000  H
  C40      1.0000 0.45130  0.87800  0.45016  Biso   1.000  C
  H31      1.0000 0.53910  0.83650  0.46140  Biso   1.000  H
  C41      1.0000 0.29630  0.01960  0.41429  Biso   1.000  C
  H32      1.0000 0.25720  0.09670  0.39580  Biso   1.000  H
  C42      1.0000 0.21600  0.91480  0.43694  Biso   1.000  C
  H33      1.0000 0.11360  0.90530  0.43680  Biso   1.000  H
  C43      1.0000 0.55510  0.59720  0.61811  Biso   1.000  C
  H34      1.0000 0.57860  0.69210  0.60750  Biso   1.000  H
  C44      1.0000 0.44220  0.38310  0.62602  Biso   1.000  C
  H35      1.0000 0.37680  0.30450  0.62230  Biso   1.000  H
  C45      1.0000 0.55740  0.39140  0.65782  Biso   1.000  C
  H36      1.0000 0.58470  0.31790  0.67990  Biso   1.000  H
  N13      1.0000 0.77930  0.32990  0.49207  Biso   1.000  N
  N14      1.0000 0.96580  0.45860  0.51942  Biso   1.000  N
  N15      1.0000 0.44350  0.99660  0.42231  Biso   1.000  N
  N16      1.0000 0.31570  0.82450  0.46029  Biso   1.000  N
  N17      1.0000 0.44150  0.51480  0.60023  Biso   1.000  N
  N18      1.0000 0.62710  0.52480  0.65239  Biso   1.000  N
  Cd4      1.0000 0.38249  0.81448  0.94968  Biso   1.000  Cd
  C46      1.0000 0.79750  0.51170  0.05977  Biso   1.000  C
  H37      1.0000 0.82500  0.58340  0.08250  Biso   1.000  H
  C47      1.0000 0.89170  0.47010  0.02268  Biso   1.000  C
  C48      1.0000 0.85650  0.36200  0.98874  Biso   1.000  C
  H38      1.0000 0.92240  0.33630  0.96390  Biso   1.000  H
  C49      1.0000 0.72000  0.29300  0.99278  Biso   1.000  C
  C50      1.0000 0.61910  0.33480  0.02910  Biso   1.000  C
  H39      1.0000 0.52650  0.29040  0.03090  Biso   1.000  H
  C51      1.0000 0.65940  0.44340  0.06237  Biso   1.000  C
  C52      1.0000 0.09190  0.61320  0.98068  Biso   1.000  C
  H40      1.0000 0.04680  0.62150  0.95010  Biso   1.000  H
  C53      1.0000 0.24600  0.63440  0.04024  Biso   1.000  C
  H41      1.0000 0.32900  0.66150  0.05830  Biso   1.000  H
  C54      1.0000 0.13100  0.55330  0.05748  Biso   1.000  C
  H42      1.0000 0.12050  0.51390  0.08880  Biso   1.000  H
  C55      1.0000 0.54870  0.12200  0.95016  Biso   1.000  C
  H43      1.0000 0.46090  0.16350  0.96140  Biso   1.000  H
  C56      1.0000 0.70370  0.98040  0.91429  Biso   1.000  C
  H44      1.0000 0.74280  0.90330  0.89580  Biso   1.000  H
  C57      1.0000 0.78400  0.08520  0.93694  Biso   1.000  C
  H45      1.0000 0.88640  0.09470  0.93680  Biso   1.000  H
  C58      1.0000 0.44490  0.40280  0.11811  Biso   1.000  C
  H46      1.0000 0.42140  0.30790  0.10750  Biso   1.000  H
  C59      1.0000 0.55780  0.61690  0.12602  Biso   1.000  C
  H47      1.0000 0.62320  0.69550  0.12230  Biso   1.000  H
  C60      1.0000 0.44260  0.60860  0.15782  Biso   1.000  C
  H48      1.0000 0.41530  0.68210  0.17990  Biso   1.000  H
  N19      1.0000 0.22070  0.67010  0.99207  Biso   1.000  N
  N20      1.0000 0.03420  0.54140  0.01942  Biso   1.000  N
  N21      1.0000 0.55650  0.00340  0.92231  Biso   1.000  N
  N22      1.0000 0.68430  0.17550  0.96029  Biso   1.000  N
  N23      1.0000 0.55850  0.48520  0.10023  Biso   1.000  N
  N24      1.0000 0.37290  0.47520  0.15239  Biso   1.000  N
