data_image0
_cell_length_a       11.564
_cell_length_b       22.347
_cell_length_c       10.179
_cell_angle_alpha    90
_cell_angle_beta     103.343
_cell_angle_gamma    90

_symmetry_space_group_name_H-M    "P 1"
_symmetry_int_tables_number       1

loop_
  _symmetry_equiv_pos_as_xyz
  'x, y, z'

loop_
  _atom_site_label
  _atom_site_occupancy
  _atom_site_fract_x
  _atom_site_fract_y
  _atom_site_fract_z
  _atom_site_thermal_displace_type
  _atom_site_B_iso_or_equiv
  _atom_site_type_symbol
  Cd1      1.0000 0.18677  0.09006  0.85486  Biso   1.000  Cd
  C1       1.0000 0.17080  0.78723  0.74810  Biso   1.000  C
  H1       1.0000 0.09570  0.78870  0.69030  Biso   1.000  H
  C2       1.0000 0.22750  0.83921  0.80120  Biso   1.000  C
  C3       1.0000 0.34150  0.83694  0.88420  Biso   1.000  C
  H2       1.0000 0.37980  0.87190  0.92000  Biso   1.000  H
  C4       1.0000 0.39720  0.78204  0.91270  Biso   1.000  C
  C5       1.0000 0.34140  0.72910  0.86310  Biso   1.000  C
  H3       1.0000 0.37900  0.69240  0.88350  Biso   1.000  H
  C6       1.0000 0.22730  0.73292  0.78220  Biso   1.000  C
  C7       1.0000 0.19920  0.94642  0.84510  Biso   1.000  C
  H4       1.0000 0.26180  0.94940  0.92080  Biso   1.000  H
  C8       1.0000 0.05070  0.96782  0.68450  Biso   1.000  C
  H5       1.0000 0.99050  0.98950  0.62790  Biso   1.000  H
  C9       1.0000 0.07270  0.90939  0.67020  Biso   1.000  C
  H6       1.0000 0.03140  0.88360  0.60410  Biso   1.000  H
  C10      1.0000 0.59530  0.82569  0.99630  Biso   1.000  C
  H7       1.0000 0.58310  0.85720  0.93500  Biso   1.000  H
  C11      1.0000 0.67210  0.76815  0.15850  Biso   1.000  C
  H8       1.0000 0.72520  0.75180  0.23260  Biso   1.000  H
  C12      1.0000 0.56390  0.74507  0.10120  Biso   1.000  C
  H9       1.0000 0.52970  0.71090  0.12800  Biso   1.000  H
  C13      1.0000 0.04390  0.67295  0.73590  Biso   1.000  C
  H10      1.0000 0.99840  0.70110  0.76860  Biso   1.000  H
  C14      1.0000 0.09890  0.59356  0.64890  Biso   1.000  C
  H11      1.0000 0.09620  0.55590  0.60960  Biso   1.000  H
  C15      1.0000 0.19640  0.62884  0.67980  Biso   1.000  C
  H12      1.0000 0.27150  0.62040  0.66620  Biso   1.000  H
  C16      1.0000 0.26610  0.07146  0.13440  Biso   1.000  C
  C17      1.0000 0.28670  0.09016  0.63170  Biso   1.000  C
  C18      1.0000 0.66330  0.07113  0.46540  Biso   1.000  C
  H13      1.0000 0.69470  0.11010  0.45390  Biso   1.000  H
  H14      1.0000 0.68620  0.04360  0.40370  Biso   1.000  H
  H15      1.0000 0.69420  0.05770  0.55630  Biso   1.000  H
  C19      1.0000 0.33790  0.07503  0.27840  Biso   1.000  C
  C20      1.0000 0.28150  0.08486  0.38340  Biso   1.000  C
  H16      1.0000 0.19970  0.09050  0.36500  Biso   1.000  H
  C21      1.0000 0.34830  0.08626  0.51630  Biso   1.000  C
  C22      1.0000 0.47110  0.08114  0.54140  Biso   1.000  C
  H17      1.0000 0.51540  0.08230  0.63010  Biso   1.000  H
  C23      1.0000 0.52940  0.07435  0.43760  Biso   1.000  C
  C24      1.0000 0.46090  0.07006  0.30640  Biso   1.000  C
  H18      1.0000 0.49820  0.06370  0.23590  Biso   1.000  H
  N1       1.0000 0.12960  0.99103  0.79490  Biso   1.000  N
  N2       1.0000 0.16940  0.89542  0.77390  Biso   1.000  N
  N3       1.0000 0.69230  0.81886  0.09190  Biso   1.000  N
  N4       1.0000 0.51530  0.78187  0.99700  Biso   1.000  N
  N5       1.0000 0.00387  0.62158  0.68400  Biso   1.000  N
  N6       1.0000 0.16079  0.68003  0.73580  Biso   1.000  N
  O1       1.0000 0.16280  0.09095  0.10490  Biso   1.000  O
  O2       1.0000 0.31733  0.05068  0.04711  Biso   1.000  O
  O3       1.0000 0.18427  0.11200  0.61290  Biso   1.000  O
  O4       1.0000 0.34030  0.06948  0.74421  Biso   1.000  O
  Cd2      1.0000 0.81323  0.59006  0.64514  Biso   1.000  Cd
  C25      1.0000 0.82920  0.28723  0.75190  Biso   1.000  C
  H19      1.0000 0.90430  0.28870  0.80970  Biso   1.000  H
  C26      1.0000 0.77250  0.33921  0.69880  Biso   1.000  C
  C27      1.0000 0.65850  0.33694  0.61580  Biso   1.000  C
  H20      1.0000 0.62020  0.37190  0.58000  Biso   1.000  H
  C28      1.0000 0.60280  0.28204  0.58730  Biso   1.000  C
  C29      1.0000 0.65860  0.22910  0.63690  Biso   1.000  C
  H21      1.0000 0.62100  0.19240  0.61650  Biso   1.000  H
  C30      1.0000 0.77270  0.23292  0.71780  Biso   1.000  C
  C31      1.0000 0.80080  0.44642  0.65490  Biso   1.000  C
  H22      1.0000 0.73820  0.44940  0.57920  Biso   1.000  H
  C32      1.0000 0.94930  0.46782  0.81550  Biso   1.000  C
  H23      1.0000 0.00950  0.48950  0.87210  Biso   1.000  H
  C33      1.0000 0.92730  0.40939  0.82980  Biso   1.000  C
  H24      1.0000 0.96860  0.38360  0.89590  Biso   1.000  H
  C34      1.0000 0.40470  0.32569  0.50370  Biso   1.000  C
  H25      1.0000 0.41690  0.35720  0.56500  Biso   1.000  H
  C35      1.0000 0.32790  0.26815  0.34150  Biso   1.000  C
  H26      1.0000 0.27480  0.25180  0.26740  Biso   1.000  H
  C36      1.0000 0.43610  0.24507  0.39880  Biso   1.000  C
  H27      1.0000 0.47030  0.21090  0.37200  Biso   1.000  H
  C37      1.0000 0.95610  0.17295  0.76410  Biso   1.000  C
  H28      1.0000 0.00160  0.20110  0.73140  Biso   1.000  H
  C38      1.0000 0.90110  0.09356  0.85110  Biso   1.000  C
  H29      1.0000 0.90380  0.05590  0.89040  Biso   1.000  H
  C39      1.0000 0.80360  0.12884  0.82020  Biso   1.000  C
  H30      1.0000 0.72850  0.12040  0.83380  Biso   1.000  H
  C40      1.0000 0.73390  0.57146  0.36560  Biso   1.000  C
  C41      1.0000 0.71330  0.59016  0.86830  Biso   1.000  C
  C42      1.0000 0.33670  0.57113  0.03460  Biso   1.000  C
  H31      1.0000 0.30530  0.61010  0.04610  Biso   1.000  H
  H32      1.0000 0.31380  0.54360  0.09630  Biso   1.000  H
  H33      1.0000 0.30580  0.55770  0.94370  Biso   1.000  H
  C43      1.0000 0.66210  0.57503  0.22160  Biso   1.000  C
  C44      1.0000 0.71850  0.58486  0.11660  Biso   1.000  C
  H34      1.0000 0.80030  0.59050  0.13500  Biso   1.000  H
  C45      1.0000 0.65170  0.58626  0.98370  Biso   1.000  C
  C46      1.0000 0.52890  0.58114  0.95860  Biso   1.000  C
  H35      1.0000 0.48460  0.58230  0.86990  Biso   1.000  H
  C47      1.0000 0.47060  0.57435  0.06240  Biso   1.000  C
  C48      1.0000 0.53910  0.57006  0.19360  Biso   1.000  C
  H36      1.0000 0.50180  0.56370  0.26410  Biso   1.000  H
  N7       1.0000 0.87040  0.49103  0.70510  Biso   1.000  N
  N8       1.0000 0.83060  0.39542  0.72610  Biso   1.000  N
  N9       1.0000 0.30770  0.31886  0.40810  Biso   1.000  N
  N10      1.0000 0.48470  0.28187  0.50300  Biso   1.000  N
  N11      1.0000 0.99613  0.12158  0.81600  Biso   1.000  N
  N12      1.0000 0.83921  0.18003  0.76420  Biso   1.000  N
  O5       1.0000 0.83720  0.59095  0.39510  Biso   1.000  O
  O6       1.0000 0.68267  0.55068  0.45289  Biso   1.000  O
  O7       1.0000 0.81573  0.61200  0.88710  Biso   1.000  O
  O8       1.0000 0.65970  0.56948  0.75579  Biso   1.000  O
  Cd3      1.0000 0.81323  0.90994  0.14514  Biso   1.000  Cd
  C49      1.0000 0.82920  0.21277  0.25190  Biso   1.000  C
  H37      1.0000 0.90430  0.21130  0.30970  Biso   1.000  H
  C50      1.0000 0.77250  0.16079  0.19880  Biso   1.000  C
  C51      1.0000 0.65850  0.16306  0.11580  Biso   1.000  C
  H38      1.0000 0.62020  0.12810  0.08000  Biso   1.000  H
  C52      1.0000 0.60280  0.21796  0.08730  Biso   1.000  C
  C53      1.0000 0.65860  0.27090  0.13690  Biso   1.000  C
  H39      1.0000 0.62100  0.30760  0.11650  Biso   1.000  H
  C54      1.0000 0.77270  0.26708  0.21780  Biso   1.000  C
  C55      1.0000 0.80080  0.05358  0.15490  Biso   1.000  C
  H40      1.0000 0.73820  0.05060  0.07920  Biso   1.000  H
  C56      1.0000 0.94930  0.03218  0.31550  Biso   1.000  C
  H41      1.0000 0.00950  0.01050  0.37210  Biso   1.000  H
  C57      1.0000 0.92730  0.09061  0.32980  Biso   1.000  C
  H42      1.0000 0.96860  0.11640  0.39590  Biso   1.000  H
  C58      1.0000 0.40470  0.17431  0.00370  Biso   1.000  C
  H43      1.0000 0.41690  0.14280  0.06500  Biso   1.000  H
  C59      1.0000 0.32790  0.23185  0.84150  Biso   1.000  C
  H44      1.0000 0.27480  0.24820  0.76740  Biso   1.000  H
  C60      1.0000 0.43610  0.25493  0.89880  Biso   1.000  C
  H45      1.0000 0.47030  0.28910  0.87200  Biso   1.000  H
  C61      1.0000 0.95610  0.32705  0.26410  Biso   1.000  C
  H46      1.0000 0.00160  0.29890  0.23140  Biso   1.000  H
  C62      1.0000 0.90110  0.40644  0.35110  Biso   1.000  C
  H47      1.0000 0.90380  0.44410  0.39040  Biso   1.000  H
  C63      1.0000 0.80360  0.37116  0.32020  Biso   1.000  C
  H48      1.0000 0.72850  0.37960  0.33380  Biso   1.000  H
  C64      1.0000 0.73390  0.92854  0.86560  Biso   1.000  C
  C65      1.0000 0.71330  0.90984  0.36830  Biso   1.000  C
  C66      1.0000 0.33670  0.92887  0.53460  Biso   1.000  C
  H49      1.0000 0.30530  0.88990  0.54610  Biso   1.000  H
  H50      1.0000 0.31380  0.95640  0.59630  Biso   1.000  H
  H51      1.0000 0.30580  0.94230  0.44370  Biso   1.000  H
  C67      1.0000 0.66210  0.92497  0.72160  Biso   1.000  C
  C68      1.0000 0.71850  0.91514  0.61660  Biso   1.000  C
  H52      1.0000 0.80030  0.90950  0.63500  Biso   1.000  H
  C69      1.0000 0.65170  0.91374  0.48370  Biso   1.000  C
  C70      1.0000 0.52890  0.91886  0.45860  Biso   1.000  C
  H53      1.0000 0.48460  0.91770  0.36990  Biso   1.000  H
  C71      1.0000 0.47060  0.92565  0.56240  Biso   1.000  C
  C72      1.0000 0.53910  0.92994  0.69360  Biso   1.000  C
  H54      1.0000 0.50180  0.93630  0.76410  Biso   1.000  H
  N13      1.0000 0.87040  0.00897  0.20510  Biso   1.000  N
  N14      1.0000 0.83060  0.10458  0.22610  Biso   1.000  N
  N15      1.0000 0.30770  0.18114  0.90810  Biso   1.000  N
  N16      1.0000 0.48470  0.21813  0.00300  Biso   1.000  N
  N17      1.0000 0.99613  0.37842  0.31600  Biso   1.000  N
  N18      1.0000 0.83921  0.31997  0.26420  Biso   1.000  N
  O9       1.0000 0.83720  0.90905  0.89510  Biso   1.000  O
  O10      1.0000 0.68267  0.94932  0.95289  Biso   1.000  O
  O11      1.0000 0.81573  0.88800  0.38710  Biso   1.000  O
  O12      1.0000 0.65970  0.93052  0.25579  Biso   1.000  O
  Cd4      1.0000 0.18677  0.40994  0.35486  Biso   1.000  Cd
  C73      1.0000 0.17080  0.71277  0.24810  Biso   1.000  C
  H55      1.0000 0.09570  0.71130  0.19030  Biso   1.000  H
  C74      1.0000 0.22750  0.66079  0.30120  Biso   1.000  C
  C75      1.0000 0.34150  0.66306  0.38420  Biso   1.000  C
  H56      1.0000 0.37980  0.62810  0.42000  Biso   1.000  H
  C76      1.0000 0.39720  0.71796  0.41270  Biso   1.000  C
  C77      1.0000 0.34140  0.77090  0.36310  Biso   1.000  C
  H57      1.0000 0.37900  0.80760  0.38350  Biso   1.000  H
  C78      1.0000 0.22730  0.76708  0.28220  Biso   1.000  C
  C79      1.0000 0.19920  0.55358  0.34510  Biso   1.000  C
  H58      1.0000 0.26180  0.55060  0.42080  Biso   1.000  H
  C80      1.0000 0.05070  0.53218  0.18450  Biso   1.000  C
  H59      1.0000 0.99050  0.51050  0.12790  Biso   1.000  H
  C81      1.0000 0.07270  0.59061  0.17020  Biso   1.000  C
  H60      1.0000 0.03140  0.61640  0.10410  Biso   1.000  H
  C82      1.0000 0.59530  0.67431  0.49630  Biso   1.000  C
  H61      1.0000 0.58310  0.64280  0.43500  Biso   1.000  H
  C83      1.0000 0.67210  0.73185  0.65850  Biso   1.000  C
  H62      1.0000 0.72520  0.74820  0.73260  Biso   1.000  H
  C84      1.0000 0.56390  0.75493  0.60120  Biso   1.000  C
  H63      1.0000 0.52970  0.78910  0.62800  Biso   1.000  H
  C85      1.0000 0.04390  0.82705  0.23590  Biso   1.000  C
  H64      1.0000 0.99840  0.79890  0.26860  Biso   1.000  H
  C86      1.0000 0.09890  0.90644  0.14890  Biso   1.000  C
  H65      1.0000 0.09620  0.94410  0.10960  Biso   1.000  H
  C87      1.0000 0.19640  0.87116  0.17980  Biso   1.000  C
  H66      1.0000 0.27150  0.87960  0.16620  Biso   1.000  H
  C88      1.0000 0.26610  0.42854  0.63440  Biso   1.000  C
  C89      1.0000 0.28670  0.40984  0.13170  Biso   1.000  C
  C90      1.0000 0.66330  0.42887  0.96540  Biso   1.000  C
  H67      1.0000 0.69470  0.38990  0.95390  Biso   1.000  H
  H68      1.0000 0.68620  0.45640  0.90370  Biso   1.000  H
  H69      1.0000 0.69420  0.44230  0.05630  Biso   1.000  H
  C91      1.0000 0.33790  0.42497  0.77840  Biso   1.000  C
  C92      1.0000 0.28150  0.41514  0.88340  Biso   1.000  C
  H70      1.0000 0.19970  0.40950  0.86500  Biso   1.000  H
  C93      1.0000 0.34830  0.41374  0.01630  Biso   1.000  C
  C94      1.0000 0.47110  0.41886  0.04140  Biso   1.000  C
  H71      1.0000 0.51540  0.41770  0.13010  Biso   1.000  H
  C95      1.0000 0.52940  0.42565  0.93760  Biso   1.000  C
  C96      1.0000 0.46090  0.42994  0.80640  Biso   1.000  C
  H72      1.0000 0.49820  0.43630  0.73590  Biso   1.000  H
  N19      1.0000 0.12960  0.50897  0.29490  Biso   1.000  N
  N20      1.0000 0.16940  0.60458  0.27390  Biso   1.000  N
  N21      1.0000 0.69230  0.68114  0.59190  Biso   1.000  N
  N22      1.0000 0.51530  0.71813  0.49700  Biso   1.000  N
  N23      1.0000 0.00387  0.87842  0.18400  Biso   1.000  N
  N24      1.0000 0.16079  0.81997  0.23580  Biso   1.000  N
  O13      1.0000 0.16280  0.40905  0.60490  Biso   1.000  O
  O14      1.0000 0.31733  0.44932  0.54711  Biso   1.000  O
  O15      1.0000 0.18427  0.38800  0.11290  Biso   1.000  O
  O16      1.0000 0.34030  0.43052  0.24421  Biso   1.000  O
