data_TULLIW_clean
_audit_creation_date              2014-07-02
_audit_creation_method            'Materials Studio'
_symmetry_space_group_name_H-M    'P1'
_symmetry_Int_Tables_number       1
_symmetry_cell_setting            triclinic
loop_
_symmetry_equiv_pos_as_xyz
  x,y,z
_cell_length_a                    10.3123
_cell_length_b                    10.3123
_cell_length_c                    15.0620
_cell_angle_alpha                 70.3279
_cell_angle_beta                  70.3279
_cell_angle_gamma                 77.8611
loop_
_atom_site_label
_atom_site_type_symbol
_atom_site_fract_x
_atom_site_fract_y
_atom_site_fract_z
_atom_site_U_iso_or_equiv
_atom_site_adp_type
_atom_site_occupancy
Cd1    Cd    0.32715   0.85749   0.48432   0.01267  Uiso   1.00
Cd2    Cd    0.17009   0.78933   0.15322   0.01267  Uiso   1.00
Cd3    Cd    0.91162   0.28028   0.22959   0.01267  Uiso   1.00
Cd4    Cd    0.84195   0.54019   0.61716   0.01267  Uiso   1.00
Cd5    Cd    0.85749   0.32715   0.98432   0.01267  Uiso   1.00
Cd6    Cd    0.78933   0.17009   0.65322   0.01267  Uiso   1.00
Cd7    Cd    0.28028   0.91162   0.72959   0.01267  Uiso   1.00
Cd8    Cd    0.54019   0.84195   0.11716   0.01267  Uiso   1.00
H1     H     0.63280   0.90360   0.31620   0.01267  Uiso   1.00
H2     H     0.66620   0.82760   0.41660   0.01267  Uiso   1.00
H3     H     0.77800   0.00660   0.40190   0.01267  Uiso   1.00
H4     H     0.84050   0.96590   0.30340   0.01267  Uiso   1.00
H5     H     0.60610   0.21330   0.40710   0.01267  Uiso   1.00
H6     H     0.57040   0.30360   0.30950   0.01267  Uiso   1.00
H7     H     0.39510   0.16570   0.41090   0.01267  Uiso   1.00
H8     H     0.46250   0.12770   0.31140   0.01267  Uiso   1.00
H9     H     0.91470   0.63550   0.36390   0.01267  Uiso   1.00
H10    H     0.17140   0.01220   0.28840   0.01267  Uiso   1.00
H11    H     0.93800   0.82600   0.64380   0.01267  Uiso   1.00
H12    H     0.70980   0.14560   0.23380   0.01267  Uiso   1.00
H13    H     0.52430   0.98590   0.48140   0.01267  Uiso   1.00
H14    H     0.90360   0.63280   0.81620   0.01267  Uiso   1.00
H15    H     0.82760   0.66620   0.91660   0.01267  Uiso   1.00
H16    H     0.00660   0.77800   0.90190   0.01267  Uiso   1.00
H17    H     0.96590   0.84050   0.80340   0.01267  Uiso   1.00
H18    H     0.21330   0.60610   0.90710   0.01267  Uiso   1.00
H19    H     0.30360   0.57040   0.80950   0.01267  Uiso   1.00
H20    H     0.16570   0.39510   0.91090   0.01267  Uiso   1.00
H21    H     0.12770   0.46250   0.81140   0.01267  Uiso   1.00
H22    H     0.63550   0.91470   0.86390   0.01267  Uiso   1.00
H23    H     0.01220   0.17140   0.78840   0.01267  Uiso   1.00
H24    H     0.82600   0.93800   0.14380   0.01267  Uiso   1.00
H25    H     0.14560   0.70980   0.73380   0.01267  Uiso   1.00
H26    H     0.98590   0.52430   0.98140   0.01267  Uiso   1.00
C1     C     0.64240   0.91760   0.37410   0.01267  Uiso   1.00
C2     C     0.75790   0.00690   0.34330   0.01267  Uiso   1.00
C3     C     0.59420   0.20960   0.34690   0.01267  Uiso   1.00
C4     C     0.47900   0.12520   0.37170   0.01267  Uiso   1.00
C5     C     0.14217   0.61457   0.56550   0.01267  Uiso   1.00
C6     C     0.11466   0.64326   0.46990   0.01267  Uiso   1.00
C7     C     0.18173   0.69953   0.37100   0.01267  Uiso   1.00
C8     C     0.32110   0.74650   0.31570   0.01267  Uiso   1.00
C9     C     0.98909   0.64569   0.38170   0.01267  Uiso   1.00
C10    C     0.09575   0.07095   0.57710   0.01267  Uiso   1.00
C11    C     0.08210   0.09730   0.47600   0.01267  Uiso   1.00
C12    C     0.00136   0.19376   0.41964   0.01267  Uiso   1.00
C13    C     0.89236   0.31236   0.43320   0.01267  Uiso   1.00
C14    C     0.13250   0.05490   0.33830   0.01267  Uiso   1.00
C15    C     0.54681   0.07721   0.62475   0.01267  Uiso   1.00
C16    C     0.64756   0.95096   0.63270   0.01267  Uiso   1.00
C17    C     0.65328   0.81188   0.63777   0.01267  Uiso   1.00
C18    C     0.55482   0.72962   0.63070   0.01267  Uiso   1.00
C19    C     0.84670   0.84370   0.64170   0.01267  Uiso   1.00
C20    C     0.91760   0.64240   0.87410   0.01267  Uiso   1.00
C21    C     0.00690   0.75790   0.84330   0.01267  Uiso   1.00
C22    C     0.20960   0.59420   0.84690   0.01267  Uiso   1.00
C23    C     0.12520   0.47900   0.87170   0.01267  Uiso   1.00
C24    C     0.61457   0.14217   0.06550   0.01267  Uiso   1.00
C25    C     0.64326   0.11466   0.96990   0.01267  Uiso   1.00
C26    C     0.69953   0.18173   0.87100   0.01267  Uiso   1.00
C27    C     0.74650   0.32110   0.81570   0.01267  Uiso   1.00
C28    C     0.64569   0.98909   0.88170   0.01267  Uiso   1.00
C29    C     0.07095   0.09575   0.07710   0.01267  Uiso   1.00
C30    C     0.09730   0.08210   0.97600   0.01267  Uiso   1.00
C31    C     0.19376   0.00136   0.91964   0.01267  Uiso   1.00
C32    C     0.31236   0.89236   0.93320   0.01267  Uiso   1.00
C33    C     0.05490   0.13250   0.83830   0.01267  Uiso   1.00
C34    C     0.07721   0.54681   0.12475   0.01267  Uiso   1.00
C35    C     0.95096   0.64756   0.13270   0.01267  Uiso   1.00
C36    C     0.81188   0.65328   0.13777   0.01267  Uiso   1.00
C37    C     0.72962   0.55482   0.13070   0.01267  Uiso   1.00
C38    C     0.84370   0.84670   0.14170   0.01267  Uiso   1.00
N1     N     0.72729   0.14989   0.28800   0.01267  Uiso   1.00
N2     N     0.50945   0.98065   0.42651   0.01267  Uiso   1.00
N3     N     0.10337   0.69917   0.31615   0.01267  Uiso   1.00
N4     N     0.99177   0.60937   0.47208   0.01267  Uiso   1.00
N5     N     0.16744   0.01384   0.41952   0.01267  Uiso   1.00
N6     N     0.03546   0.16420   0.33268   0.01267  Uiso   1.00
N7     N     0.77527   0.96703   0.63584   0.01267  Uiso   1.00
N8     N     0.77756   0.74734   0.64416   0.01267  Uiso   1.00
N9     N     0.14989   0.72729   0.78800   0.01267  Uiso   1.00
N10    N     0.98065   0.50945   0.92651   0.01267  Uiso   1.00
N11    N     0.69917   0.10337   0.81615   0.01267  Uiso   1.00
N12    N     0.60937   0.99177   0.97208   0.01267  Uiso   1.00
N13    N     0.01384   0.16744   0.91952   0.01267  Uiso   1.00
N14    N     0.16420   0.03546   0.83268   0.01267  Uiso   1.00
N15    N     0.96703   0.77527   0.13584   0.01267  Uiso   1.00
N16    N     0.74734   0.77756   0.14416   0.01267  Uiso   1.00
O1     O     0.24368   0.65912   0.57054   0.01267  Uiso   1.00
O2     O     0.06013   0.54507   0.63902   0.01267  Uiso   1.00
O3     O     0.40385   0.76033   0.35425   0.01267  Uiso   1.00
O4     O     0.34816   0.77838   0.22312   0.01267  Uiso   1.00
O5     O     0.19171   0.97537   0.59788   0.01267  Uiso   1.00
O6     O     0.02238   0.13436   0.63308   0.01267  Uiso   1.00
O7     O     0.84793   0.34171   0.51519   0.01267  Uiso   1.00
O8     O     0.84844   0.38156   0.36045   0.01267  Uiso   1.00
O9     O     0.58156   0.18754   0.61877   0.01267  Uiso   1.00
O10    O     0.42851   0.06847   0.62036   0.01267  Uiso   1.00
O11    O     0.43157   0.78043   0.63171   0.01267  Uiso   1.00
O12    O     0.60406   0.61108   0.62056   0.01267  Uiso   1.00
O13    O     0.65912   0.24368   0.07054   0.01267  Uiso   1.00
O14    O     0.54507   0.06013   0.13902   0.01267  Uiso   1.00
O15    O     0.76033   0.40385   0.85425   0.01267  Uiso   1.00
O16    O     0.77838   0.34816   0.72312   0.01267  Uiso   1.00
O17    O     0.97537   0.19171   0.09788   0.01267  Uiso   1.00
O18    O     0.13436   0.02238   0.13308   0.01267  Uiso   1.00
O19    O     0.34171   0.84793   0.01519   0.01267  Uiso   1.00
O20    O     0.38156   0.84844   0.86045   0.01267  Uiso   1.00
O21    O     0.18754   0.58156   0.11877   0.01267  Uiso   1.00
O22    O     0.06847   0.42851   0.12036   0.01267  Uiso   1.00
O23    O     0.78043   0.43157   0.13171   0.01267  Uiso   1.00
O24    O     0.61108   0.60406   0.12056   0.01267  Uiso   1.00
