data_image0
_cell_length_a       14.944
_cell_length_b       16.94
_cell_length_c       10.384
_cell_angle_alpha    90
_cell_angle_beta     123.74
_cell_angle_gamma    90

_symmetry_space_group_name_H-M    "P 1"
_symmetry_int_tables_number       1

loop_
  _symmetry_equiv_pos_as_xyz
  'x, y, z'

loop_
  _atom_site_label
  _atom_site_occupancy
  _atom_site_fract_x
  _atom_site_fract_y
  _atom_site_fract_z
  _atom_site_thermal_displace_type
  _atom_site_B_iso_or_equiv
  _atom_site_type_symbol
  Co1      1.0000 0.15470  0.45180  0.67146  Biso   1.000  Co
  O1       1.0000 0.14317  0.49604  0.85270  Biso   1.000  O
  N1       1.0000 0.99090  0.47405  0.48980  Biso   1.000  N
  N2       1.0000 0.19940  0.57668  0.68700  Biso   1.000  N
  O2       1.0000 0.18549  0.40247  0.51450  Biso   1.000  O
  N3       1.0000 0.11150  0.33807  0.70280  Biso   1.000  N
  C1       1.0000 0.17420  0.56537  0.89820  Biso   1.000  C
  C2       1.0000 0.93400  0.53750  0.47990  Biso   1.000  C
  C3       1.0000 0.94060  0.42296  0.37080  Biso   1.000  C
  S1       1.0000 0.23794  0.63992  0.60764  Biso   1.000  S
  C4       1.0000 0.20180  0.61408  0.80310  Biso   1.000  C
  C5       1.0000 0.83100  0.55240  0.35340  Biso   1.000  C
  H1       1.0000 0.96520  0.57320  0.56170  Biso   1.000  H
  C6       1.0000 0.83870  0.43427  0.24040  Biso   1.000  C
  H2       1.0000 0.97690  0.37700  0.37700  Biso   1.000  H
  N4       1.0000 0.25710  0.71612  0.71820  Biso   1.000  N
  C7       1.0000 0.23350  0.69454  0.81890  Biso   1.000  C
  H3       1.0000 0.79490  0.59750  0.35170  Biso   1.000  H
  C8       1.0000 0.78110  0.50088  0.22950  Biso   1.000  C
  H4       1.0000 0.80890  0.39750  0.16040  Biso   1.000  H
  C9       1.0000 0.24160  0.75506  0.93480  Biso   1.000  C
  C10      1.0000 0.67080  0.51820  0.08520  Biso   1.000  C
  O3       1.0000 0.15850  0.79226  0.89410  Biso   1.000  O
  O4       1.0000 0.33170  0.76317  0.05720  Biso   1.000  O
  H5       1.0000 0.61960  0.52640  0.11360  Biso   1.000  H
  H6       1.0000 0.64670  0.47330  0.01550  Biso   1.000  H
  C11      1.0000 0.67490  0.59130  0.00360  Biso   1.000  C
  C12      1.0000 0.56960  0.61150  0.85320  Biso   1.000  C
  H7       1.0000 0.69660  0.63590  0.07340  Biso   1.000  H
  H8       1.0000 0.72970  0.58350  0.98210  Biso   1.000  H
  H9       1.0000 0.55170  0.57050  0.77740  Biso   1.000  H
  H10      1.0000 0.51240  0.61400  0.87090  Biso   1.000  H
  C13      1.0000 0.57840  0.68981  0.79150  Biso   1.000  C
  C14      1.0000 0.51720  0.75540  0.77700  Biso   1.000  C
  C15      1.0000 0.65340  0.70110  0.75440  Biso   1.000  C
  H11      1.0000 0.46390  0.75080  0.79690  Biso   1.000  H
  C16      1.0000 0.53580  0.82720  0.73330  Biso   1.000  C
  H12      1.0000 0.69480  0.65880  0.75900  Biso   1.000  H
  C17      1.0000 0.66720  0.77413  0.71100  Biso   1.000  C
  H13      1.0000 0.49390  0.87010  0.72440  Biso   1.000  H
  H14      1.0000 0.71770  0.77950  0.68590  Biso   1.000  H
  Co2      1.0000 0.65470  0.95180  0.67146  Biso   1.000  Co
  O5       1.0000 0.64317  0.99604  0.85270  Biso   1.000  O
  N5       1.0000 0.49090  0.97405  0.48980  Biso   1.000  N
  N6       1.0000 0.69940  0.07668  0.68700  Biso   1.000  N
  O6       1.0000 0.68549  0.90247  0.51450  Biso   1.000  O
  N7       1.0000 0.61150  0.83807  0.70280  Biso   1.000  N
  C18      1.0000 0.67420  0.06537  0.89820  Biso   1.000  C
  C19      1.0000 0.43400  0.03750  0.47990  Biso   1.000  C
  C20      1.0000 0.44060  0.92296  0.37080  Biso   1.000  C
  S2       1.0000 0.73794  0.13992  0.60764  Biso   1.000  S
  C21      1.0000 0.70180  0.11408  0.80310  Biso   1.000  C
  C22      1.0000 0.33100  0.05240  0.35340  Biso   1.000  C
  H15      1.0000 0.46520  0.07320  0.56170  Biso   1.000  H
  C23      1.0000 0.33870  0.93427  0.24040  Biso   1.000  C
  H16      1.0000 0.47690  0.87700  0.37700  Biso   1.000  H
  N8       1.0000 0.75710  0.21612  0.71820  Biso   1.000  N
  C24      1.0000 0.73350  0.19454  0.81890  Biso   1.000  C
  H17      1.0000 0.29490  0.09750  0.35170  Biso   1.000  H
  C25      1.0000 0.28110  0.00088  0.22950  Biso   1.000  C
  H18      1.0000 0.30890  0.89750  0.16040  Biso   1.000  H
  C26      1.0000 0.74160  0.25506  0.93480  Biso   1.000  C
  C27      1.0000 0.17080  0.01820  0.08520  Biso   1.000  C
  O7       1.0000 0.65850  0.29226  0.89410  Biso   1.000  O
  O8       1.0000 0.83170  0.26317  0.05720  Biso   1.000  O
  H19      1.0000 0.11960  0.02640  0.11360  Biso   1.000  H
  H20      1.0000 0.14670  0.97330  0.01550  Biso   1.000  H
  C28      1.0000 0.17490  0.09130  0.00360  Biso   1.000  C
  C29      1.0000 0.06960  0.11150  0.85320  Biso   1.000  C
  H21      1.0000 0.19660  0.13590  0.07340  Biso   1.000  H
  H22      1.0000 0.22970  0.08350  0.98210  Biso   1.000  H
  H23      1.0000 0.05170  0.07050  0.77740  Biso   1.000  H
  H24      1.0000 0.01240  0.11400  0.87090  Biso   1.000  H
  C30      1.0000 0.07840  0.18981  0.79150  Biso   1.000  C
  C31      1.0000 0.01720  0.25540  0.77700  Biso   1.000  C
  C32      1.0000 0.15340  0.20110  0.75440  Biso   1.000  C
  H25      1.0000 0.96390  0.25080  0.79690  Biso   1.000  H
  C33      1.0000 0.03580  0.32720  0.73330  Biso   1.000  C
  H26      1.0000 0.19480  0.15880  0.75900  Biso   1.000  H
  C34      1.0000 0.16720  0.27413  0.71100  Biso   1.000  C
  H27      1.0000 0.99390  0.37010  0.72440  Biso   1.000  H
  H28      1.0000 0.21770  0.27950  0.68590  Biso   1.000  H
  Co3      1.0000 0.15470  0.54820  0.17146  Biso   1.000  Co
  O9       1.0000 0.14317  0.50396  0.35270  Biso   1.000  O
  N9       1.0000 0.99090  0.52595  0.98980  Biso   1.000  N
  N10      1.0000 0.19940  0.42332  0.18700  Biso   1.000  N
  O10      1.0000 0.18549  0.59753  0.01450  Biso   1.000  O
  N11      1.0000 0.11150  0.66193  0.20280  Biso   1.000  N
  C35      1.0000 0.17420  0.43463  0.39820  Biso   1.000  C
  C36      1.0000 0.93400  0.46250  0.97990  Biso   1.000  C
  C37      1.0000 0.94060  0.57704  0.87080  Biso   1.000  C
  S3       1.0000 0.23794  0.36008  0.10764  Biso   1.000  S
  C38      1.0000 0.20180  0.38592  0.30310  Biso   1.000  C
  C39      1.0000 0.83100  0.44760  0.85340  Biso   1.000  C
  H29      1.0000 0.96520  0.42680  0.06170  Biso   1.000  H
  C40      1.0000 0.83870  0.56573  0.74040  Biso   1.000  C
  H30      1.0000 0.97690  0.62300  0.87700  Biso   1.000  H
  N12      1.0000 0.25710  0.28388  0.21820  Biso   1.000  N
  C41      1.0000 0.23350  0.30546  0.31890  Biso   1.000  C
  H31      1.0000 0.79490  0.40250  0.85170  Biso   1.000  H
  C42      1.0000 0.78110  0.49912  0.72950  Biso   1.000  C
  H32      1.0000 0.80890  0.60250  0.66040  Biso   1.000  H
  C43      1.0000 0.24160  0.24494  0.43480  Biso   1.000  C
  C44      1.0000 0.67080  0.48180  0.58520  Biso   1.000  C
  O11      1.0000 0.15850  0.20774  0.39410  Biso   1.000  O
  O12      1.0000 0.33170  0.23683  0.55720  Biso   1.000  O
  H33      1.0000 0.61960  0.47360  0.61360  Biso   1.000  H
  H34      1.0000 0.64670  0.52670  0.51550  Biso   1.000  H
  C45      1.0000 0.67490  0.40870  0.50360  Biso   1.000  C
  C46      1.0000 0.56960  0.38850  0.35320  Biso   1.000  C
  H35      1.0000 0.69660  0.36410  0.57340  Biso   1.000  H
  H36      1.0000 0.72970  0.41650  0.48210  Biso   1.000  H
  H37      1.0000 0.55170  0.42950  0.27740  Biso   1.000  H
  H38      1.0000 0.51240  0.38600  0.37090  Biso   1.000  H
  C47      1.0000 0.57840  0.31019  0.29150  Biso   1.000  C
  C48      1.0000 0.51720  0.24460  0.27700  Biso   1.000  C
  C49      1.0000 0.65340  0.29890  0.25440  Biso   1.000  C
  H39      1.0000 0.46390  0.24920  0.29690  Biso   1.000  H
  C50      1.0000 0.53580  0.17280  0.23330  Biso   1.000  C
  H40      1.0000 0.69480  0.34120  0.25900  Biso   1.000  H
  C51      1.0000 0.66720  0.22587  0.21100  Biso   1.000  C
  H41      1.0000 0.49390  0.12990  0.22440  Biso   1.000  H
  H42      1.0000 0.71770  0.22050  0.18590  Biso   1.000  H
  Co4      1.0000 0.65470  0.04820  0.17146  Biso   1.000  Co
  O13      1.0000 0.64317  0.00396  0.35270  Biso   1.000  O
  N13      1.0000 0.49090  0.02595  0.98980  Biso   1.000  N
  N14      1.0000 0.69940  0.92332  0.18700  Biso   1.000  N
  O14      1.0000 0.68549  0.09753  0.01450  Biso   1.000  O
  N15      1.0000 0.61150  0.16193  0.20280  Biso   1.000  N
  C52      1.0000 0.67420  0.93463  0.39820  Biso   1.000  C
  C53      1.0000 0.43400  0.96250  0.97990  Biso   1.000  C
  C54      1.0000 0.44060  0.07704  0.87080  Biso   1.000  C
  S4       1.0000 0.73794  0.86008  0.10764  Biso   1.000  S
  C55      1.0000 0.70180  0.88592  0.30310  Biso   1.000  C
  C56      1.0000 0.33100  0.94760  0.85340  Biso   1.000  C
  H43      1.0000 0.46520  0.92680  0.06170  Biso   1.000  H
  C57      1.0000 0.33870  0.06573  0.74040  Biso   1.000  C
  H44      1.0000 0.47690  0.12300  0.87700  Biso   1.000  H
  N16      1.0000 0.75710  0.78388  0.21820  Biso   1.000  N
  C58      1.0000 0.73350  0.80546  0.31890  Biso   1.000  C
  H45      1.0000 0.29490  0.90250  0.85170  Biso   1.000  H
  C59      1.0000 0.28110  0.99912  0.72950  Biso   1.000  C
  H46      1.0000 0.30890  0.10250  0.66040  Biso   1.000  H
  C60      1.0000 0.74160  0.74494  0.43480  Biso   1.000  C
  C61      1.0000 0.17080  0.98180  0.58520  Biso   1.000  C
  O15      1.0000 0.65850  0.70774  0.39410  Biso   1.000  O
  O16      1.0000 0.83170  0.73683  0.55720  Biso   1.000  O
  H47      1.0000 0.11960  0.97360  0.61360  Biso   1.000  H
  H48      1.0000 0.14670  0.02670  0.51550  Biso   1.000  H
  C62      1.0000 0.17490  0.90870  0.50360  Biso   1.000  C
  C63      1.0000 0.06960  0.88850  0.35320  Biso   1.000  C
  H49      1.0000 0.19660  0.86410  0.57340  Biso   1.000  H
  H50      1.0000 0.22970  0.91650  0.48210  Biso   1.000  H
  H51      1.0000 0.05170  0.92950  0.27740  Biso   1.000  H
  H52      1.0000 0.01240  0.88600  0.37090  Biso   1.000  H
  C64      1.0000 0.07840  0.81019  0.29150  Biso   1.000  C
  C65      1.0000 0.01720  0.74460  0.27700  Biso   1.000  C
  C66      1.0000 0.15340  0.79890  0.25440  Biso   1.000  C
  H53      1.0000 0.96390  0.74920  0.29690  Biso   1.000  H
  C67      1.0000 0.03580  0.67280  0.23330  Biso   1.000  C
  H54      1.0000 0.19480  0.84120  0.25900  Biso   1.000  H
  C68      1.0000 0.16720  0.72587  0.21100  Biso   1.000  C
  H55      1.0000 0.99390  0.62990  0.22440  Biso   1.000  H
  H56      1.0000 0.21770  0.72050  0.18590  Biso   1.000  H
