data_image0
_cell_length_a       9.8187
_cell_length_b       17.6398
_cell_length_c       12.0712
_cell_angle_alpha    90
_cell_angle_beta     97.582
_cell_angle_gamma    90

_symmetry_space_group_name_H-M    "P 1"
_symmetry_int_tables_number       1

loop_
  _symmetry_equiv_pos_as_xyz
  'x, y, z'

loop_
  _atom_site_label
  _atom_site_occupancy
  _atom_site_fract_x
  _atom_site_fract_y
  _atom_site_fract_z
  _atom_site_thermal_displace_type
  _atom_site_B_iso_or_equiv
  _atom_site_type_symbol
  C1       1.0000 0.32420  0.08330  0.18580  Biso   1.000  C
  C2       1.0000 0.83530  0.12940  0.21760  Biso   1.000  C
  C3       1.0000 0.57880  0.10810  0.20280  Biso   1.000  C
  H1       1.0000 0.58950  0.06130  0.16590  Biso   1.000  H
  C4       1.0000 0.44930  0.13080  0.22410  Biso   1.000  C
  C5       1.0000 0.69300  0.15350  0.23550  Biso   1.000  C
  C6       1.0000 0.43370  0.19910  0.27960  Biso   1.000  C
  H2       1.0000 0.34610  0.21430  0.29700  Biso   1.000  H
  C7       1.0000 0.67680  0.22300  0.28750  Biso   1.000  C
  H3       1.0000 0.75340  0.25530  0.30800  Biso   1.000  H
  C8       1.0000 0.54720  0.24390  0.30860  Biso   1.000  C
  C9       1.0000 0.61740  0.26690  0.55690  Biso   1.000  C
  H4       1.0000 0.71640  0.26190  0.55450  Biso   1.000  H
  H5       1.0000 0.57190  0.21860  0.53560  Biso   1.000  H
  H6       1.0000 0.60120  0.28050  0.63280  Biso   1.000  H
  C10      1.0000 0.56100  0.32700  0.47790  Biso   1.000  C
  C11      1.0000 0.48540  0.38270  0.32070  Biso   1.000  C
  C12      1.0000 0.44120  0.40250  0.20350  Biso   1.000  C
  C13      1.0000 0.38290  0.37300  0.02210  Biso   1.000  C
  H7       1.0000 0.37740  0.33760  0.96240  Biso   1.000  H
  C14      1.0000 0.34000  0.44650  0.99920  Biso   1.000  C
  H8       1.0000 0.30050  0.46150  0.92640  Biso   1.000  H
  C15      1.0000 0.35720  0.49750  0.08690  Biso   1.000  C
  H9       1.0000 0.33050  0.54890  0.07390  Biso   1.000  H
  N1       1.0000 0.53110  0.31504  0.36480  Biso   1.000  N
  N2       1.0000 0.53420  0.39778  0.50040  Biso   1.000  N
  N3       1.0000 0.48590  0.43318  0.40080  Biso   1.000  N
  N4       1.0000 0.41060  0.47612  0.18960  Biso   1.000  N
  N5       1.0000 0.43190  0.34950  0.12550  Biso   1.000  N
  O1       1.0000 0.33340  0.02942  0.12050  Biso   1.000  O
  O2       1.0000 0.21430  0.10366  0.22100  Biso   1.000  O
  O3       1.0000 0.85090  0.06312  0.18140  Biso   1.000  O
  O4       1.0000 0.93230  0.17290  0.24170  Biso   1.000  O
  Zn1      1.0000 0.45128  0.54668  0.34360  Biso   1.000  Zn
  C16      1.0000 0.17580  0.58330  0.31420  Biso   1.000  C
  C17      1.0000 0.66470  0.62940  0.28240  Biso   1.000  C
  C18      1.0000 0.92120  0.60810  0.29720  Biso   1.000  C
  H10      1.0000 0.91050  0.56130  0.33410  Biso   1.000  H
  C19      1.0000 0.05070  0.63080  0.27590  Biso   1.000  C
  C20      1.0000 0.80700  0.65350  0.26450  Biso   1.000  C
  C21      1.0000 0.06630  0.69910  0.22040  Biso   1.000  C
  H11      1.0000 0.15390  0.71430  0.20300  Biso   1.000  H
  C22      1.0000 0.82320  0.72300  0.21250  Biso   1.000  C
  H12      1.0000 0.74660  0.75530  0.19200  Biso   1.000  H
  C23      1.0000 0.95280  0.74390  0.19140  Biso   1.000  C
  C24      1.0000 0.88260  0.76690  0.94310  Biso   1.000  C
  H13      1.0000 0.78360  0.76190  0.94550  Biso   1.000  H
  H14      1.0000 0.92810  0.71860  0.96440  Biso   1.000  H
  H15      1.0000 0.89880  0.78050  0.86720  Biso   1.000  H
  C25      1.0000 0.93900  0.82700  0.02210  Biso   1.000  C
  C26      1.0000 0.01460  0.88270  0.17930  Biso   1.000  C
  C27      1.0000 0.05880  0.90250  0.29650  Biso   1.000  C
  C28      1.0000 0.11710  0.87300  0.47790  Biso   1.000  C
  H16      1.0000 0.12260  0.83760  0.53760  Biso   1.000  H
  C29      1.0000 0.16000  0.94650  0.50080  Biso   1.000  C
  H17      1.0000 0.19950  0.96150  0.57360  Biso   1.000  H
  C30      1.0000 0.14280  0.99750  0.41310  Biso   1.000  C
  H18      1.0000 0.16950  0.04890  0.42610  Biso   1.000  H
  N6       1.0000 0.96890  0.81504  0.13520  Biso   1.000  N
  N7       1.0000 0.96580  0.89778  0.99960  Biso   1.000  N
  N8       1.0000 0.01410  0.93318  0.09920  Biso   1.000  N
  N9       1.0000 0.08940  0.97612  0.31040  Biso   1.000  N
  N10      1.0000 0.06810  0.84950  0.37450  Biso   1.000  N
  O5       1.0000 0.16660  0.52942  0.37950  Biso   1.000  O
  O6       1.0000 0.28570  0.60366  0.27900  Biso   1.000  O
  O7       1.0000 0.64910  0.56312  0.31860  Biso   1.000  O
  O8       1.0000 0.56770  0.67290  0.25830  Biso   1.000  O
  Zn2      1.0000 0.04872  0.04668  0.15640  Biso   1.000  Zn
  C31      1.0000 0.67580  0.91670  0.81420  Biso   1.000  C
  C32      1.0000 0.16470  0.87060  0.78240  Biso   1.000  C
  C33      1.0000 0.42120  0.89190  0.79720  Biso   1.000  C
  H19      1.0000 0.41050  0.93870  0.83410  Biso   1.000  H
  C34      1.0000 0.55070  0.86920  0.77590  Biso   1.000  C
  C35      1.0000 0.30700  0.84650  0.76450  Biso   1.000  C
  C36      1.0000 0.56630  0.80090  0.72040  Biso   1.000  C
  H20      1.0000 0.65390  0.78570  0.70300  Biso   1.000  H
  C37      1.0000 0.32320  0.77700  0.71250  Biso   1.000  C
  H21      1.0000 0.24660  0.74470  0.69200  Biso   1.000  H
  C38      1.0000 0.45280  0.75610  0.69140  Biso   1.000  C
  C39      1.0000 0.38260  0.73310  0.44310  Biso   1.000  C
  H22      1.0000 0.28360  0.73810  0.44550  Biso   1.000  H
  H23      1.0000 0.42810  0.78140  0.46440  Biso   1.000  H
  H24      1.0000 0.39880  0.71950  0.36720  Biso   1.000  H
  C40      1.0000 0.43900  0.67300  0.52210  Biso   1.000  C
  C41      1.0000 0.51460  0.61730  0.67930  Biso   1.000  C
  C42      1.0000 0.55880  0.59750  0.79650  Biso   1.000  C
  C43      1.0000 0.61710  0.62700  0.97790  Biso   1.000  C
  H25      1.0000 0.62260  0.66240  0.03760  Biso   1.000  H
  C44      1.0000 0.66000  0.55350  0.00080  Biso   1.000  C
  H26      1.0000 0.69950  0.53850  0.07360  Biso   1.000  H
  C45      1.0000 0.64280  0.50250  0.91310  Biso   1.000  C
  H27      1.0000 0.66950  0.45110  0.92610  Biso   1.000  H
  N11      1.0000 0.46890  0.68496  0.63520  Biso   1.000  N
  N12      1.0000 0.46580  0.60222  0.49960  Biso   1.000  N
  N13      1.0000 0.51410  0.56682  0.59920  Biso   1.000  N
  N14      1.0000 0.58940  0.52388  0.81040  Biso   1.000  N
  N15      1.0000 0.56810  0.65050  0.87450  Biso   1.000  N
  O9       1.0000 0.66660  0.97058  0.87950  Biso   1.000  O
  O10      1.0000 0.78570  0.89634  0.77900  Biso   1.000  O
  O11      1.0000 0.14910  0.93688  0.81860  Biso   1.000  O
  O12      1.0000 0.06770  0.82710  0.75830  Biso   1.000  O
  Zn3      1.0000 0.54872  0.45332  0.65640  Biso   1.000  Zn
  C46      1.0000 0.82420  0.41670  0.68580  Biso   1.000  C
  C47      1.0000 0.33530  0.37060  0.71760  Biso   1.000  C
  C48      1.0000 0.07880  0.39190  0.70280  Biso   1.000  C
  H28      1.0000 0.08950  0.43870  0.66590  Biso   1.000  H
  C49      1.0000 0.94930  0.36920  0.72410  Biso   1.000  C
  C50      1.0000 0.19300  0.34650  0.73550  Biso   1.000  C
  C51      1.0000 0.93370  0.30090  0.77960  Biso   1.000  C
  H29      1.0000 0.84610  0.28570  0.79700  Biso   1.000  H
  C52      1.0000 0.17680  0.27700  0.78750  Biso   1.000  C
  H30      1.0000 0.25340  0.24470  0.80800  Biso   1.000  H
  C53      1.0000 0.04720  0.25610  0.80860  Biso   1.000  C
  C54      1.0000 0.11740  0.23310  0.05690  Biso   1.000  C
  H31      1.0000 0.21640  0.23810  0.05450  Biso   1.000  H
  H32      1.0000 0.07190  0.28140  0.03560  Biso   1.000  H
  H33      1.0000 0.10120  0.21950  0.13280  Biso   1.000  H
  C55      1.0000 0.06100  0.17300  0.97790  Biso   1.000  C
  C56      1.0000 0.98540  0.11730  0.82070  Biso   1.000  C
  C57      1.0000 0.94120  0.09750  0.70350  Biso   1.000  C
  C58      1.0000 0.88290  0.12700  0.52210  Biso   1.000  C
  H34      1.0000 0.87740  0.16240  0.46240  Biso   1.000  H
  C59      1.0000 0.84000  0.05350  0.49920  Biso   1.000  C
  H35      1.0000 0.80050  0.03850  0.42640  Biso   1.000  H
  C60      1.0000 0.85720  0.00250  0.58690  Biso   1.000  C
  H36      1.0000 0.83050  0.95110  0.57390  Biso   1.000  H
  N16      1.0000 0.03110  0.18496  0.86480  Biso   1.000  N
  N17      1.0000 0.03420  0.10222  0.00040  Biso   1.000  N
  N18      1.0000 0.98590  0.06682  0.90080  Biso   1.000  N
  N19      1.0000 0.91060  0.02388  0.68960  Biso   1.000  N
  N20      1.0000 0.93190  0.15050  0.62550  Biso   1.000  N
  O13      1.0000 0.83340  0.47058  0.62050  Biso   1.000  O
  O14      1.0000 0.71430  0.39634  0.72100  Biso   1.000  O
  O15      1.0000 0.35090  0.43688  0.68140  Biso   1.000  O
  O16      1.0000 0.43230  0.32710  0.74170  Biso   1.000  O
  Zn4      1.0000 0.95128  0.95332  0.84360  Biso   1.000  Zn
