data_image0
_cell_length_a       9.866
_cell_length_b       17.646
_cell_length_c       11.9142
_cell_angle_alpha    90
_cell_angle_beta     96.014
_cell_angle_gamma    90

_symmetry_space_group_name_H-M    "P 1"
_symmetry_int_tables_number       1

loop_
  _symmetry_equiv_pos_as_xyz
  'x, y, z'

loop_
  _atom_site_label
  _atom_site_occupancy
  _atom_site_fract_x
  _atom_site_fract_y
  _atom_site_fract_z
  _atom_site_thermal_displace_type
  _atom_site_B_iso_or_equiv
  _atom_site_type_symbol
  C1       1.0000 0.33850  0.09003  0.17890  Biso   1.000  C
  C2       1.0000 0.84930  0.13500  0.21590  Biso   1.000  C
  C3       1.0000 0.59180  0.11546  0.19970  Biso   1.000  C
  H1       1.0000 0.60360  0.06970  0.16150  Biso   1.000  H
  C4       1.0000 0.46140  0.13761  0.21950  Biso   1.000  C
  C5       1.0000 0.70590  0.15952  0.23510  Biso   1.000  C
  C6       1.0000 0.44190  0.20560  0.27760  Biso   1.000  C
  H2       1.0000 0.35480  0.22090  0.29380  Biso   1.000  H
  C7       1.0000 0.68670  0.22875  0.28900  Biso   1.000  C
  H3       1.0000 0.76120  0.26070  0.31050  Biso   1.000  H
  C8       1.0000 0.55700  0.24931  0.31010  Biso   1.000  C
  C9       1.0000 0.57670  0.33464  0.47840  Biso   1.000  C
  H4       1.0000 0.61790  0.29910  0.53000  Biso   1.000  H
  C10      1.0000 0.48480  0.38753  0.32460  Biso   1.000  C
  C11      1.0000 0.43190  0.40891  0.20960  Biso   1.000  C
  C12      1.0000 0.42700  0.36390  0.11440  Biso   1.000  C
  H5       1.0000 0.46000  0.31390  0.11890  Biso   1.000  H
  C13      1.0000 0.37270  0.39370  0.01290  Biso   1.000  C
  H6       1.0000 0.36890  0.36410  0.94710  Biso   1.000  H
  C14      1.0000 0.32350  0.46740  0.00750  Biso   1.000  C
  H7       1.0000 0.28300  0.48780  0.93920  Biso   1.000  H
  C15      1.0000 0.33570  0.51010  0.10560  Biso   1.000  C
  H8       1.0000 0.30530  0.56060  0.10230  Biso   1.000  H
  N1       1.0000 0.53840  0.32071  0.36800  Biso   1.000  N
  N2       1.0000 0.54810  0.40488  0.50330  Biso   1.000  N
  N3       1.0000 0.48900  0.43815  0.40540  Biso   1.000  N
  N4       1.0000 0.38890  0.48214  0.20440  Biso   1.000  N
  O1       1.0000 0.35320  0.03143  0.12460  Biso   1.000  O
  O2       1.0000 0.22320  0.11453  0.20340  Biso   1.000  O
  O3       1.0000 0.86760  0.06711  0.18800  Biso   1.000  O
  O4       1.0000 0.94270  0.18074  0.23430  Biso   1.000  O
  Cu1      1.0000 0.42403  0.54365  0.34774  Biso   1.000  Cu
  C16      1.0000 0.16150  0.59003  0.32110  Biso   1.000  C
  C17      1.0000 0.65070  0.63500  0.28410  Biso   1.000  C
  C18      1.0000 0.90820  0.61546  0.30030  Biso   1.000  C
  H9       1.0000 0.89640  0.56970  0.33850  Biso   1.000  H
  C19      1.0000 0.03860  0.63761  0.28050  Biso   1.000  C
  C20      1.0000 0.79410  0.65952  0.26490  Biso   1.000  C
  C21      1.0000 0.05810  0.70560  0.22240  Biso   1.000  C
  H10      1.0000 0.14520  0.72090  0.20620  Biso   1.000  H
  C22      1.0000 0.81330  0.72875  0.21100  Biso   1.000  C
  H11      1.0000 0.73880  0.76070  0.18950  Biso   1.000  H
  C23      1.0000 0.94300  0.74931  0.18990  Biso   1.000  C
  C24      1.0000 0.92330  0.83464  0.02160  Biso   1.000  C
  H12      1.0000 0.88210  0.79910  0.97000  Biso   1.000  H
  C25      1.0000 0.01520  0.88753  0.17540  Biso   1.000  C
  C26      1.0000 0.06810  0.90891  0.29040  Biso   1.000  C
  C27      1.0000 0.07300  0.86390  0.38560  Biso   1.000  C
  H13      1.0000 0.04000  0.81390  0.38110  Biso   1.000  H
  C28      1.0000 0.12730  0.89370  0.48710  Biso   1.000  C
  H14      1.0000 0.13110  0.86410  0.55290  Biso   1.000  H
  C29      1.0000 0.17650  0.96740  0.49250  Biso   1.000  C
  H15      1.0000 0.21700  0.98780  0.56080  Biso   1.000  H
  C30      1.0000 0.16430  0.01010  0.39440  Biso   1.000  C
  H16      1.0000 0.19470  0.06060  0.39770  Biso   1.000  H
  N5       1.0000 0.96160  0.82071  0.13200  Biso   1.000  N
  N6       1.0000 0.95190  0.90488  0.99670  Biso   1.000  N
  N7       1.0000 0.01100  0.93815  0.09460  Biso   1.000  N
  N8       1.0000 0.11110  0.98214  0.29560  Biso   1.000  N
  O5       1.0000 0.14680  0.53143  0.37540  Biso   1.000  O
  O6       1.0000 0.27680  0.61453  0.29660  Biso   1.000  O
  O7       1.0000 0.63240  0.56711  0.31200  Biso   1.000  O
  O8       1.0000 0.55730  0.68074  0.26570  Biso   1.000  O
  Cu2      1.0000 0.07597  0.04365  0.15226  Biso   1.000  Cu
  C31      1.0000 0.66150  0.90997  0.82110  Biso   1.000  C
  C32      1.0000 0.15070  0.86500  0.78410  Biso   1.000  C
  C33      1.0000 0.40820  0.88454  0.80030  Biso   1.000  C
  H17      1.0000 0.39640  0.93030  0.83850  Biso   1.000  H
  C34      1.0000 0.53860  0.86239  0.78050  Biso   1.000  C
  C35      1.0000 0.29410  0.84048  0.76490  Biso   1.000  C
  C36      1.0000 0.55810  0.79440  0.72240  Biso   1.000  C
  H18      1.0000 0.64520  0.77910  0.70620  Biso   1.000  H
  C37      1.0000 0.31330  0.77125  0.71100  Biso   1.000  C
  H19      1.0000 0.23880  0.73930  0.68950  Biso   1.000  H
  C38      1.0000 0.44300  0.75069  0.68990  Biso   1.000  C
  C39      1.0000 0.42330  0.66536  0.52160  Biso   1.000  C
  H20      1.0000 0.38210  0.70090  0.47000  Biso   1.000  H
  C40      1.0000 0.51520  0.61247  0.67540  Biso   1.000  C
  C41      1.0000 0.56810  0.59109  0.79040  Biso   1.000  C
  C42      1.0000 0.57300  0.63610  0.88560  Biso   1.000  C
  H21      1.0000 0.54000  0.68610  0.88110  Biso   1.000  H
  C43      1.0000 0.62730  0.60630  0.98710  Biso   1.000  C
  H22      1.0000 0.63110  0.63590  0.05290  Biso   1.000  H
  C44      1.0000 0.67650  0.53260  0.99250  Biso   1.000  C
  H23      1.0000 0.71700  0.51220  0.06080  Biso   1.000  H
  C45      1.0000 0.66430  0.48990  0.89440  Biso   1.000  C
  H24      1.0000 0.69470  0.43940  0.89770  Biso   1.000  H
  N9       1.0000 0.46160  0.67929  0.63200  Biso   1.000  N
  N10      1.0000 0.45190  0.59512  0.49670  Biso   1.000  N
  N11      1.0000 0.51100  0.56185  0.59460  Biso   1.000  N
  N12      1.0000 0.61110  0.51786  0.79560  Biso   1.000  N
  O9       1.0000 0.64680  0.96857  0.87540  Biso   1.000  O
  O10      1.0000 0.77680  0.88547  0.79660  Biso   1.000  O
  O11      1.0000 0.13240  0.93289  0.81200  Biso   1.000  O
  O12      1.0000 0.05730  0.81926  0.76570  Biso   1.000  O
  Cu3      1.0000 0.57597  0.45635  0.65226  Biso   1.000  Cu
  C46      1.0000 0.83850  0.40997  0.67890  Biso   1.000  C
  C47      1.0000 0.34930  0.36500  0.71590  Biso   1.000  C
  C48      1.0000 0.09180  0.38454  0.69970  Biso   1.000  C
  H25      1.0000 0.10360  0.43030  0.66150  Biso   1.000  H
  C49      1.0000 0.96140  0.36239  0.71950  Biso   1.000  C
  C50      1.0000 0.20590  0.34048  0.73510  Biso   1.000  C
  C51      1.0000 0.94190  0.29440  0.77760  Biso   1.000  C
  H26      1.0000 0.85480  0.27910  0.79380  Biso   1.000  H
  C52      1.0000 0.18670  0.27125  0.78900  Biso   1.000  C
  H27      1.0000 0.26120  0.23930  0.81050  Biso   1.000  H
  C53      1.0000 0.05700  0.25069  0.81010  Biso   1.000  C
  C54      1.0000 0.07670  0.16536  0.97840  Biso   1.000  C
  H28      1.0000 0.11790  0.20090  0.03000  Biso   1.000  H
  C55      1.0000 0.98480  0.11247  0.82460  Biso   1.000  C
  C56      1.0000 0.93190  0.09109  0.70960  Biso   1.000  C
  C57      1.0000 0.92700  0.13610  0.61440  Biso   1.000  C
  H29      1.0000 0.96000  0.18610  0.61890  Biso   1.000  H
  C58      1.0000 0.87270  0.10630  0.51290  Biso   1.000  C
  H30      1.0000 0.86890  0.13590  0.44710  Biso   1.000  H
  C59      1.0000 0.82350  0.03260  0.50750  Biso   1.000  C
  H31      1.0000 0.78300  0.01220  0.43920  Biso   1.000  H
  C60      1.0000 0.83570  0.98990  0.60560  Biso   1.000  C
  H32      1.0000 0.80530  0.93940  0.60230  Biso   1.000  H
  N13      1.0000 0.03840  0.17929  0.86800  Biso   1.000  N
  N14      1.0000 0.04810  0.09512  0.00330  Biso   1.000  N
  N15      1.0000 0.98900  0.06185  0.90540  Biso   1.000  N
  N16      1.0000 0.88890  0.01786  0.70440  Biso   1.000  N
  O13      1.0000 0.85320  0.46857  0.62460  Biso   1.000  O
  O14      1.0000 0.72320  0.38547  0.70340  Biso   1.000  O
  O15      1.0000 0.36760  0.43289  0.68800  Biso   1.000  O
  O16      1.0000 0.44270  0.31926  0.73430  Biso   1.000  O
  Cu4      1.0000 0.92403  0.95635  0.84774  Biso   1.000  Cu
