data_image0
_cell_length_a       9.8054
_cell_length_b       17.9814
_cell_length_c       11.9775
_cell_angle_alpha    90
_cell_angle_beta     97.881
_cell_angle_gamma    90

_symmetry_space_group_name_H-M    "P 1"
_symmetry_int_tables_number       1

loop_
  _symmetry_equiv_pos_as_xyz
  'x, y, z'

loop_
  _atom_site_label
  _atom_site_occupancy
  _atom_site_fract_x
  _atom_site_fract_y
  _atom_site_fract_z
  _atom_site_thermal_displace_type
  _atom_site_B_iso_or_equiv
  _atom_site_type_symbol
  C1       1.0000 0.32210  0.09120  0.18900  Biso   1.000  C
  C2       1.0000 0.83630  0.13940  0.20490  Biso   1.000  C
  C3       1.0000 0.57920  0.11570  0.20080  Biso   1.000  C
  H1       1.0000 0.58900  0.06880  0.16610  Biso   1.000  H
  C4       1.0000 0.44930  0.13820  0.22350  Biso   1.000  C
  C5       1.0000 0.69600  0.16120  0.22840  Biso   1.000  C
  C6       1.0000 0.43520  0.20590  0.27910  Biso   1.000  C
  H2       1.0000 0.34820  0.22110  0.29760  Biso   1.000  H
  C7       1.0000 0.67950  0.23050  0.28070  Biso   1.000  C
  H3       1.0000 0.75570  0.26310  0.29790  Biso   1.000  H
  C8       1.0000 0.55100  0.25020  0.30640  Biso   1.000  C
  C9       1.0000 0.56300  0.33390  0.47460  Biso   1.000  C
  H4       1.0000 0.59720  0.29770  0.52910  Biso   1.000  H
  C10      1.0000 0.48850  0.38750  0.31570  Biso   1.000  C
  C11      1.0000 0.44230  0.40730  0.19630  Biso   1.000  C
  C12      1.0000 0.43940  0.36010  0.10500  Biso   1.000  C
  H5       1.0000 0.47330  0.31070  0.11420  Biso   1.000  H
  C13      1.0000 0.38540  0.38710  0.99910  Biso   1.000  C
  H6       1.0000 0.38450  0.35640  0.93450  Biso   1.000  H
  C14      1.0000 0.33390  0.45720  0.98820  Biso   1.000  C
  H7       1.0000 0.29170  0.47490  0.91690  Biso   1.000  H
  C15      1.0000 0.34400  0.50310  0.08310  Biso   1.000  C
  H8       1.0000 0.31200  0.55290  0.07500  Biso   1.000  H
  N1       1.0000 0.53470  0.32135  0.36210  Biso   1.000  N
  N2       1.0000 0.53590  0.40396  0.49730  Biso   1.000  N
  N3       1.0000 0.48890  0.43771  0.39560  Biso   1.000  N
  N4       1.0000 0.39840  0.47820  0.18670  Biso   1.000  N
  O1       1.0000 0.32930  0.03330  0.13220  Biso   1.000  O
  O2       1.0000 0.20950  0.11575  0.21830  Biso   1.000  O
  O3       1.0000 0.86020  0.07042  0.19220  Biso   1.000  O
  O4       1.0000 0.92440  0.18940  0.19780  Biso   1.000  O
  Zn1      1.0000 0.44553  0.54772  0.33909  Biso   1.000  Zn
  C16      1.0000 0.17790  0.59120  0.31100  Biso   1.000  C
  C17      1.0000 0.66370  0.63940  0.29510  Biso   1.000  C
  C18      1.0000 0.92080  0.61570  0.29920  Biso   1.000  C
  H9       1.0000 0.91100  0.56880  0.33390  Biso   1.000  H
  C19      1.0000 0.05070  0.63820  0.27650  Biso   1.000  C
  C20      1.0000 0.80400  0.66120  0.27160  Biso   1.000  C
  C21      1.0000 0.06480  0.70590  0.22090  Biso   1.000  C
  H10      1.0000 0.15180  0.72110  0.20240  Biso   1.000  H
  C22      1.0000 0.82050  0.73050  0.21930  Biso   1.000  C
  H11      1.0000 0.74430  0.76310  0.20210  Biso   1.000  H
  C23      1.0000 0.94900  0.75020  0.19360  Biso   1.000  C
  C24      1.0000 0.93700  0.83390  0.02540  Biso   1.000  C
  H12      1.0000 0.90280  0.79770  0.97090  Biso   1.000  H
  C25      1.0000 0.01150  0.88750  0.18430  Biso   1.000  C
  C26      1.0000 0.05770  0.90730  0.30370  Biso   1.000  C
  C27      1.0000 0.06060  0.86010  0.39500  Biso   1.000  C
  H13      1.0000 0.02670  0.81070  0.38580  Biso   1.000  H
  C28      1.0000 0.11460  0.88710  0.50090  Biso   1.000  C
  H14      1.0000 0.11550  0.85640  0.56550  Biso   1.000  H
  C29      1.0000 0.16610  0.95720  0.51180  Biso   1.000  C
  H15      1.0000 0.20830  0.97490  0.58310  Biso   1.000  H
  C30      1.0000 0.15600  0.00310  0.41690  Biso   1.000  C
  H16      1.0000 0.18800  0.05290  0.42500  Biso   1.000  H
  N5       1.0000 0.96530  0.82135  0.13790  Biso   1.000  N
  N6       1.0000 0.96410  0.90396  0.00270  Biso   1.000  N
  N7       1.0000 0.01110  0.93771  0.10440  Biso   1.000  N
  N8       1.0000 0.10160  0.97820  0.31330  Biso   1.000  N
  O5       1.0000 0.17070  0.53330  0.36780  Biso   1.000  O
  O6       1.0000 0.29050  0.61575  0.28170  Biso   1.000  O
  O7       1.0000 0.63980  0.57042  0.30780  Biso   1.000  O
  O8       1.0000 0.57560  0.68940  0.30220  Biso   1.000  O
  Zn2      1.0000 0.05447  0.04772  0.16091  Biso   1.000  Zn
  C31      1.0000 0.67790  0.90880  0.81100  Biso   1.000  C
  C32      1.0000 0.16370  0.86060  0.79510  Biso   1.000  C
  C33      1.0000 0.42080  0.88430  0.79920  Biso   1.000  C
  H17      1.0000 0.41100  0.93120  0.83390  Biso   1.000  H
  C34      1.0000 0.55070  0.86180  0.77650  Biso   1.000  C
  C35      1.0000 0.30400  0.83880  0.77160  Biso   1.000  C
  C36      1.0000 0.56480  0.79410  0.72090  Biso   1.000  C
  H18      1.0000 0.65180  0.77890  0.70240  Biso   1.000  H
  C37      1.0000 0.32050  0.76950  0.71930  Biso   1.000  C
  H19      1.0000 0.24430  0.73690  0.70210  Biso   1.000  H
  C38      1.0000 0.44900  0.74980  0.69360  Biso   1.000  C
  C39      1.0000 0.43700  0.66610  0.52540  Biso   1.000  C
  H20      1.0000 0.40280  0.70230  0.47090  Biso   1.000  H
  C40      1.0000 0.51150  0.61250  0.68430  Biso   1.000  C
  C41      1.0000 0.55770  0.59270  0.80370  Biso   1.000  C
  C42      1.0000 0.56060  0.63990  0.89500  Biso   1.000  C
  H21      1.0000 0.52670  0.68930  0.88580  Biso   1.000  H
  C43      1.0000 0.61460  0.61290  0.00090  Biso   1.000  C
  H22      1.0000 0.61550  0.64360  0.06550  Biso   1.000  H
  C44      1.0000 0.66610  0.54280  0.01180  Biso   1.000  C
  H23      1.0000 0.70830  0.52510  0.08310  Biso   1.000  H
  C45      1.0000 0.65600  0.49690  0.91690  Biso   1.000  C
  H24      1.0000 0.68800  0.44710  0.92500  Biso   1.000  H
  N9       1.0000 0.46530  0.67865  0.63790  Biso   1.000  N
  N10      1.0000 0.46410  0.59604  0.50270  Biso   1.000  N
  N11      1.0000 0.51110  0.56229  0.60440  Biso   1.000  N
  N12      1.0000 0.60160  0.52180  0.81330  Biso   1.000  N
  O9       1.0000 0.67070  0.96670  0.86780  Biso   1.000  O
  O10      1.0000 0.79050  0.88425  0.78170  Biso   1.000  O
  O11      1.0000 0.13980  0.92958  0.80780  Biso   1.000  O
  O12      1.0000 0.07560  0.81060  0.80220  Biso   1.000  O
  Zn3      1.0000 0.55447  0.45228  0.66091  Biso   1.000  Zn
  C46      1.0000 0.82210  0.40880  0.68900  Biso   1.000  C
  C47      1.0000 0.33630  0.36060  0.70490  Biso   1.000  C
  C48      1.0000 0.07920  0.38430  0.70080  Biso   1.000  C
  H25      1.0000 0.08900  0.43120  0.66610  Biso   1.000  H
  C49      1.0000 0.94930  0.36180  0.72350  Biso   1.000  C
  C50      1.0000 0.19600  0.33880  0.72840  Biso   1.000  C
  C51      1.0000 0.93520  0.29410  0.77910  Biso   1.000  C
  H26      1.0000 0.84820  0.27890  0.79760  Biso   1.000  H
  C52      1.0000 0.17950  0.26950  0.78070  Biso   1.000  C
  H27      1.0000 0.25570  0.23690  0.79790  Biso   1.000  H
  C53      1.0000 0.05100  0.24980  0.80640  Biso   1.000  C
  C54      1.0000 0.06300  0.16610  0.97460  Biso   1.000  C
  H28      1.0000 0.09720  0.20230  0.02910  Biso   1.000  H
  C55      1.0000 0.98850  0.11250  0.81570  Biso   1.000  C
  C56      1.0000 0.94230  0.09270  0.69630  Biso   1.000  C
  C57      1.0000 0.93940  0.13990  0.60500  Biso   1.000  C
  H29      1.0000 0.97330  0.18930  0.61420  Biso   1.000  H
  C58      1.0000 0.88540  0.11290  0.49910  Biso   1.000  C
  H30      1.0000 0.88450  0.14360  0.43450  Biso   1.000  H
  C59      1.0000 0.83390  0.04280  0.48820  Biso   1.000  C
  H31      1.0000 0.79170  0.02510  0.41690  Biso   1.000  H
  C60      1.0000 0.84400  0.99690  0.58310  Biso   1.000  C
  H32      1.0000 0.81200  0.94710  0.57500  Biso   1.000  H
  N13      1.0000 0.03470  0.17865  0.86210  Biso   1.000  N
  N14      1.0000 0.03590  0.09604  0.99730  Biso   1.000  N
  N15      1.0000 0.98890  0.06229  0.89560  Biso   1.000  N
  N16      1.0000 0.89840  0.02180  0.68670  Biso   1.000  N
  O13      1.0000 0.82930  0.46670  0.63220  Biso   1.000  O
  O14      1.0000 0.70950  0.38425  0.71830  Biso   1.000  O
  O15      1.0000 0.36020  0.42958  0.69220  Biso   1.000  O
  O16      1.0000 0.42440  0.31060  0.69780  Biso   1.000  O
  Zn4      1.0000 0.94553  0.95228  0.83909  Biso   1.000  Zn
