data_image0
_cell_length_a       9.8439
_cell_length_b       17.6747
_cell_length_c       11.8051
_cell_angle_alpha    90
_cell_angle_beta     99.458
_cell_angle_gamma    90

_symmetry_space_group_name_H-M    "P 1"
_symmetry_int_tables_number       1

loop_
  _symmetry_equiv_pos_as_xyz
  'x, y, z'

loop_
  _atom_site_label
  _atom_site_occupancy
  _atom_site_fract_x
  _atom_site_fract_y
  _atom_site_fract_z
  _atom_site_thermal_displace_type
  _atom_site_B_iso_or_equiv
  _atom_site_type_symbol
  C1       1.0000 0.33090  0.08174  0.18640  Biso   1.000  C
  C2       1.0000 0.84060  0.13421  0.20770  Biso   1.000  C
  C3       1.0000 0.58520  0.10904  0.19900  Biso   1.000  C
  H1       1.0000 0.59560  0.06200  0.16410  Biso   1.000  H
  C4       1.0000 0.45640  0.13107  0.22140  Biso   1.000  C
  C5       1.0000 0.69810  0.15626  0.22775  Biso   1.000  C
  C6       1.0000 0.44080  0.20006  0.27360  Biso   1.000  C
  H2       1.0000 0.35480  0.21470  0.29120  Biso   1.000  H
  C7       1.0000 0.68270  0.22685  0.27710  Biso   1.000  C
  H3       1.0000 0.75810  0.25990  0.29490  Biso   1.000  H
  C8       1.0000 0.55420  0.24704  0.29924  Biso   1.000  C
  C9       1.0000 0.63410  0.26913  0.54970  Biso   1.000  C
  H4       1.0000 0.73070  0.26450  0.54330  Biso   1.000  H
  H5       1.0000 0.58790  0.22140  0.52930  Biso   1.000  H
  H6       1.0000 0.62560  0.28220  0.62800  Biso   1.000  H
  C10      1.0000 0.56990  0.32919  0.47090  Biso   1.000  C
  C11      1.0000 0.48940  0.38535  0.31020  Biso   1.000  C
  C12      1.0000 0.44120  0.40637  0.18930  Biso   1.000  C
  C13      1.0000 0.43620  0.35940  0.09410  Biso   1.000  C
  H7       1.0000 0.47140  0.31000  0.10390  Biso   1.000  H
  C14      1.0000 0.33440  0.45426  0.98040  Biso   1.000  C
  H8       1.0000 0.29150  0.47220  0.90840  Biso   1.000  H
  C15      1.0000 0.34590  0.50236  0.07470  Biso   1.000  C
  H9       1.0000 0.31500  0.55260  0.06440  Biso   1.000  H
  N1       1.0000 0.53854  0.31827  0.35518  Biso   1.000  N
  N2       1.0000 0.53893  0.39914  0.49532  Biso   1.000  N
  N3       1.0000 0.48769  0.43442  0.39303  Biso   1.000  N
  N4       1.0000 0.39980  0.47857  0.17860  Biso   1.000  N
  N5       1.0000 0.38180  0.38365  0.98860  Biso   1.000  N
  O1       1.0000 0.33700  0.02745  0.12120  Biso   1.000  O
  O2       1.0000 0.22370  0.10246  0.22271  Biso   1.000  O
  O3       1.0000 0.86153  0.06497  0.18856  Biso   1.000  O
  O4       1.0000 0.92880  0.18473  0.20870  Biso   1.000  O
  Zn1      1.0000 0.44664  0.54765  0.34196  Biso   1.000  Zn
  C16      1.0000 0.16910  0.58174  0.31360  Biso   1.000  C
  C17      1.0000 0.65940  0.63421  0.29230  Biso   1.000  C
  C18      1.0000 0.91480  0.60904  0.30100  Biso   1.000  C
  H10      1.0000 0.90440  0.56200  0.33590  Biso   1.000  H
  C19      1.0000 0.04360  0.63107  0.27860  Biso   1.000  C
  C20      1.0000 0.80190  0.65626  0.27225  Biso   1.000  C
  C21      1.0000 0.05920  0.70006  0.22640  Biso   1.000  C
  H11      1.0000 0.14520  0.71470  0.20880  Biso   1.000  H
  C22      1.0000 0.81730  0.72685  0.22290  Biso   1.000  C
  H12      1.0000 0.74190  0.75990  0.20510  Biso   1.000  H
  C23      1.0000 0.94580  0.74704  0.20076  Biso   1.000  C
  C24      1.0000 0.86590  0.76913  0.95030  Biso   1.000  C
  H13      1.0000 0.76930  0.76450  0.95670  Biso   1.000  H
  H14      1.0000 0.91210  0.72140  0.97070  Biso   1.000  H
  H15      1.0000 0.87440  0.78220  0.87200  Biso   1.000  H
  C25      1.0000 0.93010  0.82919  0.02910  Biso   1.000  C
  C26      1.0000 0.01060  0.88535  0.18980  Biso   1.000  C
  C27      1.0000 0.05880  0.90637  0.31070  Biso   1.000  C
  C28      1.0000 0.06380  0.85940  0.40590  Biso   1.000  C
  H16      1.0000 0.02860  0.81000  0.39610  Biso   1.000  H
  C29      1.0000 0.16560  0.95426  0.51960  Biso   1.000  C
  H17      1.0000 0.20850  0.97220  0.59160  Biso   1.000  H
  C30      1.0000 0.15410  0.00236  0.42530  Biso   1.000  C
  H18      1.0000 0.18500  0.05260  0.43560  Biso   1.000  H
  N6       1.0000 0.96146  0.81827  0.14482  Biso   1.000  N
  N7       1.0000 0.96107  0.89914  0.00468  Biso   1.000  N
  N8       1.0000 0.01231  0.93442  0.10697  Biso   1.000  N
  N9       1.0000 0.10020  0.97857  0.32140  Biso   1.000  N
  N10      1.0000 0.11820  0.88365  0.51140  Biso   1.000  N
  O5       1.0000 0.16300  0.52745  0.37880  Biso   1.000  O
  O6       1.0000 0.27630  0.60246  0.27729  Biso   1.000  O
  O7       1.0000 0.63847  0.56497  0.31144  Biso   1.000  O
  O8       1.0000 0.57120  0.68473  0.29130  Biso   1.000  O
  Zn2      1.0000 0.05336  0.04765  0.15804  Biso   1.000  Zn
  C31      1.0000 0.66910  0.91826  0.81360  Biso   1.000  C
  C32      1.0000 0.15940  0.86579  0.79230  Biso   1.000  C
  C33      1.0000 0.41480  0.89096  0.80100  Biso   1.000  C
  H19      1.0000 0.40440  0.93800  0.83590  Biso   1.000  H
  C34      1.0000 0.54360  0.86893  0.77860  Biso   1.000  C
  C35      1.0000 0.30190  0.84374  0.77225  Biso   1.000  C
  C36      1.0000 0.55920  0.79994  0.72640  Biso   1.000  C
  H20      1.0000 0.64520  0.78530  0.70880  Biso   1.000  H
  C37      1.0000 0.31730  0.77315  0.72290  Biso   1.000  C
  H21      1.0000 0.24190  0.74010  0.70510  Biso   1.000  H
  C38      1.0000 0.44580  0.75296  0.70076  Biso   1.000  C
  C39      1.0000 0.36590  0.73087  0.45030  Biso   1.000  C
  H22      1.0000 0.26930  0.73550  0.45670  Biso   1.000  H
  H23      1.0000 0.41210  0.77860  0.47070  Biso   1.000  H
  H24      1.0000 0.37440  0.71780  0.37200  Biso   1.000  H
  C40      1.0000 0.43010  0.67081  0.52910  Biso   1.000  C
  C41      1.0000 0.51060  0.61465  0.68980  Biso   1.000  C
  C42      1.0000 0.55880  0.59363  0.81070  Biso   1.000  C
  C43      1.0000 0.56380  0.64060  0.90590  Biso   1.000  C
  H25      1.0000 0.52860  0.69000  0.89610  Biso   1.000  H
  C44      1.0000 0.66560  0.54574  0.01960  Biso   1.000  C
  H26      1.0000 0.70850  0.52780  0.09160  Biso   1.000  H
  C45      1.0000 0.65410  0.49764  0.92530  Biso   1.000  C
  H27      1.0000 0.68500  0.44740  0.93560  Biso   1.000  H
  N11      1.0000 0.46146  0.68173  0.64482  Biso   1.000  N
  N12      1.0000 0.46107  0.60086  0.50468  Biso   1.000  N
  N13      1.0000 0.51231  0.56558  0.60697  Biso   1.000  N
  N14      1.0000 0.60020  0.52143  0.82140  Biso   1.000  N
  N15      1.0000 0.61820  0.61635  0.01140  Biso   1.000  N
  O9       1.0000 0.66300  0.97255  0.87880  Biso   1.000  O
  O10      1.0000 0.77630  0.89754  0.77729  Biso   1.000  O
  O11      1.0000 0.13847  0.93503  0.81144  Biso   1.000  O
  O12      1.0000 0.07120  0.81527  0.79130  Biso   1.000  O
  Zn3      1.0000 0.55336  0.45235  0.65804  Biso   1.000  Zn
  C46      1.0000 0.83090  0.41826  0.68640  Biso   1.000  C
  C47      1.0000 0.34060  0.36579  0.70770  Biso   1.000  C
  C48      1.0000 0.08520  0.39096  0.69900  Biso   1.000  C
  H28      1.0000 0.09560  0.43800  0.66410  Biso   1.000  H
  C49      1.0000 0.95640  0.36893  0.72140  Biso   1.000  C
  C50      1.0000 0.19810  0.34374  0.72775  Biso   1.000  C
  C51      1.0000 0.94080  0.29994  0.77360  Biso   1.000  C
  H29      1.0000 0.85480  0.28530  0.79120  Biso   1.000  H
  C52      1.0000 0.18270  0.27315  0.77710  Biso   1.000  C
  H30      1.0000 0.25810  0.24010  0.79490  Biso   1.000  H
  C53      1.0000 0.05420  0.25296  0.79924  Biso   1.000  C
  C54      1.0000 0.13410  0.23087  0.04970  Biso   1.000  C
  H31      1.0000 0.23070  0.23550  0.04330  Biso   1.000  H
  H32      1.0000 0.08790  0.27860  0.02930  Biso   1.000  H
  H33      1.0000 0.12560  0.21780  0.12800  Biso   1.000  H
  C55      1.0000 0.06990  0.17081  0.97090  Biso   1.000  C
  C56      1.0000 0.98940  0.11465  0.81020  Biso   1.000  C
  C57      1.0000 0.94120  0.09363  0.68930  Biso   1.000  C
  C58      1.0000 0.93620  0.14060  0.59410  Biso   1.000  C
  H34      1.0000 0.97140  0.19000  0.60390  Biso   1.000  H
  C59      1.0000 0.83440  0.04574  0.48040  Biso   1.000  C
  H35      1.0000 0.79150  0.02780  0.40840  Biso   1.000  H
  C60      1.0000 0.84590  0.99764  0.57470  Biso   1.000  C
  H36      1.0000 0.81500  0.94740  0.56440  Biso   1.000  H
  N16      1.0000 0.03854  0.18173  0.85518  Biso   1.000  N
  N17      1.0000 0.03893  0.10086  0.99532  Biso   1.000  N
  N18      1.0000 0.98769  0.06558  0.89303  Biso   1.000  N
  N19      1.0000 0.89980  0.02143  0.67860  Biso   1.000  N
  N20      1.0000 0.88180  0.11635  0.48860  Biso   1.000  N
  O13      1.0000 0.83700  0.47255  0.62120  Biso   1.000  O
  O14      1.0000 0.72370  0.39754  0.72271  Biso   1.000  O
  O15      1.0000 0.36153  0.43503  0.68856  Biso   1.000  O
  O16      1.0000 0.42880  0.31527  0.70870  Biso   1.000  O
  Zn4      1.0000 0.94664  0.95235  0.84196  Biso   1.000  Zn
