data_image0
_cell_length_a       9.9977
_cell_length_b       18.2887
_cell_length_c       12.0082
_cell_angle_alpha    90
_cell_angle_beta     100.581
_cell_angle_gamma    90

_symmetry_space_group_name_H-M    "P 1"
_symmetry_int_tables_number       1

loop_
  _symmetry_equiv_pos_as_xyz
  'x, y, z'

loop_
  _atom_site_label
  _atom_site_occupancy
  _atom_site_fract_x
  _atom_site_fract_y
  _atom_site_fract_z
  _atom_site_thermal_displace_type
  _atom_site_B_iso_or_equiv
  _atom_site_type_symbol
  C1       1.0000 0.32020  0.09008  0.22740  Biso   1.000  C
  C2       1.0000 0.81560  0.12515  0.20400  Biso   1.000  C
  C3       1.0000 0.56870  0.10872  0.21840  Biso   1.000  C
  H1       1.0000 0.57210  0.06050  0.18960  Biso   1.000  H
  C4       1.0000 0.44860  0.13466  0.24660  Biso   1.000  C
  C5       1.0000 0.68450  0.15299  0.23200  Biso   1.000  C
  C6       1.0000 0.44360  0.20479  0.29040  Biso   1.000  C
  H2       1.0000 0.36240  0.22280  0.31100  Biso   1.000  H
  C7       1.0000 0.68000  0.22366  0.27490  Biso   1.000  C
  H3       1.0000 0.75780  0.25440  0.28430  Biso   1.000  H
  C8       1.0000 0.55960  0.24788  0.30340  Biso   1.000  C
  C9       1.0000 0.63930  0.27080  0.55110  Biso   1.000  C
  H4       1.0000 0.73250  0.25970  0.54190  Biso   1.000  H
  H5       1.0000 0.58320  0.22660  0.53650  Biso   1.000  H
  H6       1.0000 0.63980  0.28780  0.62850  Biso   1.000  H
  C10      1.0000 0.58210  0.32882  0.46960  Biso   1.000  C
  C11      1.0000 0.50540  0.38354  0.30930  Biso   1.000  C
  C12      1.0000 0.45640  0.40258  0.18950  Biso   1.000  C
  C13      1.0000 0.44990  0.35548  0.09770  Biso   1.000  C
  H7       1.0000 0.48740  0.30780  0.10990  Biso   1.000  H
  C14      1.0000 0.34230  0.44296  0.97930  Biso   1.000  C
  H8       1.0000 0.29690  0.45820  0.90650  Biso   1.000  H
  C15      1.0000 0.35480  0.49182  0.06960  Biso   1.000  C
  H9       1.0000 0.32160  0.54030  0.05660  Biso   1.000  H
  N1       1.0000 0.55334  0.31873  0.35521  Biso   1.000  N
  N2       1.0000 0.55290  0.39676  0.49243  Biso   1.000  N
  N3       1.0000 0.50460  0.43132  0.39130  Biso   1.000  N
  N4       1.0000 0.41240  0.47159  0.17374  Biso   1.000  N
  N5       1.0000 0.39230  0.37552  0.99250  Biso   1.000  N
  O1       1.0000 0.31550  0.03037  0.17620  Biso   1.000  O
  O2       1.0000 0.21881  0.11744  0.26132  Biso   1.000  O
  O3       1.0000 0.82620  0.05757  0.18712  Biso   1.000  O
  O4       1.0000 0.91079  0.16877  0.19945  Biso   1.000  O
  Cd1      1.0000 0.45215  0.55175  0.33413  Biso   1.000  Cd
  C16      1.0000 0.17980  0.59008  0.27260  Biso   1.000  C
  C17      1.0000 0.68440  0.62515  0.29600  Biso   1.000  C
  C18      1.0000 0.93130  0.60872  0.28160  Biso   1.000  C
  H10      1.0000 0.92790  0.56050  0.31040  Biso   1.000  H
  C19      1.0000 0.05140  0.63466  0.25340  Biso   1.000  C
  C20      1.0000 0.81550  0.65299  0.26800  Biso   1.000  C
  C21      1.0000 0.05640  0.70479  0.20960  Biso   1.000  C
  H11      1.0000 0.13760  0.72280  0.18900  Biso   1.000  H
  C22      1.0000 0.82000  0.72366  0.22510  Biso   1.000  C
  H12      1.0000 0.74220  0.75440  0.21570  Biso   1.000  H
  C23      1.0000 0.94040  0.74788  0.19660  Biso   1.000  C
  C24      1.0000 0.86070  0.77080  0.94890  Biso   1.000  C
  H13      1.0000 0.76750  0.75970  0.95810  Biso   1.000  H
  H14      1.0000 0.91680  0.72660  0.96350  Biso   1.000  H
  H15      1.0000 0.86020  0.78780  0.87150  Biso   1.000  H
  C25      1.0000 0.91790  0.82882  0.03040  Biso   1.000  C
  C26      1.0000 0.99460  0.88354  0.19070  Biso   1.000  C
  C27      1.0000 0.04360  0.90258  0.31050  Biso   1.000  C
  C28      1.0000 0.05010  0.85548  0.40230  Biso   1.000  C
  H16      1.0000 0.01260  0.80780  0.39010  Biso   1.000  H
  C29      1.0000 0.15770  0.94296  0.52070  Biso   1.000  C
  H17      1.0000 0.20310  0.95820  0.59350  Biso   1.000  H
  C30      1.0000 0.14520  0.99182  0.43040  Biso   1.000  C
  H18      1.0000 0.17840  0.04030  0.44340  Biso   1.000  H
  N6       1.0000 0.94666  0.81873  0.14479  Biso   1.000  N
  N7       1.0000 0.94710  0.89676  0.00757  Biso   1.000  N
  N8       1.0000 0.99540  0.93132  0.10870  Biso   1.000  N
  N9       1.0000 0.08760  0.97159  0.32626  Biso   1.000  N
  N10      1.0000 0.10770  0.87552  0.50750  Biso   1.000  N
  O5       1.0000 0.18450  0.53037  0.32380  Biso   1.000  O
  O6       1.0000 0.28119  0.61744  0.23868  Biso   1.000  O
  O7       1.0000 0.67380  0.55757  0.31288  Biso   1.000  O
  O8       1.0000 0.58921  0.66877  0.30055  Biso   1.000  O
  Cd2      1.0000 0.04785  0.05175  0.16587  Biso   1.000  Cd
  C31      1.0000 0.67980  0.90992  0.77260  Biso   1.000  C
  C32      1.0000 0.18440  0.87485  0.79600  Biso   1.000  C
  C33      1.0000 0.43130  0.89128  0.78160  Biso   1.000  C
  H19      1.0000 0.42790  0.93950  0.81040  Biso   1.000  H
  C34      1.0000 0.55140  0.86534  0.75340  Biso   1.000  C
  C35      1.0000 0.31550  0.84701  0.76800  Biso   1.000  C
  C36      1.0000 0.55640  0.79521  0.70960  Biso   1.000  C
  H20      1.0000 0.63760  0.77720  0.68900  Biso   1.000  H
  C37      1.0000 0.32000  0.77634  0.72510  Biso   1.000  C
  H21      1.0000 0.24220  0.74560  0.71570  Biso   1.000  H
  C38      1.0000 0.44040  0.75212  0.69660  Biso   1.000  C
  C39      1.0000 0.36070  0.72920  0.44890  Biso   1.000  C
  H22      1.0000 0.26750  0.74030  0.45810  Biso   1.000  H
  H23      1.0000 0.41680  0.77340  0.46350  Biso   1.000  H
  H24      1.0000 0.36020  0.71220  0.37150  Biso   1.000  H
  C40      1.0000 0.41790  0.67118  0.53040  Biso   1.000  C
  C41      1.0000 0.49460  0.61646  0.69070  Biso   1.000  C
  C42      1.0000 0.54360  0.59742  0.81050  Biso   1.000  C
  C43      1.0000 0.55010  0.64452  0.90230  Biso   1.000  C
  H25      1.0000 0.51260  0.69220  0.89010  Biso   1.000  H
  C44      1.0000 0.65770  0.55704  0.02070  Biso   1.000  C
  H26      1.0000 0.70310  0.54180  0.09350  Biso   1.000  H
  C45      1.0000 0.64520  0.50818  0.93040  Biso   1.000  C
  H27      1.0000 0.67840  0.45970  0.94340  Biso   1.000  H
  N11      1.0000 0.44666  0.68127  0.64479  Biso   1.000  N
  N12      1.0000 0.44710  0.60324  0.50757  Biso   1.000  N
  N13      1.0000 0.49540  0.56868  0.60870  Biso   1.000  N
  N14      1.0000 0.58760  0.52841  0.82626  Biso   1.000  N
  N15      1.0000 0.60770  0.62448  0.00750  Biso   1.000  N
  O9       1.0000 0.68450  0.96963  0.82380  Biso   1.000  O
  O10      1.0000 0.78119  0.88256  0.73868  Biso   1.000  O
  O11      1.0000 0.17380  0.94243  0.81288  Biso   1.000  O
  O12      1.0000 0.08921  0.83123  0.80055  Biso   1.000  O
  Cd3      1.0000 0.54785  0.44825  0.66587  Biso   1.000  Cd
  C46      1.0000 0.82020  0.40992  0.72740  Biso   1.000  C
  C47      1.0000 0.31560  0.37485  0.70400  Biso   1.000  C
  C48      1.0000 0.06870  0.39128  0.71840  Biso   1.000  C
  H28      1.0000 0.07210  0.43950  0.68960  Biso   1.000  H
  C49      1.0000 0.94860  0.36534  0.74660  Biso   1.000  C
  C50      1.0000 0.18450  0.34701  0.73200  Biso   1.000  C
  C51      1.0000 0.94360  0.29521  0.79040  Biso   1.000  C
  H29      1.0000 0.86240  0.27720  0.81100  Biso   1.000  H
  C52      1.0000 0.18000  0.27634  0.77490  Biso   1.000  C
  H30      1.0000 0.25780  0.24560  0.78430  Biso   1.000  H
  C53      1.0000 0.05960  0.25212  0.80340  Biso   1.000  C
  C54      1.0000 0.13930  0.22920  0.05110  Biso   1.000  C
  H31      1.0000 0.23250  0.24030  0.04190  Biso   1.000  H
  H32      1.0000 0.08320  0.27340  0.03650  Biso   1.000  H
  H33      1.0000 0.13980  0.21220  0.12850  Biso   1.000  H
  C55      1.0000 0.08210  0.17118  0.96960  Biso   1.000  C
  C56      1.0000 0.00540  0.11646  0.80930  Biso   1.000  C
  C57      1.0000 0.95640  0.09742  0.68950  Biso   1.000  C
  C58      1.0000 0.94990  0.14452  0.59770  Biso   1.000  C
  H34      1.0000 0.98740  0.19220  0.60990  Biso   1.000  H
  C59      1.0000 0.84230  0.05704  0.47930  Biso   1.000  C
  H35      1.0000 0.79690  0.04180  0.40650  Biso   1.000  H
  C60      1.0000 0.85480  0.00818  0.56960  Biso   1.000  C
  H36      1.0000 0.82160  0.95970  0.55660  Biso   1.000  H
  N16      1.0000 0.05334  0.18127  0.85521  Biso   1.000  N
  N17      1.0000 0.05290  0.10324  0.99243  Biso   1.000  N
  N18      1.0000 0.00460  0.06868  0.89130  Biso   1.000  N
  N19      1.0000 0.91240  0.02841  0.67374  Biso   1.000  N
  N20      1.0000 0.89230  0.12448  0.49250  Biso   1.000  N
  O13      1.0000 0.81550  0.46963  0.67620  Biso   1.000  O
  O14      1.0000 0.71881  0.38256  0.76132  Biso   1.000  O
  O15      1.0000 0.32620  0.44243  0.68712  Biso   1.000  O
  O16      1.0000 0.41079  0.33123  0.69945  Biso   1.000  O
  Cd4      1.0000 0.95215  0.94825  0.83413  Biso   1.000  Cd
