data_image0
_cell_length_a       10.0802
_cell_length_b       17.451
_cell_length_c       11.5185
_cell_angle_alpha    90
_cell_angle_beta     99.781
_cell_angle_gamma    90

_symmetry_space_group_name_H-M    "P 1"
_symmetry_int_tables_number       1

loop_
  _symmetry_equiv_pos_as_xyz
  'x, y, z'

loop_
  _atom_site_label
  _atom_site_occupancy
  _atom_site_fract_x
  _atom_site_fract_y
  _atom_site_fract_z
  _atom_site_thermal_displace_type
  _atom_site_B_iso_or_equiv
  _atom_site_type_symbol
  C1       1.0000 0.34870  0.07830  0.17500  Biso   1.000  C
  C2       1.0000 0.84950  0.13380  0.20630  Biso   1.000  C
  C3       1.0000 0.59790  0.10830  0.18970  Biso   1.000  C
  H1       1.0000 0.60910  0.06100  0.15190  Biso   1.000  H
  C4       1.0000 0.47040  0.12900  0.21150  Biso   1.000  C
  C5       1.0000 0.70900  0.15600  0.22260  Biso   1.000  C
  C6       1.0000 0.45380  0.19840  0.26860  Biso   1.000  C
  H2       1.0000 0.36870  0.21230  0.28690  Biso   1.000  H
  C7       1.0000 0.69160  0.22670  0.27590  Biso   1.000  C
  H3       1.0000 0.76570  0.26050  0.29660  Biso   1.000  H
  C8       1.0000 0.56520  0.24670  0.29810  Biso   1.000  C
  C9       1.0000 0.64830  0.26480  0.55810  Biso   1.000  C
  H4       1.0000 0.74330  0.26180  0.54980  Biso   1.000  H
  H5       1.0000 0.60450  0.21540  0.53630  Biso   1.000  H
  H6       1.0000 0.64160  0.27680  0.64000  Biso   1.000  H
  C10      1.0000 0.58070  0.32580  0.47940  Biso   1.000  C
  C11      1.0000 0.49280  0.38620  0.31620  Biso   1.000  C
  C12      1.0000 0.44420  0.41090  0.19530  Biso   1.000  C
  C13      1.0000 0.43890  0.36710  0.09260  Biso   1.000  C
  H7       1.0000 0.47480  0.31660  0.09860  Biso   1.000  H
  C14      1.0000 0.33430  0.46530  0.98150  Biso   1.000  C
  H8       1.0000 0.29080  0.48520  0.90800  Biso   1.000  H
  C15      1.0000 0.34340  0.51120  0.08130  Biso   1.000  C
  H9       1.0000 0.30900  0.56190  0.07400  Biso   1.000  H
  N1       1.0000 0.54730  0.31730  0.35950  Biso   1.000  N
  N2       1.0000 0.54670  0.39650  0.50820  Biso   1.000  N
  N3       1.0000 0.49020  0.43390  0.40490  Biso   1.000  N
  N4       1.0000 0.39960  0.48500  0.18740  Biso   1.000  N
  N5       1.0000 0.38440  0.39450  0.98520  Biso   1.000  N
  O1       1.0000 0.35180  0.02700  0.09820  Biso   1.000  O
  O2       1.0000 0.24420  0.09600  0.21520  Biso   1.000  O
  O3       1.0000 0.86870  0.06345  0.18200  Biso   1.000  O
  O4       1.0000 0.93950  0.18430  0.21610  Biso   1.000  O
  Cu1      1.0000 0.43189  0.55000  0.33726  Biso   1.000  Cu
  C16      1.0000 0.15130  0.57830  0.32500  Biso   1.000  C
  C17      1.0000 0.65050  0.63380  0.29370  Biso   1.000  C
  C18      1.0000 0.90210  0.60830  0.31030  Biso   1.000  C
  H10      1.0000 0.89090  0.56100  0.34810  Biso   1.000  H
  C19      1.0000 0.02960  0.62900  0.28850  Biso   1.000  C
  C20      1.0000 0.79100  0.65600  0.27740  Biso   1.000  C
  C21      1.0000 0.04620  0.69840  0.23140  Biso   1.000  C
  H11      1.0000 0.13130  0.71230  0.21310  Biso   1.000  H
  C22      1.0000 0.80840  0.72670  0.22410  Biso   1.000  C
  H12      1.0000 0.73430  0.76050  0.20340  Biso   1.000  H
  C23      1.0000 0.93480  0.74670  0.20190  Biso   1.000  C
  C24      1.0000 0.85170  0.76480  0.94190  Biso   1.000  C
  H13      1.0000 0.75670  0.76180  0.95020  Biso   1.000  H
  H14      1.0000 0.89550  0.71540  0.96370  Biso   1.000  H
  H15      1.0000 0.85840  0.77680  0.86000  Biso   1.000  H
  C25      1.0000 0.91930  0.82580  0.02060  Biso   1.000  C
  C26      1.0000 0.00720  0.88620  0.18380  Biso   1.000  C
  C27      1.0000 0.05580  0.91090  0.30470  Biso   1.000  C
  C28      1.0000 0.06110  0.86710  0.40740  Biso   1.000  C
  H16      1.0000 0.02520  0.81660  0.40140  Biso   1.000  H
  C29      1.0000 0.16570  0.96530  0.51850  Biso   1.000  C
  H17      1.0000 0.20920  0.98520  0.59200  Biso   1.000  H
  C30      1.0000 0.15660  0.01120  0.41870  Biso   1.000  C
  H18      1.0000 0.19100  0.06190  0.42600  Biso   1.000  H
  N6       1.0000 0.95270  0.81730  0.14050  Biso   1.000  N
  N7       1.0000 0.95330  0.89650  0.99180  Biso   1.000  N
  N8       1.0000 0.00980  0.93390  0.09510  Biso   1.000  N
  N9       1.0000 0.10040  0.98500  0.31260  Biso   1.000  N
  N10      1.0000 0.11560  0.89450  0.51480  Biso   1.000  N
  O5       1.0000 0.14820  0.52700  0.40180  Biso   1.000  O
  O6       1.0000 0.25580  0.59600  0.28480  Biso   1.000  O
  O7       1.0000 0.63130  0.56345  0.31800  Biso   1.000  O
  O8       1.0000 0.56050  0.68430  0.28390  Biso   1.000  O
  Cu2      1.0000 0.06811  0.05000  0.16274  Biso   1.000  Cu
  C31      1.0000 0.65130  0.92170  0.82500  Biso   1.000  C
  C32      1.0000 0.15050  0.86620  0.79370  Biso   1.000  C
  C33      1.0000 0.40210  0.89170  0.81030  Biso   1.000  C
  H19      1.0000 0.39090  0.93900  0.84810  Biso   1.000  H
  C34      1.0000 0.52960  0.87100  0.78850  Biso   1.000  C
  C35      1.0000 0.29100  0.84400  0.77740  Biso   1.000  C
  C36      1.0000 0.54620  0.80160  0.73140  Biso   1.000  C
  H20      1.0000 0.63130  0.78770  0.71310  Biso   1.000  H
  C37      1.0000 0.30840  0.77330  0.72410  Biso   1.000  C
  H21      1.0000 0.23430  0.73950  0.70340  Biso   1.000  H
  C38      1.0000 0.43480  0.75330  0.70190  Biso   1.000  C
  C39      1.0000 0.35170  0.73520  0.44190  Biso   1.000  C
  H22      1.0000 0.25670  0.73820  0.45020  Biso   1.000  H
  H23      1.0000 0.39550  0.78460  0.46370  Biso   1.000  H
  H24      1.0000 0.35840  0.72320  0.36000  Biso   1.000  H
  C40      1.0000 0.41930  0.67420  0.52060  Biso   1.000  C
  C41      1.0000 0.50720  0.61380  0.68380  Biso   1.000  C
  C42      1.0000 0.55580  0.58910  0.80470  Biso   1.000  C
  C43      1.0000 0.56110  0.63290  0.90740  Biso   1.000  C
  H25      1.0000 0.52520  0.68340  0.90140  Biso   1.000  H
  C44      1.0000 0.66570  0.53470  0.01850  Biso   1.000  C
  H26      1.0000 0.70920  0.51480  0.09200  Biso   1.000  H
  C45      1.0000 0.65660  0.48880  0.91870  Biso   1.000  C
  H27      1.0000 0.69100  0.43810  0.92600  Biso   1.000  H
  N11      1.0000 0.45270  0.68270  0.64050  Biso   1.000  N
  N12      1.0000 0.45330  0.60350  0.49180  Biso   1.000  N
  N13      1.0000 0.50980  0.56610  0.59510  Biso   1.000  N
  N14      1.0000 0.60040  0.51500  0.81260  Biso   1.000  N
  N15      1.0000 0.61560  0.60550  0.01480  Biso   1.000  N
  O9       1.0000 0.64820  0.97300  0.90180  Biso   1.000  O
  O10      1.0000 0.75580  0.90400  0.78480  Biso   1.000  O
  O11      1.0000 0.13130  0.93655  0.81800  Biso   1.000  O
  O12      1.0000 0.06050  0.81570  0.78390  Biso   1.000  O
  Cu3      1.0000 0.56811  0.45000  0.66274  Biso   1.000  Cu
  C46      1.0000 0.84870  0.42170  0.67500  Biso   1.000  C
  C47      1.0000 0.34950  0.36620  0.70630  Biso   1.000  C
  C48      1.0000 0.09790  0.39170  0.68970  Biso   1.000  C
  H28      1.0000 0.10910  0.43900  0.65190  Biso   1.000  H
  C49      1.0000 0.97040  0.37100  0.71150  Biso   1.000  C
  C50      1.0000 0.20900  0.34400  0.72260  Biso   1.000  C
  C51      1.0000 0.95380  0.30160  0.76860  Biso   1.000  C
  H29      1.0000 0.86870  0.28770  0.78690  Biso   1.000  H
  C52      1.0000 0.19160  0.27330  0.77590  Biso   1.000  C
  H30      1.0000 0.26570  0.23950  0.79660  Biso   1.000  H
  C53      1.0000 0.06520  0.25330  0.79810  Biso   1.000  C
  C54      1.0000 0.14830  0.23520  0.05810  Biso   1.000  C
  H31      1.0000 0.24330  0.23820  0.04980  Biso   1.000  H
  H32      1.0000 0.10450  0.28460  0.03630  Biso   1.000  H
  H33      1.0000 0.14160  0.22320  0.14000  Biso   1.000  H
  C55      1.0000 0.08070  0.17420  0.97940  Biso   1.000  C
  C56      1.0000 0.99280  0.11380  0.81620  Biso   1.000  C
  C57      1.0000 0.94420  0.08910  0.69530  Biso   1.000  C
  C58      1.0000 0.93890  0.13290  0.59260  Biso   1.000  C
  H34      1.0000 0.97480  0.18340  0.59860  Biso   1.000  H
  C59      1.0000 0.83430  0.03470  0.48150  Biso   1.000  C
  H35      1.0000 0.79080  0.01480  0.40800  Biso   1.000  H
  C60      1.0000 0.84340  0.98880  0.58130  Biso   1.000  C
  H36      1.0000 0.80900  0.93810  0.57400  Biso   1.000  H
  N16      1.0000 0.04730  0.18270  0.85950  Biso   1.000  N
  N17      1.0000 0.04670  0.10350  0.00820  Biso   1.000  N
  N18      1.0000 0.99020  0.06610  0.90490  Biso   1.000  N
  N19      1.0000 0.89960  0.01500  0.68740  Biso   1.000  N
  N20      1.0000 0.88440  0.10550  0.48520  Biso   1.000  N
  O13      1.0000 0.85180  0.47300  0.59820  Biso   1.000  O
  O14      1.0000 0.74420  0.40400  0.71520  Biso   1.000  O
  O15      1.0000 0.36870  0.43655  0.68200  Biso   1.000  O
  O16      1.0000 0.43950  0.31570  0.71610  Biso   1.000  O
  Cu4      1.0000 0.93189  0.95000  0.83726  Biso   1.000  Cu
