data_image0
_cell_length_a       9.9602
_cell_length_b       17.0086
_cell_length_c       12.2279
_cell_angle_alpha    90
_cell_angle_beta     96.947
_cell_angle_gamma    90

_symmetry_space_group_name_H-M    "P 1"
_symmetry_int_tables_number       1

loop_
  _symmetry_equiv_pos_as_xyz
  'x, y, z'

loop_
  _atom_site_label
  _atom_site_occupancy
  _atom_site_fract_x
  _atom_site_fract_y
  _atom_site_fract_z
  _atom_site_thermal_displace_type
  _atom_site_B_iso_or_equiv
  _atom_site_type_symbol
  C1       1.0000 0.33490  0.05740  0.21740  Biso   1.000  C
  C2       1.0000 0.83310  0.11700  0.23860  Biso   1.000  C
  C3       1.0000 0.58300  0.08830  0.23390  Biso   1.000  C
  H1       1.0000 0.59700  0.03860  0.20140  Biso   1.000  H
  C4       1.0000 0.45360  0.11090  0.25360  Biso   1.000  C
  C5       1.0000 0.69300  0.13940  0.26240  Biso   1.000  C
  C6       1.0000 0.43200  0.18240  0.30180  Biso   1.000  C
  H2       1.0000 0.34330  0.19790  0.31380  Biso   1.000  H
  C7       1.0000 0.67240  0.21110  0.31160  Biso   1.000  C
  H3       1.0000 0.74580  0.24600  0.33090  Biso   1.000  H
  C8       1.0000 0.54170  0.23110  0.33250  Biso   1.000  C
  C9       1.0000 0.59280  0.25570  0.58030  Biso   1.000  C
  H4       1.0000 0.69170  0.25650  0.59460  Biso   1.000  H
  H5       1.0000 0.56270  0.20390  0.55190  Biso   1.000  H
  H6       1.0000 0.55440  0.26620  0.64900  Biso   1.000  H
  C10      1.0000 0.54690  0.31660  0.49830  Biso   1.000  C
  C11      1.0000 0.48010  0.37600  0.34310  Biso   1.000  C
  C12      1.0000 0.44240  0.39720  0.22690  Biso   1.000  C
  C13      1.0000 0.38450  0.36710  0.04760  Biso   1.000  C
  H7       1.0000 0.37430  0.32980  0.98940  Biso   1.000  H
  C14      1.0000 0.35830  0.44490  0.02350  Biso   1.000  C
  H8       1.0000 0.32480  0.46120  0.95100  Biso   1.000  H
  C15      1.0000 0.38220  0.49840  0.10780  Biso   1.000  C
  H9       1.0000 0.36690  0.55270  0.09310  Biso   1.000  H
  N1       1.0000 0.52050  0.30412  0.38750  Biso   1.000  N
  N2       1.0000 0.52210  0.39128  0.51940  Biso   1.000  N
  N3       1.0000 0.47950  0.42836  0.42090  Biso   1.000  N
  N4       1.0000 0.42680  0.47502  0.21070  Biso   1.000  N
  N5       1.0000 0.42440  0.34190  0.15110  Biso   1.000  N
  O1       1.0000 0.35220  0.98500  0.21580  Biso   1.000  O
  O2       1.0000 0.22410  0.09235  0.19290  Biso   1.000  O
  O3       1.0000 0.84380  0.05952  0.17230  Biso   1.000  O
  O4       1.0000 0.93200  0.15455  0.28370  Biso   1.000  O
  Cu1      1.0000 0.45556  0.54850  0.34140  Biso   1.000  Cu
  C16      1.0000 0.16510  0.55740  0.28260  Biso   1.000  C
  C17      1.0000 0.66690  0.61700  0.26140  Biso   1.000  C
  C18      1.0000 0.91700  0.58830  0.26610  Biso   1.000  C
  H10      1.0000 0.90300  0.53860  0.29860  Biso   1.000  H
  C19      1.0000 0.04640  0.61090  0.24640  Biso   1.000  C
  C20      1.0000 0.80700  0.63940  0.23760  Biso   1.000  C
  C21      1.0000 0.06800  0.68240  0.19820  Biso   1.000  C
  H11      1.0000 0.15670  0.69790  0.18620  Biso   1.000  H
  C22      1.0000 0.82760  0.71110  0.18840  Biso   1.000  C
  H12      1.0000 0.75420  0.74600  0.16910  Biso   1.000  H
  C23      1.0000 0.95830  0.73110  0.16750  Biso   1.000  C
  C24      1.0000 0.90720  0.75570  0.91970  Biso   1.000  C
  H13      1.0000 0.80830  0.75650  0.90540  Biso   1.000  H
  H14      1.0000 0.93730  0.70390  0.94810  Biso   1.000  H
  H15      1.0000 0.94560  0.76620  0.85100  Biso   1.000  H
  C25      1.0000 0.95310  0.81660  0.00170  Biso   1.000  C
  C26      1.0000 0.01990  0.87600  0.15690  Biso   1.000  C
  C27      1.0000 0.05760  0.89720  0.27310  Biso   1.000  C
  C28      1.0000 0.11550  0.86710  0.45240  Biso   1.000  C
  H16      1.0000 0.12570  0.82980  0.51060  Biso   1.000  H
  C29      1.0000 0.14170  0.94490  0.47650  Biso   1.000  C
  H17      1.0000 0.17520  0.96120  0.54900  Biso   1.000  H
  C30      1.0000 0.11780  0.99840  0.39220  Biso   1.000  C
  H18      1.0000 0.13310  0.05270  0.40690  Biso   1.000  H
  N6       1.0000 0.97950  0.80412  0.11250  Biso   1.000  N
  N7       1.0000 0.97790  0.89128  0.98060  Biso   1.000  N
  N8       1.0000 0.02050  0.92836  0.07910  Biso   1.000  N
  N9       1.0000 0.07320  0.97502  0.28930  Biso   1.000  N
  N10      1.0000 0.07560  0.84190  0.34890  Biso   1.000  N
  O5       1.0000 0.14780  0.48500  0.28420  Biso   1.000  O
  O6       1.0000 0.27590  0.59235  0.30710  Biso   1.000  O
  O7       1.0000 0.65620  0.55952  0.32770  Biso   1.000  O
  O8       1.0000 0.56800  0.65455  0.21630  Biso   1.000  O
  Cu2      1.0000 0.04444  0.04850  0.15860  Biso   1.000  Cu
  C31      1.0000 0.66510  0.94260  0.78260  Biso   1.000  C
  C32      1.0000 0.16690  0.88300  0.76140  Biso   1.000  C
  C33      1.0000 0.41700  0.91170  0.76610  Biso   1.000  C
  H19      1.0000 0.40300  0.96140  0.79860  Biso   1.000  H
  C34      1.0000 0.54640  0.88910  0.74640  Biso   1.000  C
  C35      1.0000 0.30700  0.86060  0.73760  Biso   1.000  C
  C36      1.0000 0.56800  0.81760  0.69820  Biso   1.000  C
  H20      1.0000 0.65670  0.80210  0.68620  Biso   1.000  H
  C37      1.0000 0.32760  0.78890  0.68840  Biso   1.000  C
  H21      1.0000 0.25420  0.75400  0.66910  Biso   1.000  H
  C38      1.0000 0.45830  0.76890  0.66750  Biso   1.000  C
  C39      1.0000 0.40720  0.74430  0.41970  Biso   1.000  C
  H22      1.0000 0.30830  0.74350  0.40540  Biso   1.000  H
  H23      1.0000 0.43730  0.79610  0.44810  Biso   1.000  H
  H24      1.0000 0.44560  0.73380  0.35100  Biso   1.000  H
  C40      1.0000 0.45310  0.68340  0.50170  Biso   1.000  C
  C41      1.0000 0.51990  0.62400  0.65690  Biso   1.000  C
  C42      1.0000 0.55760  0.60280  0.77310  Biso   1.000  C
  C43      1.0000 0.61550  0.63290  0.95240  Biso   1.000  C
  H25      1.0000 0.62570  0.67020  0.01060  Biso   1.000  H
  C44      1.0000 0.64170  0.55510  0.97650  Biso   1.000  C
  H26      1.0000 0.67520  0.53880  0.04900  Biso   1.000  H
  C45      1.0000 0.61780  0.50160  0.89220  Biso   1.000  C
  H27      1.0000 0.63310  0.44730  0.90690  Biso   1.000  H
  N11      1.0000 0.47950  0.69588  0.61250  Biso   1.000  N
  N12      1.0000 0.47790  0.60872  0.48060  Biso   1.000  N
  N13      1.0000 0.52050  0.57164  0.57910  Biso   1.000  N
  N14      1.0000 0.57320  0.52498  0.78930  Biso   1.000  N
  N15      1.0000 0.57560  0.65810  0.84890  Biso   1.000  N
  O9       1.0000 0.64780  0.01500  0.78420  Biso   1.000  O
  O10      1.0000 0.77590  0.90765  0.80710  Biso   1.000  O
  O11      1.0000 0.15620  0.94048  0.82770  Biso   1.000  O
  O12      1.0000 0.06800  0.84545  0.71630  Biso   1.000  O
  Cu3      1.0000 0.54444  0.45150  0.65860  Biso   1.000  Cu
  C46      1.0000 0.83490  0.44260  0.71740  Biso   1.000  C
  C47      1.0000 0.33310  0.38300  0.73860  Biso   1.000  C
  C48      1.0000 0.08300  0.41170  0.73390  Biso   1.000  C
  H28      1.0000 0.09700  0.46140  0.70140  Biso   1.000  H
  C49      1.0000 0.95360  0.38910  0.75360  Biso   1.000  C
  C50      1.0000 0.19300  0.36060  0.76240  Biso   1.000  C
  C51      1.0000 0.93200  0.31760  0.80180  Biso   1.000  C
  H29      1.0000 0.84330  0.30210  0.81380  Biso   1.000  H
  C52      1.0000 0.17240  0.28890  0.81160  Biso   1.000  C
  H30      1.0000 0.24580  0.25400  0.83090  Biso   1.000  H
  C53      1.0000 0.04170  0.26890  0.83250  Biso   1.000  C
  C54      1.0000 0.09280  0.24430  0.08030  Biso   1.000  C
  H31      1.0000 0.19170  0.24350  0.09460  Biso   1.000  H
  H32      1.0000 0.06270  0.29610  0.05190  Biso   1.000  H
  H33      1.0000 0.05440  0.23380  0.14900  Biso   1.000  H
  C55      1.0000 0.04690  0.18340  0.99830  Biso   1.000  C
  C56      1.0000 0.98010  0.12400  0.84310  Biso   1.000  C
  C57      1.0000 0.94240  0.10280  0.72690  Biso   1.000  C
  C58      1.0000 0.88450  0.13290  0.54760  Biso   1.000  C
  H34      1.0000 0.87430  0.17020  0.48940  Biso   1.000  H
  C59      1.0000 0.85830  0.05510  0.52350  Biso   1.000  C
  H35      1.0000 0.82480  0.03880  0.45100  Biso   1.000  H
  C60      1.0000 0.88220  0.00160  0.60780  Biso   1.000  C
  H36      1.0000 0.86690  0.94730  0.59310  Biso   1.000  H
  N16      1.0000 0.02050  0.19588  0.88750  Biso   1.000  N
  N17      1.0000 0.02210  0.10872  0.01940  Biso   1.000  N
  N18      1.0000 0.97950  0.07164  0.92090  Biso   1.000  N
  N19      1.0000 0.92680  0.02498  0.71070  Biso   1.000  N
  N20      1.0000 0.92440  0.15810  0.65110  Biso   1.000  N
  O13      1.0000 0.85220  0.51500  0.71580  Biso   1.000  O
  O14      1.0000 0.72410  0.40765  0.69290  Biso   1.000  O
  O15      1.0000 0.34380  0.44048  0.67230  Biso   1.000  O
  O16      1.0000 0.43200  0.34545  0.78370  Biso   1.000  O
  Cu4      1.0000 0.95556  0.95150  0.84140  Biso   1.000  Cu
