data_image0
_cell_length_a       10.54
_cell_length_b       10.05
_cell_length_c       14.37
_cell_angle_alpha    90
_cell_angle_beta     90
_cell_angle_gamma    90

_symmetry_space_group_name_H-M    "P 1"
_symmetry_int_tables_number       1

loop_
  _symmetry_equiv_pos_as_xyz
  'x, y, z'

loop_
  _atom_site_label
  _atom_site_occupancy
  _atom_site_fract_x
  _atom_site_fract_y
  _atom_site_fract_z
  _atom_site_thermal_displace_type
  _atom_site_B_iso_or_equiv
  _atom_site_type_symbol
  Zn1      1.0000 0.40961  0.62734  0.55240  Biso   1.000  Zn
  Zn2      1.0000 0.15272  0.13170  0.46357  Biso   1.000  Zn
  P1       1.0000 0.18500  0.81290  0.49620  Biso   1.000  P
  P2       1.0000 0.37520  0.32290  0.51120  Biso   1.000  P
  P3       1.0000 0.04820  0.02200  0.26640  Biso   1.000  P
  O1       1.0000 0.36880  0.46810  0.48160  Biso   1.000  O
  O2       1.0000 0.26080  0.73600  0.56710  Biso   1.000  O
  O3       1.0000 0.08720  0.12880  0.33590  Biso   1.000  O
  O4       1.0000 0.20520  0.96050  0.50910  Biso   1.000  O
  O5       1.0000 0.30610  0.23420  0.44230  Biso   1.000  O
  O6       1.0000 0.04510  0.77510  0.49570  Biso   1.000  O
  O7       1.0000 0.51150  0.27870  0.52790  Biso   1.000  O
  O8       1.0000 0.02320  0.08060  0.17210  Biso   1.000  O
  O9       1.0000 0.14390  0.90770  0.25980  Biso   1.000  O
  O10      1.0000 0.23920  0.77160  0.39770  Biso   1.000  O
  O11      1.0000 0.91880  0.96250  0.30230  Biso   1.000  O
  O12      1.0000 0.30120  0.30370  0.60690  Biso   1.000  O
  Zn3      1.0000 0.59039  0.37266  0.05240  Biso   1.000  Zn
  Zn4      1.0000 0.84728  0.86830  0.96357  Biso   1.000  Zn
  P4       1.0000 0.81500  0.18710  0.99620  Biso   1.000  P
  P5       1.0000 0.62480  0.67710  0.01120  Biso   1.000  P
  P6       1.0000 0.95180  0.97800  0.76640  Biso   1.000  P
  O13      1.0000 0.63120  0.53190  0.98160  Biso   1.000  O
  O14      1.0000 0.73920  0.26400  0.06710  Biso   1.000  O
  O15      1.0000 0.91280  0.87120  0.83590  Biso   1.000  O
  O16      1.0000 0.79480  0.03950  0.00910  Biso   1.000  O
  O17      1.0000 0.69390  0.76580  0.94230  Biso   1.000  O
  O18      1.0000 0.95490  0.22490  0.99570  Biso   1.000  O
  O19      1.0000 0.48850  0.72130  0.02790  Biso   1.000  O
  O20      1.0000 0.97680  0.91940  0.67210  Biso   1.000  O
  O21      1.0000 0.85610  0.09230  0.75980  Biso   1.000  O
  O22      1.0000 0.76080  0.22840  0.89770  Biso   1.000  O
  O23      1.0000 0.08120  0.03750  0.80230  Biso   1.000  O
  O24      1.0000 0.69880  0.69630  0.10690  Biso   1.000  O
  Zn5      1.0000 0.90961  0.87266  0.55240  Biso   1.000  Zn
  Zn6      1.0000 0.65272  0.36830  0.46357  Biso   1.000  Zn
  P7       1.0000 0.68500  0.68710  0.49620  Biso   1.000  P
  P8       1.0000 0.87520  0.17710  0.51120  Biso   1.000  P
  P9       1.0000 0.54820  0.47800  0.26640  Biso   1.000  P
  O25      1.0000 0.86880  0.03190  0.48160  Biso   1.000  O
  O26      1.0000 0.76080  0.76400  0.56710  Biso   1.000  O
  O27      1.0000 0.58720  0.37120  0.33590  Biso   1.000  O
  O28      1.0000 0.70520  0.53950  0.50910  Biso   1.000  O
  O29      1.0000 0.80610  0.26580  0.44230  Biso   1.000  O
  O30      1.0000 0.54510  0.72490  0.49570  Biso   1.000  O
  O31      1.0000 0.01150  0.22130  0.52790  Biso   1.000  O
  O32      1.0000 0.52320  0.41940  0.17210  Biso   1.000  O
  O33      1.0000 0.64390  0.59230  0.25980  Biso   1.000  O
  O34      1.0000 0.73920  0.72840  0.39770  Biso   1.000  O
  O35      1.0000 0.41880  0.53750  0.30230  Biso   1.000  O
  O36      1.0000 0.80120  0.19630  0.60690  Biso   1.000  O
  Zn7      1.0000 0.09039  0.12734  0.05240  Biso   1.000  Zn
  Zn8      1.0000 0.34728  0.63170  0.96357  Biso   1.000  Zn
  P10      1.0000 0.31500  0.31290  0.99620  Biso   1.000  P
  P11      1.0000 0.12480  0.82290  0.01120  Biso   1.000  P
  P12      1.0000 0.45180  0.52200  0.76640  Biso   1.000  P
  O37      1.0000 0.13120  0.96810  0.98160  Biso   1.000  O
  O38      1.0000 0.23920  0.23600  0.06710  Biso   1.000  O
  O39      1.0000 0.41280  0.62880  0.83590  Biso   1.000  O
  O40      1.0000 0.29480  0.46050  0.00910  Biso   1.000  O
  O41      1.0000 0.19390  0.73420  0.94230  Biso   1.000  O
  O42      1.0000 0.45490  0.27510  0.99570  Biso   1.000  O
  O43      1.0000 0.98850  0.77870  0.02790  Biso   1.000  O
  O44      1.0000 0.47680  0.58060  0.67210  Biso   1.000  O
  O45      1.0000 0.35610  0.40770  0.75980  Biso   1.000  O
  O46      1.0000 0.26080  0.27160  0.89770  Biso   1.000  O
  O47      1.0000 0.58120  0.46250  0.80230  Biso   1.000  O
  O48      1.0000 0.19880  0.80370  0.10690  Biso   1.000  O
