data_image0
_cell_length_a       14.3142
_cell_length_b       10.0277
_cell_length_c       10.4917
_cell_angle_alpha    90
_cell_angle_beta     94.102
_cell_angle_gamma    90

_symmetry_space_group_name_H-M    "P 1"
_symmetry_int_tables_number       1

loop_
  _symmetry_equiv_pos_as_xyz
  'x, y, z'

loop_
  _atom_site_label
  _atom_site_occupancy
  _atom_site_fract_x
  _atom_site_fract_y
  _atom_site_fract_z
  _atom_site_thermal_displace_type
  _atom_site_B_iso_or_equiv
  _atom_site_type_symbol
  Zn1      1.0000 0.54564  0.87381  0.14422  Biso   1.000  Zn
  Zn2      1.0000 0.95654  0.86625  0.10163  Biso   1.000  Zn
  P1       1.0000 0.51022  0.19285  0.13423  Biso   1.000  P
  P2       1.0000 0.74004  0.97354  0.04200  Biso   1.000  P
  P3       1.0000 0.00657  0.82839  0.82680  Biso   1.000  P
  O1       1.0000 0.60720  0.22250  0.20870  Biso   1.000  O
  O2       1.0000 0.48340  0.04700  0.15580  Biso   1.000  O
  O3       1.0000 0.51920  0.22410  0.99410  Biso   1.000  O
  O4       1.0000 0.43980  0.28520  0.19150  Biso   1.000  O
  O5       1.0000 0.69990  0.02350  0.90580  Biso   1.000  O
  O6       1.0000 0.74770  0.09450  0.13130  Biso   1.000  O
  O7       1.0000 0.67200  0.87080  0.08880  Biso   1.000  O
  O8       1.0000 0.83440  0.91260  0.02260  Biso   1.000  O
  O9       1.0000 0.10310  0.79980  0.76710  Biso   1.000  O
  O10      1.0000 0.01810  0.77440  0.96440  Biso   1.000  O
  O11      1.0000 0.98560  0.97670  0.82320  Biso   1.000  O
  O12      1.0000 0.93410  0.75190  0.74290  Biso   1.000  O
  H1       1.0000 0.64500  0.19000  0.18000  Biso   1.000  H
  H2       1.0000 0.64900  0.00700  0.89000  Biso   1.000  H
  H3       1.0000 0.14900  0.82500  0.80400  Biso   1.000  H
  Zn3      1.0000 0.45436  0.37381  0.35578  Biso   1.000  Zn
  Zn4      1.0000 0.04346  0.36625  0.39837  Biso   1.000  Zn
  P4       1.0000 0.48978  0.69285  0.36577  Biso   1.000  P
  P5       1.0000 0.25996  0.47354  0.45800  Biso   1.000  P
  P6       1.0000 0.99343  0.32839  0.67320  Biso   1.000  P
  O13      1.0000 0.39280  0.72250  0.29130  Biso   1.000  O
  O14      1.0000 0.51660  0.54700  0.34420  Biso   1.000  O
  O15      1.0000 0.48080  0.72410  0.50590  Biso   1.000  O
  O16      1.0000 0.56020  0.78520  0.30850  Biso   1.000  O
  O17      1.0000 0.30010  0.52350  0.59420  Biso   1.000  O
  O18      1.0000 0.25230  0.59450  0.36870  Biso   1.000  O
  O19      1.0000 0.32800  0.37080  0.41120  Biso   1.000  O
  O20      1.0000 0.16560  0.41260  0.47740  Biso   1.000  O
  O21      1.0000 0.89690  0.29980  0.73290  Biso   1.000  O
  O22      1.0000 0.98190  0.27440  0.53560  Biso   1.000  O
  O23      1.0000 0.01440  0.47670  0.67680  Biso   1.000  O
  O24      1.0000 0.06590  0.25190  0.75710  Biso   1.000  O
  H4       1.0000 0.35500  0.69000  0.32000  Biso   1.000  H
  H5       1.0000 0.35100  0.50700  0.61000  Biso   1.000  H
  H6       1.0000 0.85100  0.32500  0.69600  Biso   1.000  H
  Zn5      1.0000 0.45436  0.12619  0.85578  Biso   1.000  Zn
  Zn6      1.0000 0.04346  0.13375  0.89837  Biso   1.000  Zn
  P7       1.0000 0.48978  0.80715  0.86577  Biso   1.000  P
  P8       1.0000 0.25996  0.02646  0.95800  Biso   1.000  P
  P9       1.0000 0.99343  0.17161  0.17320  Biso   1.000  P
  O25      1.0000 0.39280  0.77750  0.79130  Biso   1.000  O
  O26      1.0000 0.51660  0.95300  0.84420  Biso   1.000  O
  O27      1.0000 0.48080  0.77590  0.00590  Biso   1.000  O
  O28      1.0000 0.56020  0.71480  0.80850  Biso   1.000  O
  O29      1.0000 0.30010  0.97650  0.09420  Biso   1.000  O
  O30      1.0000 0.25230  0.90550  0.86870  Biso   1.000  O
  O31      1.0000 0.32800  0.12920  0.91120  Biso   1.000  O
  O32      1.0000 0.16560  0.08740  0.97740  Biso   1.000  O
  O33      1.0000 0.89690  0.20020  0.23290  Biso   1.000  O
  O34      1.0000 0.98190  0.22560  0.03560  Biso   1.000  O
  O35      1.0000 0.01440  0.02330  0.17680  Biso   1.000  O
  O36      1.0000 0.06590  0.24810  0.25710  Biso   1.000  O
  H7       1.0000 0.35500  0.81000  0.82000  Biso   1.000  H
  H8       1.0000 0.35100  0.99300  0.11000  Biso   1.000  H
  H9       1.0000 0.85100  0.17500  0.19600  Biso   1.000  H
  Zn7      1.0000 0.54564  0.62619  0.64422  Biso   1.000  Zn
  Zn8      1.0000 0.95654  0.63375  0.60163  Biso   1.000  Zn
  P10      1.0000 0.51022  0.30715  0.63423  Biso   1.000  P
  P11      1.0000 0.74004  0.52646  0.54200  Biso   1.000  P
  P12      1.0000 0.00657  0.67161  0.32680  Biso   1.000  P
  O37      1.0000 0.60720  0.27750  0.70870  Biso   1.000  O
  O38      1.0000 0.48340  0.45300  0.65580  Biso   1.000  O
  O39      1.0000 0.51920  0.27590  0.49410  Biso   1.000  O
  O40      1.0000 0.43980  0.21480  0.69150  Biso   1.000  O
  O41      1.0000 0.69990  0.47650  0.40580  Biso   1.000  O
  O42      1.0000 0.74770  0.40550  0.63130  Biso   1.000  O
  O43      1.0000 0.67200  0.62920  0.58880  Biso   1.000  O
  O44      1.0000 0.83440  0.58740  0.52260  Biso   1.000  O
  O45      1.0000 0.10310  0.70020  0.26710  Biso   1.000  O
  O46      1.0000 0.01810  0.72560  0.46440  Biso   1.000  O
  O47      1.0000 0.98560  0.52330  0.32320  Biso   1.000  O
  O48      1.0000 0.93410  0.74810  0.24290  Biso   1.000  O
  H10      1.0000 0.64500  0.31000  0.68000  Biso   1.000  H
  H11      1.0000 0.64900  0.49300  0.39000  Biso   1.000  H
  H12      1.0000 0.14900  0.67500  0.30400  Biso   1.000  H
