data_image0
_cell_length_a       20.2313
_cell_length_b       20.2313
_cell_length_c       20.2313
_cell_angle_alpha    90
_cell_angle_beta     90
_cell_angle_gamma    90

_symmetry_space_group_name_H-M    "P 1"
_symmetry_int_tables_number       1

loop_
  _symmetry_equiv_pos_as_xyz
  'x, y, z'

loop_
  _atom_site_label
  _atom_site_occupancy
  _atom_site_fract_x
  _atom_site_fract_y
  _atom_site_fract_z
  _atom_site_thermal_displace_type
  _atom_site_B_iso_or_equiv
  _atom_site_type_symbol
  N1       1.0000 0.27500  0.51800  0.32700  Biso   1.000  N
  N2       1.0000 0.37200  0.41700  0.32600  Biso   1.000  N
  N3       1.0000 0.45400  0.41000  0.21900  Biso   1.000  N
  C1       1.0000 0.27200  0.46300  0.36800  Biso   1.000  C
  C2       1.0000 0.22500  0.56500  0.32800  Biso   1.000  C
  C3       1.0000 0.32800  0.41700  0.37100  Biso   1.000  C
  C4       1.0000 0.50100  0.41100  0.16800  Biso   1.000  C
  C5       1.0000 0.17100  0.55600  0.37000  Biso   1.000  C
  H1       1.0000 0.22700  0.60150  0.30080  Biso   1.000  H
  H2       1.0000 0.49540  0.43950  0.13240  Biso   1.000  H
  H3       1.0000 0.13760  0.58730  0.37110  Biso   1.000  H
  N4       1.0000 0.77500  0.01800  0.82700  Biso   1.000  N
  N5       1.0000 0.87200  0.91700  0.82600  Biso   1.000  N
  N6       1.0000 0.95400  0.91000  0.71900  Biso   1.000  N
  C6       1.0000 0.77200  0.96300  0.86800  Biso   1.000  C
  C7       1.0000 0.72500  0.06500  0.82800  Biso   1.000  C
  C8       1.0000 0.82800  0.91700  0.87100  Biso   1.000  C
  C9       1.0000 0.00100  0.91100  0.66800  Biso   1.000  C
  C10      1.0000 0.67100  0.05600  0.87000  Biso   1.000  C
  H4       1.0000 0.72700  0.10150  0.80080  Biso   1.000  H
  H5       1.0000 0.99540  0.93950  0.63240  Biso   1.000  H
  H6       1.0000 0.63760  0.08730  0.87110  Biso   1.000  H
  N7       1.0000 0.22500  0.48200  0.82700  Biso   1.000  N
  N8       1.0000 0.12800  0.58300  0.82600  Biso   1.000  N
  N9       1.0000 0.04600  0.59000  0.71900  Biso   1.000  N
  C11      1.0000 0.22800  0.53700  0.86800  Biso   1.000  C
  C12      1.0000 0.27500  0.43500  0.82800  Biso   1.000  C
  C13      1.0000 0.17200  0.58300  0.87100  Biso   1.000  C
  C14      1.0000 0.99900  0.58900  0.66800  Biso   1.000  C
  C15      1.0000 0.32900  0.44400  0.87000  Biso   1.000  C
  H7       1.0000 0.27300  0.39850  0.80080  Biso   1.000  H
  H8       1.0000 0.00460  0.56050  0.63240  Biso   1.000  H
  H9       1.0000 0.36240  0.41270  0.87110  Biso   1.000  H
  N10      1.0000 0.72500  0.98200  0.32700  Biso   1.000  N
  N11      1.0000 0.62800  0.08300  0.32600  Biso   1.000  N
  N12      1.0000 0.54600  0.09000  0.21900  Biso   1.000  N
  C16      1.0000 0.72800  0.03700  0.36800  Biso   1.000  C
  C17      1.0000 0.77500  0.93500  0.32800  Biso   1.000  C
  C18      1.0000 0.67200  0.08300  0.37100  Biso   1.000  C
  C19      1.0000 0.49900  0.08900  0.16800  Biso   1.000  C
  C20      1.0000 0.82900  0.94400  0.37000  Biso   1.000  C
  H10      1.0000 0.77300  0.89850  0.30080  Biso   1.000  H
  H11      1.0000 0.50460  0.06050  0.13240  Biso   1.000  H
  H12      1.0000 0.86240  0.91270  0.37110  Biso   1.000  H
  N13      1.0000 0.72500  0.01800  0.17300  Biso   1.000  N
  N14      1.0000 0.62800  0.91700  0.17400  Biso   1.000  N
  N15      1.0000 0.54600  0.91000  0.28100  Biso   1.000  N
  C21      1.0000 0.72800  0.96300  0.13200  Biso   1.000  C
  C22      1.0000 0.77500  0.06500  0.17200  Biso   1.000  C
  C23      1.0000 0.67200  0.91700  0.12900  Biso   1.000  C
  C24      1.0000 0.49900  0.91100  0.33200  Biso   1.000  C
  C25      1.0000 0.82900  0.05600  0.13000  Biso   1.000  C
  H13      1.0000 0.77300  0.10150  0.19920  Biso   1.000  H
  H14      1.0000 0.50460  0.93950  0.36760  Biso   1.000  H
  H15      1.0000 0.86240  0.08730  0.12890  Biso   1.000  H
  N16      1.0000 0.22500  0.51800  0.67300  Biso   1.000  N
  N17      1.0000 0.12800  0.41700  0.67400  Biso   1.000  N
  N18      1.0000 0.04600  0.41000  0.78100  Biso   1.000  N
  C26      1.0000 0.22800  0.46300  0.63200  Biso   1.000  C
  C27      1.0000 0.27500  0.56500  0.67200  Biso   1.000  C
  C28      1.0000 0.17200  0.41700  0.62900  Biso   1.000  C
  C29      1.0000 0.99900  0.41100  0.83200  Biso   1.000  C
  C30      1.0000 0.32900  0.55600  0.63000  Biso   1.000  C
  H16      1.0000 0.27300  0.60150  0.69920  Biso   1.000  H
  H17      1.0000 0.00460  0.43950  0.86760  Biso   1.000  H
  H18      1.0000 0.36240  0.58730  0.62890  Biso   1.000  H
  N19      1.0000 0.77500  0.98200  0.67300  Biso   1.000  N
  N20      1.0000 0.87200  0.08300  0.67400  Biso   1.000  N
  N21      1.0000 0.95400  0.09000  0.78100  Biso   1.000  N
  C31      1.0000 0.77200  0.03700  0.63200  Biso   1.000  C
  C32      1.0000 0.72500  0.93500  0.67200  Biso   1.000  C
  C33      1.0000 0.82800  0.08300  0.62900  Biso   1.000  C
  C34      1.0000 0.00100  0.08900  0.83200  Biso   1.000  C
  C35      1.0000 0.67100  0.94400  0.63000  Biso   1.000  C
  H19      1.0000 0.72700  0.89850  0.69920  Biso   1.000  H
  H20      1.0000 0.99540  0.06050  0.86760  Biso   1.000  H
  H21      1.0000 0.63760  0.91270  0.62890  Biso   1.000  H
  N22      1.0000 0.27500  0.48200  0.17300  Biso   1.000  N
  N23      1.0000 0.37200  0.58300  0.17400  Biso   1.000  N
  N24      1.0000 0.45400  0.59000  0.28100  Biso   1.000  N
  C36      1.0000 0.27200  0.53700  0.13200  Biso   1.000  C
  C37      1.0000 0.22500  0.43500  0.17200  Biso   1.000  C
  C38      1.0000 0.32800  0.58300  0.12900  Biso   1.000  C
  C39      1.0000 0.50100  0.58900  0.33200  Biso   1.000  C
  C40      1.0000 0.17100  0.44400  0.13000  Biso   1.000  C
  H22      1.0000 0.22700  0.39850  0.19920  Biso   1.000  H
  H23      1.0000 0.49540  0.56050  0.36760  Biso   1.000  H
  H24      1.0000 0.13760  0.41270  0.12890  Biso   1.000  H
  N25      1.0000 0.32700  0.27500  0.51800  Biso   1.000  N
  N26      1.0000 0.32600  0.37200  0.41700  Biso   1.000  N
  N27      1.0000 0.21900  0.45400  0.41000  Biso   1.000  N
  C41      1.0000 0.36800  0.27200  0.46300  Biso   1.000  C
  C42      1.0000 0.32800  0.22500  0.56500  Biso   1.000  C
  C43      1.0000 0.37100  0.32800  0.41700  Biso   1.000  C
  C44      1.0000 0.16800  0.50100  0.41100  Biso   1.000  C
  C45      1.0000 0.37000  0.17100  0.55600  Biso   1.000  C
  H25      1.0000 0.30080  0.22700  0.60150  Biso   1.000  H
  H26      1.0000 0.13240  0.49540  0.43950  Biso   1.000  H
  H27      1.0000 0.37110  0.13760  0.58730  Biso   1.000  H
  N28      1.0000 0.82700  0.77500  0.01800  Biso   1.000  N
  N29      1.0000 0.82600  0.87200  0.91700  Biso   1.000  N
  N30      1.0000 0.71900  0.95400  0.91000  Biso   1.000  N
  C46      1.0000 0.86800  0.77200  0.96300  Biso   1.000  C
  C47      1.0000 0.82800  0.72500  0.06500  Biso   1.000  C
  C48      1.0000 0.87100  0.82800  0.91700  Biso   1.000  C
  C49      1.0000 0.66800  0.00100  0.91100  Biso   1.000  C
  C50      1.0000 0.87000  0.67100  0.05600  Biso   1.000  C
  H28      1.0000 0.80080  0.72700  0.10150  Biso   1.000  H
  H29      1.0000 0.63240  0.99540  0.93950  Biso   1.000  H
  H30      1.0000 0.87110  0.63760  0.08730  Biso   1.000  H
  N31      1.0000 0.82700  0.22500  0.48200  Biso   1.000  N
  N32      1.0000 0.82600  0.12800  0.58300  Biso   1.000  N
  N33      1.0000 0.71900  0.04600  0.59000  Biso   1.000  N
  C51      1.0000 0.86800  0.22800  0.53700  Biso   1.000  C
  C52      1.0000 0.82800  0.27500  0.43500  Biso   1.000  C
  C53      1.0000 0.87100  0.17200  0.58300  Biso   1.000  C
  C54      1.0000 0.66800  0.99900  0.58900  Biso   1.000  C
  C55      1.0000 0.87000  0.32900  0.44400  Biso   1.000  C
  H31      1.0000 0.80080  0.27300  0.39850  Biso   1.000  H
  H32      1.0000 0.63240  0.00460  0.56050  Biso   1.000  H
  H33      1.0000 0.87110  0.36240  0.41270  Biso   1.000  H
  N34      1.0000 0.32700  0.72500  0.98200  Biso   1.000  N
  N35      1.0000 0.32600  0.62800  0.08300  Biso   1.000  N
  N36      1.0000 0.21900  0.54600  0.09000  Biso   1.000  N
  C56      1.0000 0.36800  0.72800  0.03700  Biso   1.000  C
  C57      1.0000 0.32800  0.77500  0.93500  Biso   1.000  C
  C58      1.0000 0.37100  0.67200  0.08300  Biso   1.000  C
  C59      1.0000 0.16800  0.49900  0.08900  Biso   1.000  C
  C60      1.0000 0.37000  0.82900  0.94400  Biso   1.000  C
  H34      1.0000 0.30080  0.77300  0.89850  Biso   1.000  H
  H35      1.0000 0.13240  0.50460  0.06050  Biso   1.000  H
  H36      1.0000 0.37110  0.86240  0.91270  Biso   1.000  H
  N37      1.0000 0.17300  0.72500  0.01800  Biso   1.000  N
  N38      1.0000 0.17400  0.62800  0.91700  Biso   1.000  N
  N39      1.0000 0.28100  0.54600  0.91000  Biso   1.000  N
  C61      1.0000 0.13200  0.72800  0.96300  Biso   1.000  C
  C62      1.0000 0.17200  0.77500  0.06500  Biso   1.000  C
  C63      1.0000 0.12900  0.67200  0.91700  Biso   1.000  C
  C64      1.0000 0.33200  0.49900  0.91100  Biso   1.000  C
  C65      1.0000 0.13000  0.82900  0.05600  Biso   1.000  C
  H37      1.0000 0.19920  0.77300  0.10150  Biso   1.000  H
  H38      1.0000 0.36760  0.50460  0.93950  Biso   1.000  H
  H39      1.0000 0.12890  0.86240  0.08730  Biso   1.000  H
  N40      1.0000 0.67300  0.22500  0.51800  Biso   1.000  N
  N41      1.0000 0.67400  0.12800  0.41700  Biso   1.000  N
  N42      1.0000 0.78100  0.04600  0.41000  Biso   1.000  N
  C66      1.0000 0.63200  0.22800  0.46300  Biso   1.000  C
  C67      1.0000 0.67200  0.27500  0.56500  Biso   1.000  C
  C68      1.0000 0.62900  0.17200  0.41700  Biso   1.000  C
  C69      1.0000 0.83200  0.99900  0.41100  Biso   1.000  C
  C70      1.0000 0.63000  0.32900  0.55600  Biso   1.000  C
  H40      1.0000 0.69920  0.27300  0.60150  Biso   1.000  H
  H41      1.0000 0.86760  0.00460  0.43950  Biso   1.000  H
  H42      1.0000 0.62890  0.36240  0.58730  Biso   1.000  H
  N43      1.0000 0.67300  0.77500  0.98200  Biso   1.000  N
  N44      1.0000 0.67400  0.87200  0.08300  Biso   1.000  N
  N45      1.0000 0.78100  0.95400  0.09000  Biso   1.000  N
  C71      1.0000 0.63200  0.77200  0.03700  Biso   1.000  C
  C72      1.0000 0.67200  0.72500  0.93500  Biso   1.000  C
  C73      1.0000 0.62900  0.82800  0.08300  Biso   1.000  C
  C74      1.0000 0.83200  0.00100  0.08900  Biso   1.000  C
  C75      1.0000 0.63000  0.67100  0.94400  Biso   1.000  C
  H43      1.0000 0.69920  0.72700  0.89850  Biso   1.000  H
  H44      1.0000 0.86760  0.99540  0.06050  Biso   1.000  H
  H45      1.0000 0.62890  0.63760  0.91270  Biso   1.000  H
  N46      1.0000 0.17300  0.27500  0.48200  Biso   1.000  N
  N47      1.0000 0.17400  0.37200  0.58300  Biso   1.000  N
  N48      1.0000 0.28100  0.45400  0.59000  Biso   1.000  N
  C76      1.0000 0.13200  0.27200  0.53700  Biso   1.000  C
  C77      1.0000 0.17200  0.22500  0.43500  Biso   1.000  C
  C78      1.0000 0.12900  0.32800  0.58300  Biso   1.000  C
  C79      1.0000 0.33200  0.50100  0.58900  Biso   1.000  C
  C80      1.0000 0.13000  0.17100  0.44400  Biso   1.000  C
  H46      1.0000 0.19920  0.22700  0.39850  Biso   1.000  H
  H47      1.0000 0.36760  0.49540  0.56050  Biso   1.000  H
  H48      1.0000 0.12890  0.13760  0.41270  Biso   1.000  H
  N49      1.0000 0.51800  0.32700  0.27500  Biso   1.000  N
  N50      1.0000 0.41700  0.32600  0.37200  Biso   1.000  N
  N51      1.0000 0.41000  0.21900  0.45400  Biso   1.000  N
  C81      1.0000 0.46300  0.36800  0.27200  Biso   1.000  C
  C82      1.0000 0.56500  0.32800  0.22500  Biso   1.000  C
  C83      1.0000 0.41700  0.37100  0.32800  Biso   1.000  C
  C84      1.0000 0.41100  0.16800  0.50100  Biso   1.000  C
  C85      1.0000 0.55600  0.37000  0.17100  Biso   1.000  C
  H49      1.0000 0.60150  0.30080  0.22700  Biso   1.000  H
  H50      1.0000 0.43950  0.13240  0.49540  Biso   1.000  H
  H51      1.0000 0.58730  0.37110  0.13760  Biso   1.000  H
  N52      1.0000 0.01800  0.82700  0.77500  Biso   1.000  N
  N53      1.0000 0.91700  0.82600  0.87200  Biso   1.000  N
  N54      1.0000 0.91000  0.71900  0.95400  Biso   1.000  N
  C86      1.0000 0.96300  0.86800  0.77200  Biso   1.000  C
  C87      1.0000 0.06500  0.82800  0.72500  Biso   1.000  C
  C88      1.0000 0.91700  0.87100  0.82800  Biso   1.000  C
  C89      1.0000 0.91100  0.66800  0.00100  Biso   1.000  C
  C90      1.0000 0.05600  0.87000  0.67100  Biso   1.000  C
  H52      1.0000 0.10150  0.80080  0.72700  Biso   1.000  H
  H53      1.0000 0.93950  0.63240  0.99540  Biso   1.000  H
  H54      1.0000 0.08730  0.87110  0.63760  Biso   1.000  H
  N55      1.0000 0.48200  0.82700  0.22500  Biso   1.000  N
  N56      1.0000 0.58300  0.82600  0.12800  Biso   1.000  N
  N57      1.0000 0.59000  0.71900  0.04600  Biso   1.000  N
  C91      1.0000 0.53700  0.86800  0.22800  Biso   1.000  C
  C92      1.0000 0.43500  0.82800  0.27500  Biso   1.000  C
  C93      1.0000 0.58300  0.87100  0.17200  Biso   1.000  C
  C94      1.0000 0.58900  0.66800  0.99900  Biso   1.000  C
  C95      1.0000 0.44400  0.87000  0.32900  Biso   1.000  C
  H55      1.0000 0.39850  0.80080  0.27300  Biso   1.000  H
  H56      1.0000 0.56050  0.63240  0.00460  Biso   1.000  H
  H57      1.0000 0.41270  0.87110  0.36240  Biso   1.000  H
  N58      1.0000 0.98200  0.32700  0.72500  Biso   1.000  N
  N59      1.0000 0.08300  0.32600  0.62800  Biso   1.000  N
  N60      1.0000 0.09000  0.21900  0.54600  Biso   1.000  N
  C96      1.0000 0.03700  0.36800  0.72800  Biso   1.000  C
  C97      1.0000 0.93500  0.32800  0.77500  Biso   1.000  C
  C98      1.0000 0.08300  0.37100  0.67200  Biso   1.000  C
  C99      1.0000 0.08900  0.16800  0.49900  Biso   1.000  C
  C100     1.0000 0.94400  0.37000  0.82900  Biso   1.000  C
  H58      1.0000 0.89850  0.30080  0.77300  Biso   1.000  H
  H59      1.0000 0.06050  0.13240  0.50460  Biso   1.000  H
  H60      1.0000 0.91270  0.37110  0.86240  Biso   1.000  H
  N61      1.0000 0.01800  0.17300  0.72500  Biso   1.000  N
  N62      1.0000 0.91700  0.17400  0.62800  Biso   1.000  N
  N63      1.0000 0.91000  0.28100  0.54600  Biso   1.000  N
  C101     1.0000 0.96300  0.13200  0.72800  Biso   1.000  C
  C102     1.0000 0.06500  0.17200  0.77500  Biso   1.000  C
  C103     1.0000 0.91700  0.12900  0.67200  Biso   1.000  C
  C104     1.0000 0.91100  0.33200  0.49900  Biso   1.000  C
  C105     1.0000 0.05600  0.13000  0.82900  Biso   1.000  C
  H61      1.0000 0.10150  0.19920  0.77300  Biso   1.000  H
  H62      1.0000 0.93950  0.36760  0.50460  Biso   1.000  H
  H63      1.0000 0.08730  0.12890  0.86240  Biso   1.000  H
  N64      1.0000 0.51800  0.67300  0.22500  Biso   1.000  N
  N65      1.0000 0.41700  0.67400  0.12800  Biso   1.000  N
  N66      1.0000 0.41000  0.78100  0.04600  Biso   1.000  N
  C106     1.0000 0.46300  0.63200  0.22800  Biso   1.000  C
  C107     1.0000 0.56500  0.67200  0.27500  Biso   1.000  C
  C108     1.0000 0.41700  0.62900  0.17200  Biso   1.000  C
  C109     1.0000 0.41100  0.83200  0.99900  Biso   1.000  C
  C110     1.0000 0.55600  0.63000  0.32900  Biso   1.000  C
  H64      1.0000 0.60150  0.69920  0.27300  Biso   1.000  H
  H65      1.0000 0.43950  0.86760  0.00460  Biso   1.000  H
  H66      1.0000 0.58730  0.62890  0.36240  Biso   1.000  H
  N67      1.0000 0.98200  0.67300  0.77500  Biso   1.000  N
  N68      1.0000 0.08300  0.67400  0.87200  Biso   1.000  N
  N69      1.0000 0.09000  0.78100  0.95400  Biso   1.000  N
  C111     1.0000 0.03700  0.63200  0.77200  Biso   1.000  C
  C112     1.0000 0.93500  0.67200  0.72500  Biso   1.000  C
  C113     1.0000 0.08300  0.62900  0.82800  Biso   1.000  C
  C114     1.0000 0.08900  0.83200  0.00100  Biso   1.000  C
  C115     1.0000 0.94400  0.63000  0.67100  Biso   1.000  C
  H67      1.0000 0.89850  0.69920  0.72700  Biso   1.000  H
  H68      1.0000 0.06050  0.86760  0.99540  Biso   1.000  H
  H69      1.0000 0.91270  0.62890  0.63760  Biso   1.000  H
  N70      1.0000 0.48200  0.17300  0.27500  Biso   1.000  N
  N71      1.0000 0.58300  0.17400  0.37200  Biso   1.000  N
  N72      1.0000 0.59000  0.28100  0.45400  Biso   1.000  N
  C116     1.0000 0.53700  0.13200  0.27200  Biso   1.000  C
  C117     1.0000 0.43500  0.17200  0.22500  Biso   1.000  C
  C118     1.0000 0.58300  0.12900  0.32800  Biso   1.000  C
  C119     1.0000 0.58900  0.33200  0.50100  Biso   1.000  C
  C120     1.0000 0.44400  0.13000  0.17100  Biso   1.000  C
  H70      1.0000 0.39850  0.19920  0.22700  Biso   1.000  H
  H71      1.0000 0.56050  0.36760  0.49540  Biso   1.000  H
  H72      1.0000 0.41270  0.12890  0.13760  Biso   1.000  H
  Ag1      1.0000 0.37530  0.50000  0.25000  Biso   1.000  Ag
  Ag2      1.0000 0.12470  0.50000  0.75000  Biso   1.000  Ag
  Ag3      1.0000 0.62470  0.00000  0.25000  Biso   1.000  Ag
  Ag4      1.0000 0.87530  0.00000  0.75000  Biso   1.000  Ag
  Ag5      1.0000 0.25000  0.37530  0.50000  Biso   1.000  Ag
  Ag6      1.0000 0.75000  0.12470  0.50000  Biso   1.000  Ag
  Ag7      1.0000 0.25000  0.62470  0.00000  Biso   1.000  Ag
  Ag8      1.0000 0.75000  0.87530  0.00000  Biso   1.000  Ag
  Ag9      1.0000 0.50000  0.25000  0.37530  Biso   1.000  Ag
  Ag10     1.0000 0.50000  0.75000  0.12470  Biso   1.000  Ag
  Ag11     1.0000 0.00000  0.25000  0.62470  Biso   1.000  Ag
  Ag12     1.0000 0.00000  0.75000  0.87530  Biso   1.000  Ag
  N73      1.0000 0.76800  0.52500  0.57700  Biso   1.000  N
  N74      1.0000 0.66700  0.62200  0.57600  Biso   1.000  N
  N75      1.0000 0.66000  0.70400  0.46900  Biso   1.000  N
  C121     1.0000 0.71300  0.52200  0.61800  Biso   1.000  C
  C122     1.0000 0.81500  0.47500  0.57800  Biso   1.000  C
  C123     1.0000 0.66700  0.57800  0.62100  Biso   1.000  C
  C124     1.0000 0.66100  0.75100  0.41800  Biso   1.000  C
  C125     1.0000 0.80600  0.42100  0.62000  Biso   1.000  C
  H73      1.0000 0.85150  0.47700  0.55080  Biso   1.000  H
  H74      1.0000 0.68950  0.74540  0.38240  Biso   1.000  H
  H75      1.0000 0.83730  0.38760  0.62110  Biso   1.000  H
  N76      1.0000 0.26800  0.02500  0.07700  Biso   1.000  N
  N77      1.0000 0.16700  0.12200  0.07600  Biso   1.000  N
  N78      1.0000 0.16000  0.20400  0.96900  Biso   1.000  N
  C126     1.0000 0.21300  0.02200  0.11800  Biso   1.000  C
  C127     1.0000 0.31500  0.97500  0.07800  Biso   1.000  C
  C128     1.0000 0.16700  0.07800  0.12100  Biso   1.000  C
  C129     1.0000 0.16100  0.25100  0.91800  Biso   1.000  C
  C130     1.0000 0.30600  0.92100  0.12000  Biso   1.000  C
  H76      1.0000 0.35150  0.97700  0.05080  Biso   1.000  H
  H77      1.0000 0.18950  0.24540  0.88240  Biso   1.000  H
  H78      1.0000 0.33730  0.88760  0.12110  Biso   1.000  H
  N79      1.0000 0.73200  0.47500  0.07700  Biso   1.000  N
  N80      1.0000 0.83300  0.37800  0.07600  Biso   1.000  N
  N81      1.0000 0.84000  0.29600  0.96900  Biso   1.000  N
  C131     1.0000 0.78700  0.47800  0.11800  Biso   1.000  C
  C132     1.0000 0.68500  0.52500  0.07800  Biso   1.000  C
  C133     1.0000 0.83300  0.42200  0.12100  Biso   1.000  C
  C134     1.0000 0.83900  0.24900  0.91800  Biso   1.000  C
  C135     1.0000 0.69400  0.57900  0.12000  Biso   1.000  C
  H79      1.0000 0.64850  0.52300  0.05080  Biso   1.000  H
  H80      1.0000 0.81050  0.25460  0.88240  Biso   1.000  H
  H81      1.0000 0.66270  0.61240  0.12110  Biso   1.000  H
  N82      1.0000 0.23200  0.97500  0.57700  Biso   1.000  N
  N83      1.0000 0.33300  0.87800  0.57600  Biso   1.000  N
  N84      1.0000 0.34000  0.79600  0.46900  Biso   1.000  N
  C136     1.0000 0.28700  0.97800  0.61800  Biso   1.000  C
  C137     1.0000 0.18500  0.02500  0.57800  Biso   1.000  C
  C138     1.0000 0.33300  0.92200  0.62100  Biso   1.000  C
  C139     1.0000 0.33900  0.74900  0.41800  Biso   1.000  C
  C140     1.0000 0.19400  0.07900  0.62000  Biso   1.000  C
  H82      1.0000 0.14850  0.02300  0.55080  Biso   1.000  H
  H83      1.0000 0.31050  0.75460  0.38240  Biso   1.000  H
  H84      1.0000 0.16270  0.11240  0.62110  Biso   1.000  H
  N85      1.0000 0.26800  0.97500  0.42300  Biso   1.000  N
  N86      1.0000 0.16700  0.87800  0.42400  Biso   1.000  N
  N87      1.0000 0.16000  0.79600  0.53100  Biso   1.000  N
  C141     1.0000 0.21300  0.97800  0.38200  Biso   1.000  C
  C142     1.0000 0.31500  0.02500  0.42200  Biso   1.000  C
  C143     1.0000 0.16700  0.92200  0.37900  Biso   1.000  C
  C144     1.0000 0.16100  0.74900  0.58200  Biso   1.000  C
  C145     1.0000 0.30600  0.07900  0.38000  Biso   1.000  C
  H85      1.0000 0.35150  0.02300  0.44920  Biso   1.000  H
  H86      1.0000 0.18950  0.75460  0.61760  Biso   1.000  H
  H87      1.0000 0.33730  0.11240  0.37890  Biso   1.000  H
  N88      1.0000 0.76800  0.47500  0.92300  Biso   1.000  N
  N89      1.0000 0.66700  0.37800  0.92400  Biso   1.000  N
  N90      1.0000 0.66000  0.29600  0.03100  Biso   1.000  N
  C146     1.0000 0.71300  0.47800  0.88200  Biso   1.000  C
  C147     1.0000 0.81500  0.52500  0.92200  Biso   1.000  C
  C148     1.0000 0.66700  0.42200  0.87900  Biso   1.000  C
  C149     1.0000 0.66100  0.24900  0.08200  Biso   1.000  C
  C150     1.0000 0.80600  0.57900  0.88000  Biso   1.000  C
  H88      1.0000 0.85150  0.52300  0.94920  Biso   1.000  H
  H89      1.0000 0.68950  0.25460  0.11760  Biso   1.000  H
  H90      1.0000 0.83730  0.61240  0.87890  Biso   1.000  H
  N91      1.0000 0.23200  0.02500  0.92300  Biso   1.000  N
  N92      1.0000 0.33300  0.12200  0.92400  Biso   1.000  N
  N93      1.0000 0.34000  0.20400  0.03100  Biso   1.000  N
  C151     1.0000 0.28700  0.02200  0.88200  Biso   1.000  C
  C152     1.0000 0.18500  0.97500  0.92200  Biso   1.000  C
  C153     1.0000 0.33300  0.07800  0.87900  Biso   1.000  C
  C154     1.0000 0.33900  0.25100  0.08200  Biso   1.000  C
  C155     1.0000 0.19400  0.92100  0.88000  Biso   1.000  C
  H91      1.0000 0.14850  0.97700  0.94920  Biso   1.000  H
  H92      1.0000 0.31050  0.24540  0.11760  Biso   1.000  H
  H93      1.0000 0.16270  0.88760  0.87890  Biso   1.000  H
  N94      1.0000 0.73200  0.52500  0.42300  Biso   1.000  N
  N95      1.0000 0.83300  0.62200  0.42400  Biso   1.000  N
  N96      1.0000 0.84000  0.70400  0.53100  Biso   1.000  N
  C156     1.0000 0.78700  0.52200  0.38200  Biso   1.000  C
  C157     1.0000 0.68500  0.47500  0.42200  Biso   1.000  C
  C158     1.0000 0.83300  0.57800  0.37900  Biso   1.000  C
  C159     1.0000 0.83900  0.75100  0.58200  Biso   1.000  C
  C160     1.0000 0.69400  0.42100  0.38000  Biso   1.000  C
  H94      1.0000 0.64850  0.47700  0.44920  Biso   1.000  H
  H95      1.0000 0.81050  0.74540  0.61760  Biso   1.000  H
  H96      1.0000 0.66270  0.38760  0.37890  Biso   1.000  H
  N97      1.0000 0.52500  0.57700  0.76800  Biso   1.000  N
  N98      1.0000 0.62200  0.57600  0.66700  Biso   1.000  N
  N99      1.0000 0.70400  0.46900  0.66000  Biso   1.000  N
  C161     1.0000 0.52200  0.61800  0.71300  Biso   1.000  C
  C162     1.0000 0.47500  0.57800  0.81500  Biso   1.000  C
  C163     1.0000 0.57800  0.62100  0.66700  Biso   1.000  C
  C164     1.0000 0.75100  0.41800  0.66100  Biso   1.000  C
  C165     1.0000 0.42100  0.62000  0.80600  Biso   1.000  C
  H97      1.0000 0.47700  0.55080  0.85150  Biso   1.000  H
  H98      1.0000 0.74540  0.38240  0.68950  Biso   1.000  H
  H99      1.0000 0.38760  0.62110  0.83730  Biso   1.000  H
  N100     1.0000 0.02500  0.07700  0.26800  Biso   1.000  N
  N101     1.0000 0.12200  0.07600  0.16700  Biso   1.000  N
  N102     1.0000 0.20400  0.96900  0.16000  Biso   1.000  N
  C166     1.0000 0.02200  0.11800  0.21300  Biso   1.000  C
  C167     1.0000 0.97500  0.07800  0.31500  Biso   1.000  C
  C168     1.0000 0.07800  0.12100  0.16700  Biso   1.000  C
  C169     1.0000 0.25100  0.91800  0.16100  Biso   1.000  C
  C170     1.0000 0.92100  0.12000  0.30600  Biso   1.000  C
  H100     1.0000 0.97700  0.05080  0.35150  Biso   1.000  H
  H101     1.0000 0.24540  0.88240  0.18950  Biso   1.000  H
  H102     1.0000 0.88760  0.12110  0.33730  Biso   1.000  H
  N103     1.0000 0.47500  0.07700  0.73200  Biso   1.000  N
  N104     1.0000 0.37800  0.07600  0.83300  Biso   1.000  N
  N105     1.0000 0.29600  0.96900  0.84000  Biso   1.000  N
  C171     1.0000 0.47800  0.11800  0.78700  Biso   1.000  C
  C172     1.0000 0.52500  0.07800  0.68500  Biso   1.000  C
  C173     1.0000 0.42200  0.12100  0.83300  Biso   1.000  C
  C174     1.0000 0.24900  0.91800  0.83900  Biso   1.000  C
  C175     1.0000 0.57900  0.12000  0.69400  Biso   1.000  C
  H103     1.0000 0.52300  0.05080  0.64850  Biso   1.000  H
  H104     1.0000 0.25460  0.88240  0.81050  Biso   1.000  H
  H105     1.0000 0.61240  0.12110  0.66270  Biso   1.000  H
  N106     1.0000 0.97500  0.57700  0.23200  Biso   1.000  N
  N107     1.0000 0.87800  0.57600  0.33300  Biso   1.000  N
  N108     1.0000 0.79600  0.46900  0.34000  Biso   1.000  N
  C176     1.0000 0.97800  0.61800  0.28700  Biso   1.000  C
  C177     1.0000 0.02500  0.57800  0.18500  Biso   1.000  C
  C178     1.0000 0.92200  0.62100  0.33300  Biso   1.000  C
  C179     1.0000 0.74900  0.41800  0.33900  Biso   1.000  C
  C180     1.0000 0.07900  0.62000  0.19400  Biso   1.000  C
  H106     1.0000 0.02300  0.55080  0.14850  Biso   1.000  H
  H107     1.0000 0.75460  0.38240  0.31050  Biso   1.000  H
  H108     1.0000 0.11240  0.62110  0.16270  Biso   1.000  H
  N109     1.0000 0.97500  0.42300  0.26800  Biso   1.000  N
  N110     1.0000 0.87800  0.42400  0.16700  Biso   1.000  N
  N111     1.0000 0.79600  0.53100  0.16000  Biso   1.000  N
  C181     1.0000 0.97800  0.38200  0.21300  Biso   1.000  C
  C182     1.0000 0.02500  0.42200  0.31500  Biso   1.000  C
  C183     1.0000 0.92200  0.37900  0.16700  Biso   1.000  C
  C184     1.0000 0.74900  0.58200  0.16100  Biso   1.000  C
  C185     1.0000 0.07900  0.38000  0.30600  Biso   1.000  C
  H109     1.0000 0.02300  0.44920  0.35150  Biso   1.000  H
  H110     1.0000 0.75460  0.61760  0.18950  Biso   1.000  H
  H111     1.0000 0.11240  0.37890  0.33730  Biso   1.000  H
  N112     1.0000 0.47500  0.92300  0.76800  Biso   1.000  N
  N113     1.0000 0.37800  0.92400  0.66700  Biso   1.000  N
  N114     1.0000 0.29600  0.03100  0.66000  Biso   1.000  N
  C186     1.0000 0.47800  0.88200  0.71300  Biso   1.000  C
  C187     1.0000 0.52500  0.92200  0.81500  Biso   1.000  C
  C188     1.0000 0.42200  0.87900  0.66700  Biso   1.000  C
  C189     1.0000 0.24900  0.08200  0.66100  Biso   1.000  C
  C190     1.0000 0.57900  0.88000  0.80600  Biso   1.000  C
  H112     1.0000 0.52300  0.94920  0.85150  Biso   1.000  H
  H113     1.0000 0.25460  0.11760  0.68950  Biso   1.000  H
  H114     1.0000 0.61240  0.87890  0.83730  Biso   1.000  H
  N115     1.0000 0.02500  0.92300  0.23200  Biso   1.000  N
  N116     1.0000 0.12200  0.92400  0.33300  Biso   1.000  N
  N117     1.0000 0.20400  0.03100  0.34000  Biso   1.000  N
  C191     1.0000 0.02200  0.88200  0.28700  Biso   1.000  C
  C192     1.0000 0.97500  0.92200  0.18500  Biso   1.000  C
  C193     1.0000 0.07800  0.87900  0.33300  Biso   1.000  C
  C194     1.0000 0.25100  0.08200  0.33900  Biso   1.000  C
  C195     1.0000 0.92100  0.88000  0.19400  Biso   1.000  C
  H115     1.0000 0.97700  0.94920  0.14850  Biso   1.000  H
  H116     1.0000 0.24540  0.11760  0.31050  Biso   1.000  H
  H117     1.0000 0.88760  0.87890  0.16270  Biso   1.000  H
  N118     1.0000 0.52500  0.42300  0.73200  Biso   1.000  N
  N119     1.0000 0.62200  0.42400  0.83300  Biso   1.000  N
  N120     1.0000 0.70400  0.53100  0.84000  Biso   1.000  N
  C196     1.0000 0.52200  0.38200  0.78700  Biso   1.000  C
  C197     1.0000 0.47500  0.42200  0.68500  Biso   1.000  C
  C198     1.0000 0.57800  0.37900  0.83300  Biso   1.000  C
  C199     1.0000 0.75100  0.58200  0.83900  Biso   1.000  C
  C200     1.0000 0.42100  0.38000  0.69400  Biso   1.000  C
  H118     1.0000 0.47700  0.44920  0.64850  Biso   1.000  H
  H119     1.0000 0.74540  0.61760  0.81050  Biso   1.000  H
  H120     1.0000 0.38760  0.37890  0.66270  Biso   1.000  H
  N121     1.0000 0.57700  0.76800  0.52500  Biso   1.000  N
  N122     1.0000 0.57600  0.66700  0.62200  Biso   1.000  N
  N123     1.0000 0.46900  0.66000  0.70400  Biso   1.000  N
  C201     1.0000 0.61800  0.71300  0.52200  Biso   1.000  C
  C202     1.0000 0.57800  0.81500  0.47500  Biso   1.000  C
  C203     1.0000 0.62100  0.66700  0.57800  Biso   1.000  C
  C204     1.0000 0.41800  0.66100  0.75100  Biso   1.000  C
  C205     1.0000 0.62000  0.80600  0.42100  Biso   1.000  C
  H121     1.0000 0.55080  0.85150  0.47700  Biso   1.000  H
  H122     1.0000 0.38240  0.68950  0.74540  Biso   1.000  H
  H123     1.0000 0.62110  0.83730  0.38760  Biso   1.000  H
  N124     1.0000 0.07700  0.26800  0.02500  Biso   1.000  N
  N125     1.0000 0.07600  0.16700  0.12200  Biso   1.000  N
  N126     1.0000 0.96900  0.16000  0.20400  Biso   1.000  N
  C206     1.0000 0.11800  0.21300  0.02200  Biso   1.000  C
  C207     1.0000 0.07800  0.31500  0.97500  Biso   1.000  C
  C208     1.0000 0.12100  0.16700  0.07800  Biso   1.000  C
  C209     1.0000 0.91800  0.16100  0.25100  Biso   1.000  C
  C210     1.0000 0.12000  0.30600  0.92100  Biso   1.000  C
  H124     1.0000 0.05080  0.35150  0.97700  Biso   1.000  H
  H125     1.0000 0.88240  0.18950  0.24540  Biso   1.000  H
  H126     1.0000 0.12110  0.33730  0.88760  Biso   1.000  H
  N127     1.0000 0.07700  0.73200  0.47500  Biso   1.000  N
  N128     1.0000 0.07600  0.83300  0.37800  Biso   1.000  N
  N129     1.0000 0.96900  0.84000  0.29600  Biso   1.000  N
  C211     1.0000 0.11800  0.78700  0.47800  Biso   1.000  C
  C212     1.0000 0.07800  0.68500  0.52500  Biso   1.000  C
  C213     1.0000 0.12100  0.83300  0.42200  Biso   1.000  C
  C214     1.0000 0.91800  0.83900  0.24900  Biso   1.000  C
  C215     1.0000 0.12000  0.69400  0.57900  Biso   1.000  C
  H127     1.0000 0.05080  0.64850  0.52300  Biso   1.000  H
  H128     1.0000 0.88240  0.81050  0.25460  Biso   1.000  H
  H129     1.0000 0.12110  0.66270  0.61240  Biso   1.000  H
  N130     1.0000 0.57700  0.23200  0.97500  Biso   1.000  N
  N131     1.0000 0.57600  0.33300  0.87800  Biso   1.000  N
  N132     1.0000 0.46900  0.34000  0.79600  Biso   1.000  N
  C216     1.0000 0.61800  0.28700  0.97800  Biso   1.000  C
  C217     1.0000 0.57800  0.18500  0.02500  Biso   1.000  C
  C218     1.0000 0.62100  0.33300  0.92200  Biso   1.000  C
  C219     1.0000 0.41800  0.33900  0.74900  Biso   1.000  C
  C220     1.0000 0.62000  0.19400  0.07900  Biso   1.000  C
  H130     1.0000 0.55080  0.14850  0.02300  Biso   1.000  H
  H131     1.0000 0.38240  0.31050  0.75460  Biso   1.000  H
  H132     1.0000 0.62110  0.16270  0.11240  Biso   1.000  H
  N133     1.0000 0.42300  0.26800  0.97500  Biso   1.000  N
  N134     1.0000 0.42400  0.16700  0.87800  Biso   1.000  N
  N135     1.0000 0.53100  0.16000  0.79600  Biso   1.000  N
  C221     1.0000 0.38200  0.21300  0.97800  Biso   1.000  C
  C222     1.0000 0.42200  0.31500  0.02500  Biso   1.000  C
  C223     1.0000 0.37900  0.16700  0.92200  Biso   1.000  C
  C224     1.0000 0.58200  0.16100  0.74900  Biso   1.000  C
  C225     1.0000 0.38000  0.30600  0.07900  Biso   1.000  C
  H133     1.0000 0.44920  0.35150  0.02300  Biso   1.000  H
  H134     1.0000 0.61760  0.18950  0.75460  Biso   1.000  H
  H135     1.0000 0.37890  0.33730  0.11240  Biso   1.000  H
  N136     1.0000 0.92300  0.76800  0.47500  Biso   1.000  N
  N137     1.0000 0.92400  0.66700  0.37800  Biso   1.000  N
  N138     1.0000 0.03100  0.66000  0.29600  Biso   1.000  N
  C226     1.0000 0.88200  0.71300  0.47800  Biso   1.000  C
  C227     1.0000 0.92200  0.81500  0.52500  Biso   1.000  C
  C228     1.0000 0.87900  0.66700  0.42200  Biso   1.000  C
  C229     1.0000 0.08200  0.66100  0.24900  Biso   1.000  C
  C230     1.0000 0.88000  0.80600  0.57900  Biso   1.000  C
  H136     1.0000 0.94920  0.85150  0.52300  Biso   1.000  H
  H137     1.0000 0.11760  0.68950  0.25460  Biso   1.000  H
  H138     1.0000 0.87890  0.83730  0.61240  Biso   1.000  H
  N139     1.0000 0.92300  0.23200  0.02500  Biso   1.000  N
  N140     1.0000 0.92400  0.33300  0.12200  Biso   1.000  N
  N141     1.0000 0.03100  0.34000  0.20400  Biso   1.000  N
  C231     1.0000 0.88200  0.28700  0.02200  Biso   1.000  C
  C232     1.0000 0.92200  0.18500  0.97500  Biso   1.000  C
  C233     1.0000 0.87900  0.33300  0.07800  Biso   1.000  C
  C234     1.0000 0.08200  0.33900  0.25100  Biso   1.000  C
  C235     1.0000 0.88000  0.19400  0.92100  Biso   1.000  C
  H139     1.0000 0.94920  0.14850  0.97700  Biso   1.000  H
  H140     1.0000 0.11760  0.31050  0.24540  Biso   1.000  H
  H141     1.0000 0.87890  0.16270  0.88760  Biso   1.000  H
  N142     1.0000 0.42300  0.73200  0.52500  Biso   1.000  N
  N143     1.0000 0.42400  0.83300  0.62200  Biso   1.000  N
  N144     1.0000 0.53100  0.84000  0.70400  Biso   1.000  N
  C236     1.0000 0.38200  0.78700  0.52200  Biso   1.000  C
  C237     1.0000 0.42200  0.68500  0.47500  Biso   1.000  C
  C238     1.0000 0.37900  0.83300  0.57800  Biso   1.000  C
  C239     1.0000 0.58200  0.83900  0.75100  Biso   1.000  C
  C240     1.0000 0.38000  0.69400  0.42100  Biso   1.000  C
  H142     1.0000 0.44920  0.64850  0.47700  Biso   1.000  H
  H143     1.0000 0.61760  0.81050  0.74540  Biso   1.000  H
  H144     1.0000 0.37890  0.66270  0.38760  Biso   1.000  H
  Ag13     1.0000 0.75000  0.62530  0.50000  Biso   1.000  Ag
  Ag14     1.0000 0.75000  0.37470  0.00000  Biso   1.000  Ag
  Ag15     1.0000 0.25000  0.87470  0.50000  Biso   1.000  Ag
  Ag16     1.0000 0.25000  0.12530  0.00000  Biso   1.000  Ag
  Ag17     1.0000 0.62530  0.50000  0.75000  Biso   1.000  Ag
  Ag18     1.0000 0.37470  0.00000  0.75000  Biso   1.000  Ag
  Ag19     1.0000 0.87470  0.50000  0.25000  Biso   1.000  Ag
  Ag20     1.0000 0.12530  0.00000  0.25000  Biso   1.000  Ag
  Ag21     1.0000 0.50000  0.75000  0.62530  Biso   1.000  Ag
  Ag22     1.0000 0.00000  0.75000  0.37470  Biso   1.000  Ag
  Ag23     1.0000 0.50000  0.25000  0.87470  Biso   1.000  Ag
  Ag24     1.0000 0.00000  0.25000  0.12530  Biso   1.000  Ag
