data_image0
_cell_length_a       12.6065
_cell_length_b       10.137
_cell_length_c       17.5701
_cell_angle_alpha    90
_cell_angle_beta     90
_cell_angle_gamma    90

_symmetry_space_group_name_H-M    "P 1"
_symmetry_int_tables_number       1

loop_
  _symmetry_equiv_pos_as_xyz
  'x, y, z'

loop_
  _atom_site_label
  _atom_site_occupancy
  _atom_site_fract_x
  _atom_site_fract_y
  _atom_site_fract_z
  _atom_site_thermal_displace_type
  _atom_site_B_iso_or_equiv
  _atom_site_type_symbol
  O1       1.0000 0.85320  0.44840  0.91402  Biso   1.000  O
  O2       1.0000 0.77700  0.26610  0.87470  Biso   1.000  O
  N1       1.0000 0.03260  0.05310  0.16350  Biso   1.000  N
  N2       1.0000 0.97940  0.95800  0.20250  Biso   1.000  N
  N3       1.0000 0.13510  0.99790  0.25760  Biso   1.000  N
  C1       1.0000 0.83790  0.32430  0.91900  Biso   1.000  C
  C2       1.0000 0.89290  0.25190  0.98050  Biso   1.000  C
  C3       1.0000 0.97700  0.30460  0.01830  Biso   1.000  C
  H1       1.0000 0.00370  0.38580  0.00290  Biso   1.000  H
  C4       1.0000 0.02480  0.23960  0.08010  Biso   1.000  C
  H2       1.0000 0.08140  0.27740  0.10620  Biso   1.000  H
  C5       1.0000 0.98550  0.11900  0.10090  Biso   1.000  C
  C6       1.0000 0.90110  0.06460  0.06380  Biso   1.000  C
  H3       1.0000 0.87390  0.98370  0.07930  Biso   1.000  H
  C7       1.0000 0.85660  0.13080  0.00290  Biso   1.000  C
  H4       1.0000 0.80060  0.09220  0.97660  Biso   1.000  H
  C8       1.0000 0.04400  0.92760  0.25740  Biso   1.000  C
  H5       1.0000 0.02890  0.86300  0.29340  Biso   1.000  H
  C9       1.0000 0.12450  0.07580  0.19700  Biso   1.000  C
  H6       1.0000 0.17450  0.13710  0.18070  Biso   1.000  H
  O3       1.0000 0.64680  0.55160  0.91402  Biso   1.000  O
  O4       1.0000 0.72300  0.73390  0.87470  Biso   1.000  O
  N4       1.0000 0.46740  0.94690  0.16350  Biso   1.000  N
  N5       1.0000 0.52060  0.04200  0.20250  Biso   1.000  N
  N6       1.0000 0.36490  0.00210  0.25760  Biso   1.000  N
  C10      1.0000 0.66210  0.67570  0.91900  Biso   1.000  C
  C11      1.0000 0.60710  0.74810  0.98050  Biso   1.000  C
  C12      1.0000 0.52300  0.69540  0.01830  Biso   1.000  C
  H7       1.0000 0.49630  0.61420  0.00290  Biso   1.000  H
  C13      1.0000 0.47520  0.76040  0.08010  Biso   1.000  C
  H8       1.0000 0.41860  0.72260  0.10620  Biso   1.000  H
  C14      1.0000 0.51450  0.88100  0.10090  Biso   1.000  C
  C15      1.0000 0.59890  0.93540  0.06380  Biso   1.000  C
  H9       1.0000 0.62610  0.01630  0.07930  Biso   1.000  H
  C16      1.0000 0.64340  0.86920  0.00290  Biso   1.000  C
  H10      1.0000 0.69940  0.90780  0.97660  Biso   1.000  H
  C17      1.0000 0.45600  0.07240  0.25740  Biso   1.000  C
  H11      1.0000 0.47110  0.13700  0.29340  Biso   1.000  H
  C18      1.0000 0.37550  0.92420  0.19700  Biso   1.000  C
  H12      1.0000 0.32550  0.86290  0.18070  Biso   1.000  H
  O5       1.0000 0.35320  0.05160  0.41402  Biso   1.000  O
  O6       1.0000 0.27700  0.23390  0.37470  Biso   1.000  O
  N7       1.0000 0.53260  0.44690  0.66350  Biso   1.000  N
  N8       1.0000 0.47940  0.54200  0.70250  Biso   1.000  N
  N9       1.0000 0.63510  0.50210  0.75760  Biso   1.000  N
  C19      1.0000 0.33790  0.17570  0.41900  Biso   1.000  C
  C20      1.0000 0.39290  0.24810  0.48050  Biso   1.000  C
  C21      1.0000 0.47700  0.19540  0.51830  Biso   1.000  C
  H13      1.0000 0.50370  0.11420  0.50290  Biso   1.000  H
  C22      1.0000 0.52480  0.26040  0.58010  Biso   1.000  C
  H14      1.0000 0.58140  0.22260  0.60620  Biso   1.000  H
  C23      1.0000 0.48550  0.38100  0.60090  Biso   1.000  C
  C24      1.0000 0.40110  0.43540  0.56380  Biso   1.000  C
  H15      1.0000 0.37390  0.51630  0.57930  Biso   1.000  H
  C25      1.0000 0.35660  0.36920  0.50290  Biso   1.000  C
  H16      1.0000 0.30060  0.40780  0.47660  Biso   1.000  H
  C26      1.0000 0.54400  0.57240  0.75740  Biso   1.000  C
  H17      1.0000 0.52890  0.63700  0.79340  Biso   1.000  H
  C27      1.0000 0.62450  0.42420  0.69700  Biso   1.000  C
  H18      1.0000 0.67450  0.36290  0.68070  Biso   1.000  H
  O7       1.0000 0.14680  0.94840  0.41402  Biso   1.000  O
  O8       1.0000 0.22300  0.76610  0.37470  Biso   1.000  O
  N10      1.0000 0.96740  0.55310  0.66350  Biso   1.000  N
  N11      1.0000 0.02060  0.45800  0.70250  Biso   1.000  N
  N12      1.0000 0.86490  0.49790  0.75760  Biso   1.000  N
  C28      1.0000 0.16210  0.82430  0.41900  Biso   1.000  C
  C29      1.0000 0.10710  0.75190  0.48050  Biso   1.000  C
  C30      1.0000 0.02300  0.80460  0.51830  Biso   1.000  C
  H19      1.0000 0.99630  0.88580  0.50290  Biso   1.000  H
  C31      1.0000 0.97520  0.73960  0.58010  Biso   1.000  C
  H20      1.0000 0.91860  0.77740  0.60620  Biso   1.000  H
  C32      1.0000 0.01450  0.61900  0.60090  Biso   1.000  C
  C33      1.0000 0.09890  0.56460  0.56380  Biso   1.000  C
  H21      1.0000 0.12610  0.48370  0.57930  Biso   1.000  H
  C34      1.0000 0.14340  0.63080  0.50290  Biso   1.000  C
  H22      1.0000 0.19940  0.59220  0.47660  Biso   1.000  H
  C35      1.0000 0.95600  0.42760  0.75740  Biso   1.000  C
  H23      1.0000 0.97110  0.36300  0.79340  Biso   1.000  H
  C36      1.0000 0.87550  0.57580  0.69700  Biso   1.000  C
  H24      1.0000 0.82550  0.63710  0.68070  Biso   1.000  H
  Cu1      1.0000 0.75000  0.50000  0.83472  Biso   1.000  Cu
  Cu2      1.0000 0.25000  0.00000  0.33472  Biso   1.000  Cu
  O9       1.0000 0.64680  0.94840  0.58598  Biso   1.000  O
  O10      1.0000 0.72300  0.76610  0.62530  Biso   1.000  O
  N13      1.0000 0.46740  0.55310  0.33650  Biso   1.000  N
  N14      1.0000 0.52060  0.45800  0.29750  Biso   1.000  N
  N15      1.0000 0.36490  0.49790  0.24240  Biso   1.000  N
  C37      1.0000 0.66210  0.82430  0.58100  Biso   1.000  C
  C38      1.0000 0.60710  0.75190  0.51950  Biso   1.000  C
  C39      1.0000 0.52300  0.80460  0.48170  Biso   1.000  C
  H25      1.0000 0.49630  0.88580  0.49710  Biso   1.000  H
  C40      1.0000 0.47520  0.73960  0.41990  Biso   1.000  C
  H26      1.0000 0.41860  0.77740  0.39380  Biso   1.000  H
  C41      1.0000 0.51450  0.61900  0.39910  Biso   1.000  C
  C42      1.0000 0.59890  0.56460  0.43620  Biso   1.000  C
  H27      1.0000 0.62610  0.48370  0.42070  Biso   1.000  H
  C43      1.0000 0.64340  0.63080  0.49710  Biso   1.000  C
  H28      1.0000 0.69940  0.59220  0.52340  Biso   1.000  H
  C44      1.0000 0.45600  0.42760  0.24260  Biso   1.000  C
  H29      1.0000 0.47110  0.36300  0.20660  Biso   1.000  H
  C45      1.0000 0.37550  0.57580  0.30300  Biso   1.000  C
  H30      1.0000 0.32550  0.63710  0.31930  Biso   1.000  H
  O11      1.0000 0.85320  0.05160  0.58598  Biso   1.000  O
  O12      1.0000 0.77700  0.23390  0.62530  Biso   1.000  O
  N16      1.0000 0.03260  0.44690  0.33650  Biso   1.000  N
  N17      1.0000 0.97940  0.54200  0.29750  Biso   1.000  N
  N18      1.0000 0.13510  0.50210  0.24240  Biso   1.000  N
  C46      1.0000 0.83790  0.17570  0.58100  Biso   1.000  C
  C47      1.0000 0.89290  0.24810  0.51950  Biso   1.000  C
  C48      1.0000 0.97700  0.19540  0.48170  Biso   1.000  C
  H31      1.0000 0.00370  0.11420  0.49710  Biso   1.000  H
  C49      1.0000 0.02480  0.26040  0.41990  Biso   1.000  C
  H32      1.0000 0.08140  0.22260  0.39380  Biso   1.000  H
  C50      1.0000 0.98550  0.38100  0.39910  Biso   1.000  C
  C51      1.0000 0.90110  0.43540  0.43620  Biso   1.000  C
  H33      1.0000 0.87390  0.51630  0.42070  Biso   1.000  H
  C52      1.0000 0.85660  0.36920  0.49710  Biso   1.000  C
  H34      1.0000 0.80060  0.40780  0.52340  Biso   1.000  H
  C53      1.0000 0.04400  0.57240  0.24260  Biso   1.000  C
  H35      1.0000 0.02890  0.63700  0.20660  Biso   1.000  H
  C54      1.0000 0.12450  0.42420  0.30300  Biso   1.000  C
  H36      1.0000 0.17450  0.36290  0.31930  Biso   1.000  H
  O13      1.0000 0.14680  0.55160  0.08598  Biso   1.000  O
  O14      1.0000 0.22300  0.73390  0.12530  Biso   1.000  O
  N19      1.0000 0.96740  0.94690  0.83650  Biso   1.000  N
  N20      1.0000 0.02060  0.04200  0.79750  Biso   1.000  N
  N21      1.0000 0.86490  0.00210  0.74240  Biso   1.000  N
  C55      1.0000 0.16210  0.67570  0.08100  Biso   1.000  C
  C56      1.0000 0.10710  0.74810  0.01950  Biso   1.000  C
  C57      1.0000 0.02300  0.69540  0.98170  Biso   1.000  C
  H37      1.0000 0.99630  0.61420  0.99710  Biso   1.000  H
  C58      1.0000 0.97520  0.76040  0.91990  Biso   1.000  C
  H38      1.0000 0.91860  0.72260  0.89380  Biso   1.000  H
  C59      1.0000 0.01450  0.88100  0.89910  Biso   1.000  C
  C60      1.0000 0.09890  0.93540  0.93620  Biso   1.000  C
  H39      1.0000 0.12610  0.01630  0.92070  Biso   1.000  H
  C61      1.0000 0.14340  0.86920  0.99710  Biso   1.000  C
  H40      1.0000 0.19940  0.90780  0.02340  Biso   1.000  H
  C62      1.0000 0.95600  0.07240  0.74260  Biso   1.000  C
  H41      1.0000 0.97110  0.13700  0.70660  Biso   1.000  H
  C63      1.0000 0.87550  0.92420  0.80300  Biso   1.000  C
  H42      1.0000 0.82550  0.86290  0.81930  Biso   1.000  H
  O15      1.0000 0.35320  0.44840  0.08598  Biso   1.000  O
  O16      1.0000 0.27700  0.26610  0.12530  Biso   1.000  O
  N22      1.0000 0.53260  0.05310  0.83650  Biso   1.000  N
  N23      1.0000 0.47940  0.95800  0.79750  Biso   1.000  N
  N24      1.0000 0.63510  0.99790  0.74240  Biso   1.000  N
  C64      1.0000 0.33790  0.32430  0.08100  Biso   1.000  C
  C65      1.0000 0.39290  0.25190  0.01950  Biso   1.000  C
  C66      1.0000 0.47700  0.30460  0.98170  Biso   1.000  C
  H43      1.0000 0.50370  0.38580  0.99710  Biso   1.000  H
  C67      1.0000 0.52480  0.23960  0.91990  Biso   1.000  C
  H44      1.0000 0.58140  0.27740  0.89380  Biso   1.000  H
  C68      1.0000 0.48550  0.11900  0.89910  Biso   1.000  C
  C69      1.0000 0.40110  0.06460  0.93620  Biso   1.000  C
  H45      1.0000 0.37390  0.98370  0.92070  Biso   1.000  H
  C70      1.0000 0.35660  0.13080  0.99710  Biso   1.000  C
  H46      1.0000 0.30060  0.09220  0.02340  Biso   1.000  H
  C71      1.0000 0.54400  0.92760  0.74260  Biso   1.000  C
  H47      1.0000 0.52890  0.86300  0.70660  Biso   1.000  H
  C72      1.0000 0.62450  0.07580  0.80300  Biso   1.000  C
  H48      1.0000 0.67450  0.13710  0.81930  Biso   1.000  H
  Cu3      1.0000 0.75000  0.00000  0.66528  Biso   1.000  Cu
  Cu4      1.0000 0.25000  0.50000  0.16528  Biso   1.000  Cu
