data_image0
_cell_length_a       6.971
_cell_length_b       12.54
_cell_length_c       13.212
_cell_angle_alpha    112.62
_cell_angle_beta     96.1
_cell_angle_gamma    93.44

_symmetry_space_group_name_H-M    "P 1"
_symmetry_int_tables_number       1

loop_
  _symmetry_equiv_pos_as_xyz
  'x, y, z'

loop_
  _atom_site_label
  _atom_site_occupancy
  _atom_site_fract_x
  _atom_site_fract_y
  _atom_site_fract_z
  _atom_site_thermal_displace_type
  _atom_site_B_iso_or_equiv
  _atom_site_type_symbol
  Na1      1.0000 0.24860  0.53990  0.47950  Biso   1.000  Na
  O1       1.0000 0.28150  0.48590  0.28720  Biso   1.000  O
  O2       1.0000 0.56820  0.47820  0.37290  Biso   1.000  O
  N1       1.0000 0.75660  0.49070  0.18880  Biso   1.000  N
  C1       1.0000 0.46110  0.48510  0.29450  Biso   1.000  C
  C2       1.0000 0.54060  0.49010  0.19240  Biso   1.000  C
  C3       1.0000 0.86060  0.59680  0.28090  Biso   1.000  C
  C4       1.0000 0.82590  0.38220  0.19510  Biso   1.000  C
  C5       1.0000 0.78710  0.49410  0.07780  Biso   1.000  C
  C6       1.0000 0.99690  0.50340  0.05850  Biso   1.000  C
  O3       1.0000 0.02580  0.36950  0.44510  Biso   1.000  O
  O4       1.0000 0.90800  0.18400  0.36820  Biso   1.000  O
  N2       1.0000 0.23580  0.12760  0.24350  Biso   1.000  N
  C7       1.0000 0.03420  0.26500  0.38750  Biso   1.000  C
  C8       1.0000 0.22360  0.24330  0.33650  Biso   1.000  C
  C9       1.0000 0.43210  0.13610  0.20910  Biso   1.000  C
  C10      1.0000 0.21930  0.02980  0.28190  Biso   1.000  C
  C11      1.0000 0.07970  0.11030  0.14900  Biso   1.000  C
  C12      1.0000 0.08120  0.00140  0.04380  Biso   1.000  C
  Na2      1.0000 0.75140  0.46010  0.52050  Biso   1.000  Na
  O5       1.0000 0.71850  0.51410  0.71280  Biso   1.000  O
  O6       1.0000 0.43180  0.52180  0.62710  Biso   1.000  O
  N3       1.0000 0.24340  0.50930  0.81120  Biso   1.000  N
  C13      1.0000 0.53890  0.51490  0.70550  Biso   1.000  C
  C14      1.0000 0.45940  0.50990  0.80760  Biso   1.000  C
  C15      1.0000 0.13940  0.40320  0.71910  Biso   1.000  C
  C16      1.0000 0.17410  0.61780  0.80490  Biso   1.000  C
  C17      1.0000 0.21290  0.50590  0.92220  Biso   1.000  C
  C18      1.0000 0.00310  0.49660  0.94150  Biso   1.000  C
  O7       1.0000 0.97420  0.63050  0.55490  Biso   1.000  O
  O8       1.0000 0.09200  0.81600  0.63180  Biso   1.000  O
  N4       1.0000 0.76420  0.87240  0.75650  Biso   1.000  N
  C19      1.0000 0.96580  0.73500  0.61250  Biso   1.000  C
  C20      1.0000 0.77640  0.75670  0.66350  Biso   1.000  C
  C21      1.0000 0.56790  0.86390  0.79090  Biso   1.000  C
  C22      1.0000 0.78070  0.97020  0.71810  Biso   1.000  C
  C23      1.0000 0.92030  0.88970  0.85100  Biso   1.000  C
  C24      1.0000 0.91880  0.99860  0.95620  Biso   1.000  C
