data_image0
_cell_length_a       16.006
_cell_length_b       9.873
_cell_length_c       15.198
_cell_angle_alpha    90
_cell_angle_beta     90
_cell_angle_gamma    90

_symmetry_space_group_name_H-M    "P 1"
_symmetry_int_tables_number       1

loop_
  _symmetry_equiv_pos_as_xyz
  'x, y, z'

loop_
  _atom_site_label
  _atom_site_occupancy
  _atom_site_fract_x
  _atom_site_fract_y
  _atom_site_fract_z
  _atom_site_thermal_displace_type
  _atom_site_B_iso_or_equiv
  _atom_site_type_symbol
  P1       1.0000 0.12932  0.53362  0.39234  Biso   1.000  P
  O1       1.0000 0.08651  0.58080  0.30974  Biso   1.000  O
  O2       1.0000 0.20872  0.60910  0.41074  Biso   1.000  O
  O3       1.0000 0.07137  0.54220  0.47268  Biso   1.000  O
  O4       1.0000 0.14850  0.37850  0.38318  Biso   1.000  O
  H1       1.0000 0.15700  0.35400  0.32680  Biso   1.000  H
  P2       1.0000 0.12932  0.03362  0.89234  Biso   1.000  P
  O5       1.0000 0.08651  0.08080  0.80974  Biso   1.000  O
  O6       1.0000 0.20872  0.10910  0.91074  Biso   1.000  O
  O7       1.0000 0.07137  0.04220  0.97268  Biso   1.000  O
  O8       1.0000 0.14850  0.87850  0.88318  Biso   1.000  O
  H2       1.0000 0.15700  0.85400  0.82680  Biso   1.000  H
  P3       1.0000 0.62932  0.53362  0.89234  Biso   1.000  P
  O9       1.0000 0.58651  0.58080  0.80974  Biso   1.000  O
  O10      1.0000 0.70872  0.60910  0.91074  Biso   1.000  O
  O11      1.0000 0.57137  0.54220  0.97268  Biso   1.000  O
  O12      1.0000 0.64850  0.37850  0.88318  Biso   1.000  O
  H3       1.0000 0.65700  0.35400  0.82680  Biso   1.000  H
  P4       1.0000 0.62932  0.03362  0.39234  Biso   1.000  P
  O13      1.0000 0.58651  0.08080  0.30974  Biso   1.000  O
  O14      1.0000 0.70872  0.10910  0.41074  Biso   1.000  O
  O15      1.0000 0.57137  0.04220  0.47268  Biso   1.000  O
  O16      1.0000 0.64850  0.87850  0.38318  Biso   1.000  O
  H4       1.0000 0.65700  0.85400  0.32680  Biso   1.000  H
  P5       1.0000 0.87068  0.46638  0.39234  Biso   1.000  P
  O17      1.0000 0.91349  0.41920  0.30974  Biso   1.000  O
  O18      1.0000 0.79128  0.39090  0.41074  Biso   1.000  O
  O19      1.0000 0.92863  0.45780  0.47268  Biso   1.000  O
  O20      1.0000 0.85150  0.62150  0.38318  Biso   1.000  O
  H5       1.0000 0.84300  0.64600  0.32680  Biso   1.000  H
  P6       1.0000 0.87068  0.96638  0.89234  Biso   1.000  P
  O21      1.0000 0.91349  0.91920  0.80974  Biso   1.000  O
  O22      1.0000 0.79128  0.89090  0.91074  Biso   1.000  O
  O23      1.0000 0.92863  0.95780  0.97268  Biso   1.000  O
  O24      1.0000 0.85150  0.12150  0.88318  Biso   1.000  O
  H6       1.0000 0.84300  0.14600  0.82680  Biso   1.000  H
  P7       1.0000 0.37068  0.46638  0.89234  Biso   1.000  P
  O25      1.0000 0.41349  0.41920  0.80974  Biso   1.000  O
  O26      1.0000 0.29128  0.39090  0.91074  Biso   1.000  O
  O27      1.0000 0.42863  0.45780  0.97268  Biso   1.000  O
  O28      1.0000 0.35150  0.62150  0.88318  Biso   1.000  O
  H7       1.0000 0.34300  0.64600  0.82680  Biso   1.000  H
  P8       1.0000 0.37068  0.96638  0.39234  Biso   1.000  P
  O29      1.0000 0.41349  0.91920  0.30974  Biso   1.000  O
  O30      1.0000 0.29128  0.89090  0.41074  Biso   1.000  O
  O31      1.0000 0.42863  0.95780  0.47268  Biso   1.000  O
  O32      1.0000 0.35150  0.12150  0.38318  Biso   1.000  O
  H8       1.0000 0.34300  0.14600  0.32680  Biso   1.000  H
  P9       1.0000 0.37932  0.71638  0.64234  Biso   1.000  P
  O33      1.0000 0.33651  0.66920  0.55974  Biso   1.000  O
  O34      1.0000 0.45872  0.64090  0.66074  Biso   1.000  O
  O35      1.0000 0.32137  0.70780  0.72268  Biso   1.000  O
  O36      1.0000 0.39850  0.87150  0.63318  Biso   1.000  O
  H9       1.0000 0.40700  0.89600  0.57680  Biso   1.000  H
  P10      1.0000 0.37932  0.21638  0.14234  Biso   1.000  P
  O37      1.0000 0.33651  0.16920  0.05974  Biso   1.000  O
  O38      1.0000 0.45872  0.14090  0.16074  Biso   1.000  O
  O39      1.0000 0.32137  0.20780  0.22268  Biso   1.000  O
  O40      1.0000 0.39850  0.37150  0.13318  Biso   1.000  O
  H10      1.0000 0.40700  0.39600  0.07680  Biso   1.000  H
  P11      1.0000 0.87932  0.71638  0.14234  Biso   1.000  P
  O41      1.0000 0.83651  0.66920  0.05974  Biso   1.000  O
  O42      1.0000 0.95872  0.64090  0.16074  Biso   1.000  O
  O43      1.0000 0.82137  0.70780  0.22268  Biso   1.000  O
  O44      1.0000 0.89850  0.87150  0.13318  Biso   1.000  O
  H11      1.0000 0.90700  0.89600  0.07680  Biso   1.000  H
  P12      1.0000 0.87932  0.21638  0.64234  Biso   1.000  P
  O45      1.0000 0.83651  0.16920  0.55974  Biso   1.000  O
  O46      1.0000 0.95872  0.14090  0.66074  Biso   1.000  O
  O47      1.0000 0.82137  0.20780  0.72268  Biso   1.000  O
  O48      1.0000 0.89850  0.37150  0.63318  Biso   1.000  O
  H12      1.0000 0.90700  0.39600  0.57680  Biso   1.000  H
  P13      1.0000 0.12068  0.78362  0.64234  Biso   1.000  P
  O49      1.0000 0.16349  0.83080  0.55974  Biso   1.000  O
  O50      1.0000 0.04128  0.85910  0.66074  Biso   1.000  O
  O51      1.0000 0.17863  0.79220  0.72268  Biso   1.000  O
  O52      1.0000 0.10150  0.62850  0.63318  Biso   1.000  O
  H13      1.0000 0.09300  0.60400  0.57680  Biso   1.000  H
  P14      1.0000 0.12068  0.28362  0.14234  Biso   1.000  P
  O53      1.0000 0.16349  0.33080  0.05974  Biso   1.000  O
  O54      1.0000 0.04128  0.35910  0.16074  Biso   1.000  O
  O55      1.0000 0.17863  0.29220  0.22268  Biso   1.000  O
  O56      1.0000 0.10150  0.12850  0.13318  Biso   1.000  O
  H14      1.0000 0.09300  0.10400  0.07680  Biso   1.000  H
  P15      1.0000 0.62068  0.78362  0.14234  Biso   1.000  P
  O57      1.0000 0.66349  0.83080  0.05974  Biso   1.000  O
  O58      1.0000 0.54128  0.85910  0.16074  Biso   1.000  O
  O59      1.0000 0.67863  0.79220  0.22268  Biso   1.000  O
  O60      1.0000 0.60150  0.62850  0.13318  Biso   1.000  O
  H15      1.0000 0.59300  0.60400  0.07680  Biso   1.000  H
  P16      1.0000 0.62068  0.28362  0.64234  Biso   1.000  P
  O61      1.0000 0.66349  0.33080  0.55974  Biso   1.000  O
  O62      1.0000 0.54128  0.35910  0.66074  Biso   1.000  O
  O63      1.0000 0.67863  0.29220  0.72268  Biso   1.000  O
  O64      1.0000 0.60150  0.12850  0.63318  Biso   1.000  O
  H16      1.0000 0.59300  0.10400  0.57680  Biso   1.000  H
  Zn1      1.0000 0.00000  0.50000  0.23681  Biso   1.000  Zn
  H17      1.0000 0.00000  0.50000  0.48900  Biso   1.000  H
  Zn2      1.0000 0.00000  0.00000  0.73681  Biso   1.000  Zn
  H18      1.0000 0.00000  0.00000  0.98900  Biso   1.000  H
  Zn3      1.0000 0.50000  0.50000  0.73681  Biso   1.000  Zn
  H19      1.0000 0.50000  0.50000  0.98900  Biso   1.000  H
  Zn4      1.0000 0.50000  0.00000  0.23681  Biso   1.000  Zn
  H20      1.0000 0.50000  0.00000  0.48900  Biso   1.000  H
  Zn5      1.0000 0.25000  0.75000  0.48681  Biso   1.000  Zn
  H21      1.0000 0.25000  0.75000  0.73900  Biso   1.000  H
  Zn6      1.0000 0.25000  0.25000  0.98681  Biso   1.000  Zn
  H22      1.0000 0.25000  0.25000  0.23900  Biso   1.000  H
  Zn7      1.0000 0.75000  0.75000  0.98681  Biso   1.000  Zn
  H23      1.0000 0.75000  0.75000  0.23900  Biso   1.000  H
  Zn8      1.0000 0.75000  0.25000  0.48681  Biso   1.000  Zn
  H24      1.0000 0.75000  0.25000  0.73900  Biso   1.000  H
