data_image0
_cell_length_a       15.972
_cell_length_b       9.863
_cell_length_c       15.156
_cell_angle_alpha    90
_cell_angle_beta     90
_cell_angle_gamma    90

_symmetry_space_group_name_H-M    "P 1"
_symmetry_int_tables_number       1

loop_
  _symmetry_equiv_pos_as_xyz
  'x, y, z'

loop_
  _atom_site_label
  _atom_site_occupancy
  _atom_site_fract_x
  _atom_site_fract_y
  _atom_site_fract_z
  _atom_site_thermal_displace_type
  _atom_site_B_iso_or_equiv
  _atom_site_type_symbol
  P1       1.0000 0.87060  0.03340  0.84330  Biso   1.000  P
  O1       1.0000 0.91420  0.08160  0.92730  Biso   1.000  O
  O2       1.0000 0.79130  0.10730  0.82530  Biso   1.000  O
  O3       1.0000 0.92900  0.04140  0.76240  Biso   1.000  O
  O4       1.0000 0.85080  0.87740  0.85240  Biso   1.000  O
  P2       1.0000 0.87060  0.53340  0.34330  Biso   1.000  P
  O5       1.0000 0.91420  0.58160  0.42730  Biso   1.000  O
  O6       1.0000 0.79130  0.60730  0.32530  Biso   1.000  O
  O7       1.0000 0.92900  0.54140  0.26240  Biso   1.000  O
  O8       1.0000 0.85080  0.37740  0.35240  Biso   1.000  O
  P3       1.0000 0.37060  0.03340  0.34330  Biso   1.000  P
  O9       1.0000 0.41420  0.08160  0.42730  Biso   1.000  O
  O10      1.0000 0.29130  0.10730  0.32530  Biso   1.000  O
  O11      1.0000 0.42900  0.04140  0.26240  Biso   1.000  O
  O12      1.0000 0.35080  0.87740  0.35240  Biso   1.000  O
  P4       1.0000 0.37060  0.53340  0.84330  Biso   1.000  P
  O13      1.0000 0.41420  0.58160  0.92730  Biso   1.000  O
  O14      1.0000 0.29130  0.60730  0.82530  Biso   1.000  O
  O15      1.0000 0.42900  0.54140  0.76240  Biso   1.000  O
  O16      1.0000 0.35080  0.37740  0.85240  Biso   1.000  O
  P5       1.0000 0.12940  0.96660  0.84330  Biso   1.000  P
  O17      1.0000 0.08580  0.91840  0.92730  Biso   1.000  O
  O18      1.0000 0.20870  0.89270  0.82530  Biso   1.000  O
  O19      1.0000 0.07100  0.95860  0.76240  Biso   1.000  O
  O20      1.0000 0.14920  0.12260  0.85240  Biso   1.000  O
  P6       1.0000 0.12940  0.46660  0.34330  Biso   1.000  P
  O21      1.0000 0.08580  0.41840  0.42730  Biso   1.000  O
  O22      1.0000 0.20870  0.39270  0.32530  Biso   1.000  O
  O23      1.0000 0.07100  0.45860  0.26240  Biso   1.000  O
  O24      1.0000 0.14920  0.62260  0.35240  Biso   1.000  O
  P7       1.0000 0.62940  0.96660  0.34330  Biso   1.000  P
  O25      1.0000 0.58580  0.91840  0.42730  Biso   1.000  O
  O26      1.0000 0.70870  0.89270  0.32530  Biso   1.000  O
  O27      1.0000 0.57100  0.95860  0.26240  Biso   1.000  O
  O28      1.0000 0.64920  0.12260  0.35240  Biso   1.000  O
  P8       1.0000 0.62940  0.46660  0.84330  Biso   1.000  P
  O29      1.0000 0.58580  0.41840  0.92730  Biso   1.000  O
  O30      1.0000 0.70870  0.39270  0.82530  Biso   1.000  O
  O31      1.0000 0.57100  0.45860  0.76240  Biso   1.000  O
  O32      1.0000 0.64920  0.62260  0.85240  Biso   1.000  O
  P9       1.0000 0.12060  0.21660  0.09330  Biso   1.000  P
  O33      1.0000 0.16420  0.16840  0.17730  Biso   1.000  O
  O34      1.0000 0.04130  0.14270  0.07530  Biso   1.000  O
  O35      1.0000 0.17900  0.20860  0.01240  Biso   1.000  O
  O36      1.0000 0.10080  0.37260  0.10240  Biso   1.000  O
  P10      1.0000 0.12060  0.71660  0.59330  Biso   1.000  P
  O37      1.0000 0.16420  0.66840  0.67730  Biso   1.000  O
  O38      1.0000 0.04130  0.64270  0.57530  Biso   1.000  O
  O39      1.0000 0.17900  0.70860  0.51240  Biso   1.000  O
  O40      1.0000 0.10080  0.87260  0.60240  Biso   1.000  O
  P11      1.0000 0.62060  0.21660  0.59330  Biso   1.000  P
  O41      1.0000 0.66420  0.16840  0.67730  Biso   1.000  O
  O42      1.0000 0.54130  0.14270  0.57530  Biso   1.000  O
  O43      1.0000 0.67900  0.20860  0.51240  Biso   1.000  O
  O44      1.0000 0.60080  0.37260  0.60240  Biso   1.000  O
  P12      1.0000 0.62060  0.71660  0.09330  Biso   1.000  P
  O45      1.0000 0.66420  0.66840  0.17730  Biso   1.000  O
  O46      1.0000 0.54130  0.64270  0.07530  Biso   1.000  O
  O47      1.0000 0.67900  0.70860  0.01240  Biso   1.000  O
  O48      1.0000 0.60080  0.87260  0.10240  Biso   1.000  O
  P13      1.0000 0.37940  0.28340  0.09330  Biso   1.000  P
  O49      1.0000 0.33580  0.33160  0.17730  Biso   1.000  O
  O50      1.0000 0.45870  0.35730  0.07530  Biso   1.000  O
  O51      1.0000 0.32100  0.29140  0.01240  Biso   1.000  O
  O52      1.0000 0.39920  0.12740  0.10240  Biso   1.000  O
  P14      1.0000 0.37940  0.78340  0.59330  Biso   1.000  P
  O53      1.0000 0.33580  0.83160  0.67730  Biso   1.000  O
  O54      1.0000 0.45870  0.85730  0.57530  Biso   1.000  O
  O55      1.0000 0.32100  0.79140  0.51240  Biso   1.000  O
  O56      1.0000 0.39920  0.62740  0.60240  Biso   1.000  O
  P15      1.0000 0.87940  0.28340  0.59330  Biso   1.000  P
  O57      1.0000 0.83580  0.33160  0.67730  Biso   1.000  O
  O58      1.0000 0.95870  0.35730  0.57530  Biso   1.000  O
  O59      1.0000 0.82100  0.29140  0.51240  Biso   1.000  O
  O60      1.0000 0.89920  0.12740  0.60240  Biso   1.000  O
  P16      1.0000 0.87940  0.78340  0.09330  Biso   1.000  P
  O61      1.0000 0.83580  0.83160  0.17730  Biso   1.000  O
  O62      1.0000 0.95870  0.85730  0.07530  Biso   1.000  O
  O63      1.0000 0.82100  0.79140  0.01240  Biso   1.000  O
  O64      1.0000 0.89920  0.62740  0.10240  Biso   1.000  O
  Zn1      1.0000 0.00000  0.00000  0.99930  Biso   1.000  Zn
  Zn2      1.0000 0.00000  0.50000  0.49930  Biso   1.000  Zn
  Zn3      1.0000 0.50000  0.00000  0.49930  Biso   1.000  Zn
  Zn4      1.0000 0.50000  0.50000  0.99930  Biso   1.000  Zn
  Zn5      1.0000 0.25000  0.25000  0.24930  Biso   1.000  Zn
  Zn6      1.0000 0.25000  0.75000  0.74930  Biso   1.000  Zn
  Zn7      1.0000 0.75000  0.25000  0.74930  Biso   1.000  Zn
  Zn8      1.0000 0.75000  0.75000  0.24930  Biso   1.000  Zn
