data_image0
_cell_length_a       10.2416
_cell_length_b       24.956
_cell_length_c       11.4453
_cell_angle_alpha    90
_cell_angle_beta     91.106
_cell_angle_gamma    90

_symmetry_space_group_name_H-M    "P 1"
_symmetry_int_tables_number       1

loop_
  _symmetry_equiv_pos_as_xyz
  'x, y, z'

loop_
  _atom_site_label
  _atom_site_occupancy
  _atom_site_fract_x
  _atom_site_fract_y
  _atom_site_fract_z
  _atom_site_thermal_displace_type
  _atom_site_B_iso_or_equiv
  _atom_site_type_symbol
  Co1      1.0000 0.54913  0.86145  0.45244  Biso   1.000  Co
  Co2      1.0000 0.04984  0.94129  0.43574  Biso   1.000  Co
  O1       1.0000 0.73640  0.89370  0.44750  Biso   1.000  O
  O2       1.0000 0.23620  0.90880  0.44100  Biso   1.000  O
  N1       1.0000 0.53790  0.85300  0.26250  Biso   1.000  N
  N2       1.0000 0.54680  0.85740  0.64170  Biso   1.000  N
  O3       1.0000 0.86050  0.96660  0.43130  Biso   1.000  O
  N3       1.0000 0.05000  0.94480  0.62260  Biso   1.000  N
  O4       1.0000 0.36070  0.83570  0.45160  Biso   1.000  O
  C1       1.0000 0.25250  0.85950  0.44380  Biso   1.000  C
  C2       1.0000 0.94410  0.96090  0.68460  Biso   1.000  C
  H1       1.0000 0.86730  0.97110  0.64230  Biso   1.000  H
  C3       1.0000 0.43040  0.85510  0.20070  Biso   1.000  C
  H2       1.0000 0.34990  0.85770  0.24010  Biso   1.000  H
  N4       1.0000 0.04890  0.94690  0.24600  Biso   1.000  N
  C4       1.0000 0.15950  0.93490  0.69580  Biso   1.000  C
  H3       1.0000 0.23820  0.92520  0.65850  Biso   1.000  H
  C5       1.0000 0.65030  0.87090  0.71370  Biso   1.000  C
  H4       1.0000 0.72720  0.88320  0.67700  Biso   1.000  H
  O5       1.0000 0.01760  0.85480  0.42230  Biso   1.000  O
  H5       1.0000 0.96000  0.83500  0.38200  Biso   1.000  H
  N5       1.0000 0.87380  0.52070  0.56050  Biso   1.000  N
  O6       1.0000 0.51800  0.94790  0.45110  Biso   1.000  O
  H6       1.0000 0.46700  0.95700  0.51000  Biso   1.000  H
  C6       1.0000 0.54690  0.84970  0.89120  Biso   1.000  C
  N6       1.0000 0.63100  0.78270  0.46560  Biso   1.000  N
  C7       1.0000 0.05190  0.95110  0.00290  Biso   1.000  C
  C8       1.0000 0.16360  0.93760  0.81400  Biso   1.000  C
  H7       1.0000 0.24240  0.93030  0.85620  Biso   1.000  H
  C9       1.0000 0.54430  0.84860  0.01750  Biso   1.000  C
  C10      1.0000 0.65340  0.86860  0.83010  Biso   1.000  C
  H8       1.0000 0.72950  0.88000  0.87180  Biso   1.000  H
  C11      1.0000 0.75070  0.94270  0.43790  Biso   1.000  C
  C12      1.0000 0.42810  0.85380  0.08080  Biso   1.000  C
  H9       1.0000 0.34690  0.85650  0.03970  Biso   1.000  H
  C13      1.0000 0.13300  0.82300  0.43800  Biso   1.000  C
  H10      1.0000 0.14110  0.79900  0.36850  Biso   1.000  H
  C14      1.0000 0.94240  0.96340  0.80550  Biso   1.000  C
  H11      1.0000 0.86460  0.97370  0.84340  Biso   1.000  H
  C15      1.0000 0.65210  0.84610  0.20600  Biso   1.000  C
  H12      1.0000 0.73070  0.84300  0.25080  Biso   1.000  H
  C16      1.0000 0.74980  0.53080  0.54480  Biso   1.000  C
  H13      1.0000 0.69150  0.50120  0.54490  Biso   1.000  H
  C17      1.0000 0.05290  0.95110  0.87130  Biso   1.000  C
  C18      1.0000 0.15860  0.95450  0.18790  Biso   1.000  C
  H14      1.0000 0.23780  0.95800  0.23190  Biso   1.000  H
  C19      1.0000 0.95000  0.56330  0.56900  Biso   1.000  C
  H15      1.0000 0.03930  0.55830  0.59070  Biso   1.000  H
  C20      1.0000 0.93970  0.94210  0.18420  Biso   1.000  C
  H16      1.0000 0.86060  0.93670  0.22450  Biso   1.000  H
  C21      1.0000 0.16420  0.95770  0.07120  Biso   1.000  C
  H17      1.0000 0.24530  0.96440  0.03510  Biso   1.000  H
  C22      1.0000 0.65780  0.84350  0.08840  Biso   1.000  C
  H18      1.0000 0.73980  0.83800  0.05280  Biso   1.000  H
  C23      1.0000 0.44560  0.83670  0.70160  Biso   1.000  C
  H19      1.0000 0.37340  0.82340  0.65700  Biso   1.000  H
  C24      1.0000 0.77620  0.62450  0.53020  Biso   1.000  C
  C25      1.0000 0.72500  0.67960  0.50830  Biso   1.000  C
  C26      1.0000 0.93450  0.94440  0.06530  Biso   1.000  C
  H20      1.0000 0.85310  0.94150  0.02460  Biso   1.000  H
  C27      1.0000 0.43820  0.83320  0.82180  Biso   1.000  C
  H21      1.0000 0.36150  0.82000  0.85720  Biso   1.000  H
  C28      1.0000 0.63120  0.97970  0.43090  Biso   1.000  C
  H22      1.0000 0.63920  0.00810  0.49220  Biso   1.000  H
  C29      1.0000 0.90570  0.61440  0.54900  Biso   1.000  C
  H23      1.0000 0.96620  0.64320  0.54840  Biso   1.000  H
  C30      1.0000 0.80540  0.72340  0.52180  Biso   1.000  C
  H24      1.0000 0.89410  0.71900  0.54570  Biso   1.000  H
  C31      1.0000 0.69710  0.58040  0.52820  Biso   1.000  C
  H25      1.0000 0.60570  0.58430  0.51540  Biso   1.000  H
  C32      1.0000 0.59910  0.68800  0.47090  Biso   1.000  C
  H26      1.0000 0.54110  0.65860  0.46070  Biso   1.000  H
  C33      1.0000 0.55110  0.98400  0.21730  Biso   1.000  C
  H27      1.0000 0.49430  0.95470  0.23110  Biso   1.000  H
  C34      1.0000 0.62490  0.00560  0.31010  Biso   1.000  C
  C35      1.0000 0.06460  0.80590  0.64730  Biso   1.000  C
  H28      1.0000 0.01410  0.83790  0.64730  Biso   1.000  H
  C36      1.0000 0.19540  0.73860  0.54510  Biso   1.000  C
  H29      1.0000 0.23350  0.72470  0.47640  Biso   1.000  H
  C37      1.0000 0.12830  0.78810  0.54630  Biso   1.000  C
  C38      1.0000 0.20200  0.71100  0.65400  Biso   1.000  C
  H30      1.0000 0.24840  0.67800  0.65710  Biso   1.000  H
  C39      1.0000 0.70510  0.04970  0.28730  Biso   1.000  C
  H31      1.0000 0.75460  0.06580  0.34900  Biso   1.000  H
  C40      1.0000 0.71220  0.06950  0.17700  Biso   1.000  C
  H32      1.0000 0.76570  0.09990  0.16330  Biso   1.000  H
  C41      1.0000 0.64380  0.04670  0.08380  Biso   1.000  C
  H33      1.0000 0.65440  0.05950  0.00640  Biso   1.000  H
  C42      1.0000 0.55960  0.00470  0.10680  Biso   1.000  C
  H34      1.0000 0.50720  0.99000  0.04530  Biso   1.000  H
  C43      1.0000 0.07900  0.77410  0.74820  Biso   1.000  C
  H35      1.0000 0.03840  0.78610  0.81720  Biso   1.000  H
  C44      1.0000 0.75390  0.77480  0.49960  Biso   1.000  C
  H36      1.0000 0.80950  0.80500  0.50940  Biso   1.000  H
  C45      1.0000 0.55630  0.74040  0.44770  Biso   1.000  C
  H37      1.0000 0.47010  0.74550  0.41780  Biso   1.000  H
  C46      1.0000 0.14500  0.72920  0.75400  Biso   1.000  C
  H38      1.0000 0.15400  0.71000  0.82550  Biso   1.000  H
  Co3      1.0000 0.45087  0.36145  0.54756  Biso   1.000  Co
  Co4      1.0000 0.95016  0.44129  0.56426  Biso   1.000  Co
  O7       1.0000 0.26360  0.39370  0.55250  Biso   1.000  O
  O8       1.0000 0.76380  0.40880  0.55900  Biso   1.000  O
  N7       1.0000 0.46210  0.35300  0.73750  Biso   1.000  N
  N8       1.0000 0.45320  0.35740  0.35830  Biso   1.000  N
  O9       1.0000 0.13950  0.46660  0.56870  Biso   1.000  O
  N9       1.0000 0.95000  0.44480  0.37740  Biso   1.000  N
  O10      1.0000 0.63930  0.33570  0.54840  Biso   1.000  O
  C47      1.0000 0.74750  0.35950  0.55620  Biso   1.000  C
  C48      1.0000 0.05590  0.46090  0.31540  Biso   1.000  C
  H39      1.0000 0.13270  0.47110  0.35770  Biso   1.000  H
  C49      1.0000 0.56960  0.35510  0.79930  Biso   1.000  C
  H40      1.0000 0.65010  0.35770  0.75990  Biso   1.000  H
  N10      1.0000 0.95110  0.44690  0.75400  Biso   1.000  N
  C50      1.0000 0.84050  0.43490  0.30420  Biso   1.000  C
  H41      1.0000 0.76180  0.42520  0.34150  Biso   1.000  H
  C51      1.0000 0.34970  0.37090  0.28630  Biso   1.000  C
  H42      1.0000 0.27280  0.38320  0.32300  Biso   1.000  H
  O11      1.0000 0.98240  0.35480  0.57770  Biso   1.000  O
  H43      1.0000 0.04000  0.33500  0.61800  Biso   1.000  H
  N11      1.0000 0.12620  0.02070  0.43950  Biso   1.000  N
  O12      1.0000 0.48200  0.44790  0.54890  Biso   1.000  O
  H44      1.0000 0.53300  0.45700  0.49000  Biso   1.000  H
  C52      1.0000 0.45310  0.34970  0.10880  Biso   1.000  C
  N12      1.0000 0.36900  0.28270  0.53440  Biso   1.000  N
  C53      1.0000 0.94810  0.45110  0.99710  Biso   1.000  C
  C54      1.0000 0.83640  0.43760  0.18600  Biso   1.000  C
  H45      1.0000 0.75760  0.43030  0.14380  Biso   1.000  H
  C55      1.0000 0.45570  0.34860  0.98250  Biso   1.000  C
  C56      1.0000 0.34660  0.36860  0.16990  Biso   1.000  C
  H46      1.0000 0.27050  0.38000  0.12820  Biso   1.000  H
  C57      1.0000 0.24930  0.44270  0.56210  Biso   1.000  C
  C58      1.0000 0.57190  0.35380  0.91920  Biso   1.000  C
  H47      1.0000 0.65310  0.35650  0.96030  Biso   1.000  H
  C59      1.0000 0.86700  0.32300  0.56200  Biso   1.000  C
  H48      1.0000 0.85890  0.29900  0.63150  Biso   1.000  H
  C60      1.0000 0.05760  0.46340  0.19450  Biso   1.000  C
  H49      1.0000 0.13540  0.47370  0.15660  Biso   1.000  H
  C61      1.0000 0.34790  0.34610  0.79400  Biso   1.000  C
  H50      1.0000 0.26930  0.34300  0.74920  Biso   1.000  H
  C62      1.0000 0.25020  0.03080  0.45520  Biso   1.000  C
  H51      1.0000 0.30850  0.00120  0.45510  Biso   1.000  H
  C63      1.0000 0.94710  0.45110  0.12870  Biso   1.000  C
  C64      1.0000 0.84140  0.45450  0.81210  Biso   1.000  C
  H52      1.0000 0.76220  0.45800  0.76810  Biso   1.000  H
  C65      1.0000 0.05000  0.06330  0.43100  Biso   1.000  C
  H53      1.0000 0.96070  0.05830  0.40930  Biso   1.000  H
  C66      1.0000 0.06030  0.44210  0.81580  Biso   1.000  C
  H54      1.0000 0.13940  0.43670  0.77550  Biso   1.000  H
  C67      1.0000 0.83580  0.45770  0.92880  Biso   1.000  C
  H55      1.0000 0.75470  0.46440  0.96490  Biso   1.000  H
  C68      1.0000 0.34220  0.34350  0.91160  Biso   1.000  C
  H56      1.0000 0.26020  0.33800  0.94720  Biso   1.000  H
  C69      1.0000 0.55440  0.33670  0.29840  Biso   1.000  C
  H57      1.0000 0.62660  0.32340  0.34300  Biso   1.000  H
  C70      1.0000 0.22380  0.12450  0.46980  Biso   1.000  C
  C71      1.0000 0.27500  0.17960  0.49170  Biso   1.000  C
  C72      1.0000 0.06550  0.44440  0.93470  Biso   1.000  C
  H58      1.0000 0.14690  0.44150  0.97540  Biso   1.000  H
  C73      1.0000 0.56180  0.33320  0.17820  Biso   1.000  C
  H59      1.0000 0.63850  0.32000  0.14280  Biso   1.000  H
  C74      1.0000 0.36880  0.47970  0.56910  Biso   1.000  C
  H60      1.0000 0.36080  0.50810  0.50780  Biso   1.000  H
  C75      1.0000 0.09430  0.11440  0.45100  Biso   1.000  C
  H61      1.0000 0.03380  0.14320  0.45160  Biso   1.000  H
  C76      1.0000 0.19460  0.22340  0.47820  Biso   1.000  C
  H62      1.0000 0.10590  0.21900  0.45430  Biso   1.000  H
  C77      1.0000 0.30290  0.08040  0.47180  Biso   1.000  C
  H63      1.0000 0.39430  0.08430  0.48460  Biso   1.000  H
  C78      1.0000 0.40090  0.18800  0.52910  Biso   1.000  C
  H64      1.0000 0.45890  0.15860  0.53930  Biso   1.000  H
  C79      1.0000 0.44890  0.48400  0.78270  Biso   1.000  C
  H65      1.0000 0.50570  0.45470  0.76890  Biso   1.000  H
  C80      1.0000 0.37510  0.50560  0.68990  Biso   1.000  C
  C81      1.0000 0.93540  0.30590  0.35270  Biso   1.000  C
  H66      1.0000 0.98590  0.33790  0.35270  Biso   1.000  H
  C82      1.0000 0.80460  0.23860  0.45490  Biso   1.000  C
  H67      1.0000 0.76650  0.22470  0.52360  Biso   1.000  H
  C83      1.0000 0.87170  0.28810  0.45370  Biso   1.000  C
  C84      1.0000 0.79800  0.21100  0.34600  Biso   1.000  C
  H68      1.0000 0.75160  0.17800  0.34290  Biso   1.000  H
  C85      1.0000 0.29490  0.54970  0.71270  Biso   1.000  C
  H69      1.0000 0.24540  0.56580  0.65100  Biso   1.000  H
  C86      1.0000 0.28780  0.56950  0.82300  Biso   1.000  C
  H70      1.0000 0.23430  0.59990  0.83670  Biso   1.000  H
  C87      1.0000 0.35620  0.54670  0.91620  Biso   1.000  C
  H71      1.0000 0.34560  0.55950  0.99360  Biso   1.000  H
  C88      1.0000 0.44040  0.50470  0.89320  Biso   1.000  C
  H72      1.0000 0.49280  0.49000  0.95470  Biso   1.000  H
  C89      1.0000 0.92100  0.27410  0.25180  Biso   1.000  C
  H73      1.0000 0.96160  0.28610  0.18280  Biso   1.000  H
  C90      1.0000 0.24610  0.27480  0.50040  Biso   1.000  C
  H74      1.0000 0.19050  0.30500  0.49060  Biso   1.000  H
  C91      1.0000 0.44370  0.24040  0.55230  Biso   1.000  C
  H75      1.0000 0.52990  0.24550  0.58220  Biso   1.000  H
  C92      1.0000 0.85500  0.22920  0.24600  Biso   1.000  C
  H76      1.0000 0.84600  0.21000  0.17450  Biso   1.000  H
