data_image0
_cell_length_a       11.4463
_cell_length_b       24.6528
_cell_length_c       20.3256
_cell_angle_alpha    90
_cell_angle_beta     92.6948
_cell_angle_gamma    90

_symmetry_space_group_name_H-M    "P 1"
_symmetry_int_tables_number       1

loop_
  _symmetry_equiv_pos_as_xyz
  'x, y, z'

loop_
  _atom_site_label
  _atom_site_occupancy
  _atom_site_fract_x
  _atom_site_fract_y
  _atom_site_fract_z
  _atom_site_thermal_displace_type
  _atom_site_B_iso_or_equiv
  _atom_site_type_symbol
  Co1      1.0000 0.43882  0.19040  0.26730  Biso   1.000  Co
  Co2      1.0000 0.44119  0.26607  0.01450  Biso   1.000  Co
  Co3      1.0000 0.46446  0.18621  0.76266  Biso   1.000  Co
  Co4      1.0000 0.42579  0.27185  0.51247  Biso   1.000  Co
  N1       1.0000 0.62840  0.19100  0.26720  Biso   1.000  N
  N2       1.0000 0.24960  0.18380  0.26990  Biso   1.000  N
  O1       1.0000 0.43220  0.16233  0.17320  Biso   1.000  O
  O2       1.0000 0.44240  0.22575  0.35900  Biso   1.000  O
  O3       1.0000 0.45750  0.16149  0.66640  Biso   1.000  O
  N3       1.0000 0.63100  0.26740  0.01390  Biso   1.000  N
  O4       1.0000 0.45190  0.23528  0.10960  Biso   1.000  O
  O5       1.0000 0.41460  0.30062  0.41770  Biso   1.000  O
  N4       1.0000 0.23530  0.27750  0.51340  Biso   1.000  N
  N5       1.0000 0.24970  0.27150  0.01500  Biso   1.000  N
  O6       1.0000 0.44150  0.23685  0.60660  Biso   1.000  O
  C1       1.0000 0.67480  0.27580  0.45400  Biso   1.000  C
  H1       1.0000 0.63200  0.27260  0.41300  Biso   1.000  H
  N6       1.0000 0.27330  0.17930  0.76110  Biso   1.000  N
  O7       1.0000 0.43300  0.27632  0.24580  Biso   1.000  O
  H2       1.0000 0.50300  0.28000  0.23300  Biso   1.000  H
  C2       1.0000 0.07090  0.26200  0.07150  Biso   1.000  C
  H3       1.0000 0.03410  0.25320  0.11110  Biso   1.000  H
  N7       1.0000 0.61550  0.27700  0.50940  Biso   1.000  N
  C3       1.0000 0.19200  0.25940  0.06900  Biso   1.000  C
  H4       1.0000 0.23610  0.24860  0.10760  Biso   1.000  H
  C4       1.0000 0.19080  0.19670  0.32420  Biso   1.000  C
  H5       1.0000 0.23510  0.20660  0.36310  Biso   1.000  H
  C5       1.0000 0.07080  0.19630  0.32640  Biso   1.000  C
  H6       1.0000 0.03450  0.20490  0.36610  Biso   1.000  H
  C6       1.0000 0.09490  0.19080  0.81520  Biso   1.000  C
  H7       1.0000 0.05740  0.20050  0.85420  Biso   1.000  H
  O8       1.0000 0.40920  0.18460  0.49500  Biso   1.000  O
  C7       1.0000 0.18210  0.16840  0.21680  Biso   1.000  C
  H8       1.0000 0.22050  0.15730  0.17860  Biso   1.000  H
  C8       1.0000 0.06490  0.29170  0.96030  Biso   1.000  C
  H9       1.0000 0.02320  0.30370  0.92150  Biso   1.000  H
  C9       1.0000 0.18610  0.28850  0.96170  Biso   1.000  C
  H10      1.0000 0.22550  0.29870  0.92350  Biso   1.000  H
  C10      1.0000 0.00390  0.27730  0.01570  Biso   1.000  C
  C11      1.0000 0.20960  0.16090  0.70800  Biso   1.000  C
  H11      1.0000 0.24980  0.14890  0.67090  Biso   1.000  H
  C12      1.0000 0.42450  0.27570  0.36420  Biso   1.000  C
  C13      1.0000 0.81120  0.17710  0.32650  Biso   1.000  C
  H12      1.0000 0.85240  0.16960  0.36720  Biso   1.000  H
  C14      1.0000 0.86090  0.28390  0.51280  Biso   1.000  C
  C15      1.0000 0.17630  0.25950  0.56440  Biso   1.000  C
  H13      1.0000 0.21940  0.24440  0.60110  Biso   1.000  H
  C16      1.0000 0.05090  0.30490  0.46280  Biso   1.000  C
  H14      1.0000 0.00950  0.32160  0.42660  Biso   1.000  H
  C17      1.0000 0.08820  0.15870  0.70520  Biso   1.000  C
  H15      1.0000 0.04690  0.14620  0.66650  Biso   1.000  H
  C18      1.0000 0.21430  0.19250  0.81390  Biso   1.000  C
  H16      1.0000 0.25740  0.20370  0.85260  Biso   1.000  H
  C19      1.0000 0.69160  0.18050  0.32360  Biso   1.000  C
  H17      1.0000 0.65130  0.17530  0.36290  Biso   1.000  H
  C20      1.0000 0.44710  0.18670  0.61320  Biso   1.000  C
  C21      1.0000 0.02800  0.17490  0.75940  Biso   1.000  C
  C22      1.0000 0.43590  0.15100  0.55050  Biso   1.000  C
  H18      1.0000 0.37000  0.12490  0.55530  Biso   1.000  H
  C23      1.0000 0.00260  0.18300  0.27010  Biso   1.000  C
  C24      1.0000 0.41590  0.31030  0.30140  Biso   1.000  C
  H19      1.0000 0.48010  0.33790  0.30410  Biso   1.000  H
  C25      1.0000 0.79640  0.27900  0.45400  Biso   1.000  C
  H20      1.0000 0.83470  0.27790  0.41360  Biso   1.000  H
  C26      1.0000 0.87240  0.18490  0.26930  Biso   1.000  C
  C27      1.0000 0.06250  0.16750  0.21410  Biso   1.000  C
  H21      1.0000 0.02030  0.15660  0.17500  Biso   1.000  H
  C28      1.0000 0.99110  0.28380  0.51460  Biso   1.000  C
  C29      1.0000 0.17270  0.30130  0.46420  Biso   1.000  C
  H22      1.0000 0.21290  0.31640  0.42870  Biso   1.000  H
  C30      1.0000 0.05630  0.26190  0.56640  Biso   1.000  C
  H23      1.0000 0.01860  0.24820  0.60370  Biso   1.000  H
  C31      1.0000 0.67740  0.28350  0.56560  Biso   1.000  C
  H24      1.0000 0.63640  0.28600  0.60500  Biso   1.000  H
  N8       1.0000 0.45550  0.10950  0.30340  Biso   1.000  N
  N9       1.0000 0.55040  0.84600  0.94540  Biso   1.000  N
  C32      1.0000 0.43650  0.18600  0.11860  Biso   1.000  C
  C33      1.0000 0.29980  0.34020  0.29500  Biso   1.000  C
  O9       1.0000 0.42590  0.17943  0.00010  Biso   1.000  O
  H25      1.0000 0.35800  0.17800  0.97800  Biso   1.000  H
  O10      1.0000 0.46900  0.27277  0.74720  Biso   1.000  O
  H26      1.0000 0.52300  0.29000  0.72700  Biso   1.000  H
  O11      1.0000 0.46630  0.21866  0.85760  Biso   1.000  O
  C34      1.0000 0.50040  0.00710  0.35900  Biso   1.000  C
  C35      1.0000 0.54740  0.02260  0.29970  Biso   1.000  C
  H27      1.0000 0.59570  0.99830  0.27700  Biso   1.000  H
  C36      1.0000 0.40940  0.09450  0.36010  Biso   1.000  C
  H28      1.0000 0.36090  0.11960  0.38140  Biso   1.000  H
  C37      1.0000 0.81010  0.25980  0.95900  Biso   1.000  C
  H29      1.0000 0.84850  0.25090  0.92000  Biso   1.000  H
  C38      1.0000 0.89950  0.17540  0.75900  Biso   1.000  C
  C39      1.0000 0.83920  0.16690  0.81740  Biso   1.000  C
  H30      1.0000 0.88100  0.15850  0.85750  Biso   1.000  H
  C40      1.0000 0.69140  0.25610  0.96040  Biso   1.000  C
  H31      1.0000 0.64890  0.24500  0.92140  Biso   1.000  H
  C41      1.0000 0.44380  0.30500  0.80310  Biso   1.000  C
  H32      1.0000 0.50510  0.33370  0.80880  Biso   1.000  H
  C42      1.0000 0.69350  0.28470  0.06780  Biso   1.000  C
  H33      1.0000 0.65280  0.29450  0.10570  Biso   1.000  H
  C43      1.0000 0.32510  0.33220  0.79360  Biso   1.000  C
  C44      1.0000 0.24160  0.31370  0.74750  Biso   1.000  C
  H34      1.0000 0.26060  0.28490  0.71890  Biso   1.000  H
  C45      1.0000 0.50960  0.00260  0.85700  Biso   1.000  C
  C46      1.0000 0.51210  0.94400  0.45580  Biso   1.000  C
  H35      1.0000 0.48850  0.97270  0.48350  Biso   1.000  H
  C47      1.0000 0.47780  0.93630  0.94740  Biso   1.000  C
  H36      1.0000 0.43460  0.96300  0.96960  Biso   1.000  H
  C48      1.0000 0.13140  0.33640  0.74230  Biso   1.000  C
  H37      1.0000 0.07470  0.32240  0.71110  Biso   1.000  H
  C49      1.0000 0.53240  0.89350  0.48150  Biso   1.000  C
  H38      1.0000 0.52210  0.88820  0.52710  Biso   1.000  H
  C50      1.0000 0.50080  0.01020  0.78960  Biso   1.000  C
  H39      1.0000 0.50610  0.98010  0.76070  Biso   1.000  H
  N10      1.0000 0.47760  0.10580  0.80240  Biso   1.000  N
  C51      1.0000 0.58150  0.86010  0.38330  Biso   1.000  C
  H40      1.0000 0.60720  0.83070  0.35740  Biso   1.000  H
  C52      1.0000 0.48410  0.06160  0.76470  Biso   1.000  C
  H41      1.0000 0.47690  0.06590  0.71820  Biso   1.000  H
  C53      1.0000 0.49390  0.88560  0.97490  Biso   1.000  C
  H42      1.0000 0.46320  0.87860  0.01660  Biso   1.000  H
  C54      1.0000 0.58540  0.90730  0.85650  Biso   1.000  C
  H43      1.0000 0.61890  0.91340  0.81530  Biso   1.000  H
  N11      1.0000 0.56570  0.85160  0.44620  Biso   1.000  N
  C55      1.0000 0.56230  0.91000  0.35300  Biso   1.000  C
  H44      1.0000 0.57430  0.91400  0.30730  Biso   1.000  H
  O12      1.0000 0.43590  0.29215  0.91860  Biso   1.000  O
  C56      1.0000 0.59610  0.85720  0.88690  Biso   1.000  C
  H45      1.0000 0.63760  0.82940  0.86560  Biso   1.000  H
  C57      1.0000 0.20500  0.31950  0.25840  Biso   1.000  C
  H46      1.0000 0.21390  0.28730  0.23360  Biso   1.000  H
  N12      1.0000 0.65390  0.18220  0.75990  Biso   1.000  N
  C58      1.0000 0.54790  0.11900  0.54400  Biso   1.000  C
  C59      1.0000 0.87440  0.27640  0.01470  Biso   1.000  C
  C60      1.0000 0.09710  0.34530  0.25740  Biso   1.000  C
  H47      1.0000 0.03290  0.33030  0.23230  Biso   1.000  H
  C61      1.0000 0.44860  0.26910  0.86440  Biso   1.000  C
  C62      1.0000 0.71890  0.17100  0.81500  Biso   1.000  C
  H48      1.0000 0.67970  0.16550  0.85470  Biso   1.000  H
  C63      1.0000 0.10340  0.37910  0.78200  Biso   1.000  C
  H49      1.0000 0.02790  0.39510  0.77820  Biso   1.000  H
  C64      1.0000 0.18640  0.39840  0.82740  Biso   1.000  C
  H50      1.0000 0.16750  0.42780  0.85520  Biso   1.000  H
  C65      1.0000 0.81300  0.28870  0.07050  Biso   1.000  C
  H51      1.0000 0.85370  0.29970  0.11010  Biso   1.000  H
  C66      1.0000 0.52480  0.94850  0.88720  Biso   1.000  C
  C67      1.0000 0.80700  0.19450  0.21100  Biso   1.000  C
  H52      1.0000 0.84440  0.19890  0.17060  Biso   1.000  H
  C68      1.0000 0.83070  0.18190  0.70220  Biso   1.000  C
  H53      1.0000 0.86560  0.18330  0.66080  Biso   1.000  H
  C69      1.0000 0.49070  0.09820  0.86740  Biso   1.000  C
  H54      1.0000 0.48840  0.12910  0.89530  Biso   1.000  H
  C70      1.0000 0.68820  0.19750  0.21290  Biso   1.000  C
  H55      1.0000 0.64500  0.20470  0.17280  Biso   1.000  H
  C71      1.0000 0.52310  0.07330  0.27440  Biso   1.000  C
  H56      1.0000 0.55620  0.08320  0.23400  Biso   1.000  H
  C72      1.0000 0.29700  0.37550  0.83340  Biso   1.000  C
  H57      1.0000 0.35350  0.38950  0.86470  Biso   1.000  H
  C73      1.0000 0.71280  0.18630  0.70540  Biso   1.000  C
  H58      1.0000 0.66890  0.19280  0.66540  Biso   1.000  H
  C74      1.0000 0.79820  0.28680  0.57030  Biso   1.000  C
  H59      1.0000 0.83810  0.29110  0.61200  Biso   1.000  H
  C75      1.0000 0.52590  0.95360  0.38900  Biso   1.000  C
  C76      1.0000 0.63880  0.14020  0.51130  Biso   1.000  C
  H60      1.0000 0.62970  0.17440  0.49020  Biso   1.000  H
  C77      1.0000 0.42880  0.04430  0.38890  Biso   1.000  C
  H61      1.0000 0.39350  0.03530  0.42880  Biso   1.000  H
  C78      1.0000 0.50730  0.04810  0.89600  Biso   1.000  C
  H62      1.0000 0.51700  0.04500  0.94260  Biso   1.000  H
  C79      1.0000 0.42110  0.14820  0.05870  Biso   1.000  C
  H63      1.0000 0.34190  0.13110  0.05950  Biso   1.000  H
  C80      1.0000 0.51180  0.10360  0.06380  Biso   1.000  C
  C81      1.0000 0.17910  0.41510  0.32630  Biso   1.000  C
  H64      1.0000 0.17100  0.44890  0.34800  Biso   1.000  H
  C82      1.0000 0.62540  0.11480  0.05330  Biso   1.000  C
  H65      1.0000 0.64800  0.15010  0.04000  Biso   1.000  H
  C83      1.0000 0.28580  0.38900  0.32830  Biso   1.000  C
  H66      1.0000 0.35040  0.40440  0.35260  Biso   1.000  H
  C84      1.0000 0.08250  0.39150  0.29200  Biso   1.000  C
  H67      1.0000 0.00750  0.40790  0.29300  Biso   1.000  H
  C85      1.0000 0.75960  0.06400  0.53820  Biso   1.000  C
  H68      1.0000 0.83180  0.04510  0.53710  Biso   1.000  H
  C86      1.0000 0.55940  0.06950  0.57320  Biso   1.000  C
  H69      1.0000 0.49610  0.05370  0.59490  Biso   1.000  H
  C87      1.0000 0.66650  0.04240  0.57060  Biso   1.000  C
  H70      1.0000 0.67560  0.00820  0.59170  Biso   1.000  H
  C88      1.0000 0.47980  0.05260  0.08420  Biso   1.000  C
  H71      1.0000 0.40020  0.04610  0.09280  Biso   1.000  H
  C89      1.0000 0.67120  0.02190  0.08140  Biso   1.000  C
  H72      1.0000 0.72670  0.99340  0.08650  Biso   1.000  H
  C90      1.0000 0.71020  0.07300  0.06270  Biso   1.000  C
  H73      1.0000 0.79070  0.07970  0.05640  Biso   1.000  H
  C91      1.0000 0.55830  0.01110  0.09240  Biso   1.000  C
  H74      1.0000 0.53430  0.97600  0.10550  Biso   1.000  H
  C92      1.0000 0.74510  0.11260  0.50840  Biso   1.000  C
  H75      1.0000 0.80730  0.12800  0.48530  Biso   1.000  H
  H76      1.0000 0.34230  0.18600  0.47720  Biso   1.000  H
  Co5      1.0000 0.56118  0.69040  0.73270  Biso   1.000  Co
  Co6      1.0000 0.55881  0.76607  0.98550  Biso   1.000  Co
  Co7      1.0000 0.53554  0.68621  0.23734  Biso   1.000  Co
  Co8      1.0000 0.57421  0.77185  0.48753  Biso   1.000  Co
  N13      1.0000 0.37160  0.69100  0.73280  Biso   1.000  N
  N14      1.0000 0.75040  0.68380  0.73010  Biso   1.000  N
  O13      1.0000 0.56780  0.66233  0.82680  Biso   1.000  O
  O14      1.0000 0.55760  0.72575  0.64100  Biso   1.000  O
  O15      1.0000 0.54250  0.66149  0.33360  Biso   1.000  O
  N15      1.0000 0.36900  0.76740  0.98610  Biso   1.000  N
  O16      1.0000 0.54810  0.73528  0.89040  Biso   1.000  O
  O17      1.0000 0.58540  0.80062  0.58230  Biso   1.000  O
  N16      1.0000 0.76470  0.77750  0.48660  Biso   1.000  N
  N17      1.0000 0.75030  0.77150  0.98500  Biso   1.000  N
  O18      1.0000 0.55850  0.73685  0.39340  Biso   1.000  O
  C93      1.0000 0.32520  0.77580  0.54600  Biso   1.000  C
  H77      1.0000 0.36800  0.77260  0.58700  Biso   1.000  H
  N18      1.0000 0.72670  0.67930  0.23890  Biso   1.000  N
  O19      1.0000 0.56700  0.77632  0.75420  Biso   1.000  O
  H78      1.0000 0.49700  0.78000  0.76700  Biso   1.000  H
  C94      1.0000 0.92910  0.76200  0.92850  Biso   1.000  C
  H79      1.0000 0.96590  0.75320  0.88890  Biso   1.000  H
  N19      1.0000 0.38450  0.77700  0.49060  Biso   1.000  N
  C95      1.0000 0.80800  0.75940  0.93100  Biso   1.000  C
  H80      1.0000 0.76390  0.74860  0.89240  Biso   1.000  H
  C96      1.0000 0.80920  0.69670  0.67580  Biso   1.000  C
  H81      1.0000 0.76490  0.70660  0.63690  Biso   1.000  H
  C97      1.0000 0.92920  0.69630  0.67360  Biso   1.000  C
  H82      1.0000 0.96550  0.70490  0.63390  Biso   1.000  H
  C98      1.0000 0.90510  0.69080  0.18480  Biso   1.000  C
  H83      1.0000 0.94260  0.70050  0.14580  Biso   1.000  H
  O20      1.0000 0.59080  0.68460  0.50500  Biso   1.000  O
  C99      1.0000 0.81790  0.66840  0.78320  Biso   1.000  C
  H84      1.0000 0.77950  0.65730  0.82140  Biso   1.000  H
  C100     1.0000 0.93510  0.79170  0.03970  Biso   1.000  C
  H85      1.0000 0.97680  0.80370  0.07850  Biso   1.000  H
  C101     1.0000 0.81390  0.78850  0.03830  Biso   1.000  C
  H86      1.0000 0.77450  0.79870  0.07650  Biso   1.000  H
  C102     1.0000 0.99610  0.77730  0.98430  Biso   1.000  C
  C103     1.0000 0.79040  0.66090  0.29200  Biso   1.000  C
  H87      1.0000 0.75020  0.64890  0.32910  Biso   1.000  H
  C104     1.0000 0.57550  0.77570  0.63580  Biso   1.000  C
  C105     1.0000 0.18880  0.67710  0.67350  Biso   1.000  C
  H88      1.0000 0.14760  0.66960  0.63280  Biso   1.000  H
  C106     1.0000 0.13910  0.78390  0.48720  Biso   1.000  C
  C107     1.0000 0.82370  0.75950  0.43560  Biso   1.000  C
  H89      1.0000 0.78060  0.74440  0.39890  Biso   1.000  H
  C108     1.0000 0.94910  0.80490  0.53720  Biso   1.000  C
  H90      1.0000 0.99050  0.82160  0.57340  Biso   1.000  H
  C109     1.0000 0.91180  0.65870  0.29480  Biso   1.000  C
  H91      1.0000 0.95310  0.64620  0.33350  Biso   1.000  H
  C110     1.0000 0.78570  0.69250  0.18610  Biso   1.000  C
  H92      1.0000 0.74260  0.70370  0.14740  Biso   1.000  H
  C111     1.0000 0.30840  0.68050  0.67640  Biso   1.000  C
  H93      1.0000 0.34870  0.67530  0.63710  Biso   1.000  H
  C112     1.0000 0.55290  0.68670  0.38680  Biso   1.000  C
  C113     1.0000 0.97200  0.67490  0.24060  Biso   1.000  C
  C114     1.0000 0.56410  0.65100  0.44950  Biso   1.000  C
  H94      1.0000 0.63000  0.62490  0.44470  Biso   1.000  H
  C115     1.0000 0.99740  0.68300  0.72990  Biso   1.000  C
  C116     1.0000 0.58410  0.81030  0.69860  Biso   1.000  C
  H95      1.0000 0.51990  0.83790  0.69590  Biso   1.000  H
  C117     1.0000 0.20360  0.77900  0.54600  Biso   1.000  C
  H96      1.0000 0.16530  0.77790  0.58640  Biso   1.000  H
  C118     1.0000 0.12760  0.68490  0.73070  Biso   1.000  C
  C119     1.0000 0.93750  0.66750  0.78590  Biso   1.000  C
  H97      1.0000 0.97970  0.65660  0.82500  Biso   1.000  H
  C120     1.0000 0.00890  0.78380  0.48540  Biso   1.000  C
  C121     1.0000 0.82730  0.80130  0.53580  Biso   1.000  C
  H98      1.0000 0.78710  0.81640  0.57130  Biso   1.000  H
  C122     1.0000 0.94370  0.76190  0.43360  Biso   1.000  C
  H99      1.0000 0.98140  0.74820  0.39630  Biso   1.000  H
  C123     1.0000 0.32260  0.78350  0.43440  Biso   1.000  C
  H100     1.0000 0.36360  0.78600  0.39500  Biso   1.000  H
  N20      1.0000 0.54450  0.60950  0.69660  Biso   1.000  N
  N21      1.0000 0.44960  0.34600  0.05460  Biso   1.000  N
  C124     1.0000 0.56350  0.68600  0.88140  Biso   1.000  C
  C125     1.0000 0.70020  0.84020  0.70500  Biso   1.000  C
  O21      1.0000 0.57410  0.67943  0.99990  Biso   1.000  O
  H101     1.0000 0.64200  0.67800  0.02200  Biso   1.000  H
  O22      1.0000 0.53100  0.77277  0.25280  Biso   1.000  O
  H102     1.0000 0.47700  0.79000  0.27300  Biso   1.000  H
  O23      1.0000 0.53370  0.71866  0.14240  Biso   1.000  O
  C126     1.0000 0.49960  0.50710  0.64100  Biso   1.000  C
  C127     1.0000 0.45260  0.52260  0.70030  Biso   1.000  C
  H103     1.0000 0.40430  0.49830  0.72300  Biso   1.000  H
  C128     1.0000 0.59060  0.59450  0.63990  Biso   1.000  C
  H104     1.0000 0.63910  0.61960  0.61860  Biso   1.000  H
  C129     1.0000 0.18990  0.75980  0.04100  Biso   1.000  C
  H105     1.0000 0.15150  0.75090  0.08000  Biso   1.000  H
  C130     1.0000 0.10050  0.67540  0.24100  Biso   1.000  C
  C131     1.0000 0.16080  0.66690  0.18260  Biso   1.000  C
  H106     1.0000 0.11900  0.65850  0.14250  Biso   1.000  H
  C132     1.0000 0.30860  0.75610  0.03960  Biso   1.000  C
  H107     1.0000 0.35110  0.74500  0.07860  Biso   1.000  H
  C133     1.0000 0.55620  0.80500  0.19690  Biso   1.000  C
  H108     1.0000 0.49490  0.83370  0.19120  Biso   1.000  H
  C134     1.0000 0.30650  0.78470  0.93220  Biso   1.000  C
  H109     1.0000 0.34720  0.79450  0.89430  Biso   1.000  H
  C135     1.0000 0.67490  0.83220  0.20640  Biso   1.000  C
  C136     1.0000 0.75840  0.81370  0.25250  Biso   1.000  C
  H110     1.0000 0.73940  0.78490  0.28110  Biso   1.000  H
  C137     1.0000 0.49040  0.50260  0.14300  Biso   1.000  C
  C138     1.0000 0.48790  0.44400  0.54420  Biso   1.000  C
  H111     1.0000 0.51150  0.47270  0.51650  Biso   1.000  H
  C139     1.0000 0.52220  0.43630  0.05260  Biso   1.000  C
  H112     1.0000 0.56540  0.46300  0.03040  Biso   1.000  H
  C140     1.0000 0.86860  0.83640  0.25770  Biso   1.000  C
  H113     1.0000 0.92530  0.82240  0.28890  Biso   1.000  H
  C141     1.0000 0.46760  0.39350  0.51850  Biso   1.000  C
  H114     1.0000 0.47790  0.38820  0.47290  Biso   1.000  H
  C142     1.0000 0.49920  0.51020  0.21040  Biso   1.000  C
  H115     1.0000 0.49390  0.48010  0.23930  Biso   1.000  H
  N22      1.0000 0.52240  0.60580  0.19760  Biso   1.000  N
  C143     1.0000 0.41850  0.36010  0.61670  Biso   1.000  C
  H116     1.0000 0.39280  0.33070  0.64260  Biso   1.000  H
  C144     1.0000 0.51590  0.56160  0.23530  Biso   1.000  C
  H117     1.0000 0.52310  0.56590  0.28180  Biso   1.000  H
  C145     1.0000 0.50610  0.38560  0.02510  Biso   1.000  C
  H118     1.0000 0.53680  0.37860  0.98340  Biso   1.000  H
  C146     1.0000 0.41460  0.40730  0.14350  Biso   1.000  C
  H119     1.0000 0.38110  0.41340  0.18470  Biso   1.000  H
  N23      1.0000 0.43430  0.35160  0.55380  Biso   1.000  N
  C147     1.0000 0.43770  0.41000  0.64700  Biso   1.000  C
  H120     1.0000 0.42570  0.41400  0.69270  Biso   1.000  H
  O24      1.0000 0.56410  0.79215  0.08140  Biso   1.000  O
  C148     1.0000 0.40390  0.35720  0.11310  Biso   1.000  C
  H121     1.0000 0.36240  0.32940  0.13440  Biso   1.000  H
  C149     1.0000 0.79500  0.81950  0.74160  Biso   1.000  C
  H122     1.0000 0.78610  0.78730  0.76640  Biso   1.000  H
  N24      1.0000 0.34610  0.68220  0.24010  Biso   1.000  N
  C150     1.0000 0.45210  0.61900  0.45600  Biso   1.000  C
  C151     1.0000 0.12560  0.77640  0.98530  Biso   1.000  C
  C152     1.0000 0.90290  0.84530  0.74260  Biso   1.000  C
  H123     1.0000 0.96710  0.83030  0.76770  Biso   1.000  H
  C153     1.0000 0.55140  0.76910  0.13560  Biso   1.000  C
  C154     1.0000 0.28110  0.67100  0.18500  Biso   1.000  C
  H124     1.0000 0.32030  0.66550  0.14530  Biso   1.000  H
  C155     1.0000 0.89660  0.87910  0.21800  Biso   1.000  C
  H125     1.0000 0.97210  0.89510  0.22180  Biso   1.000  H
  C156     1.0000 0.81360  0.89840  0.17260  Biso   1.000  C
  H126     1.0000 0.83250  0.92780  0.14480  Biso   1.000  H
  C157     1.0000 0.18700  0.78870  0.92950  Biso   1.000  C
  H127     1.0000 0.14630  0.79970  0.88990  Biso   1.000  H
  C158     1.0000 0.47520  0.44850  0.11280  Biso   1.000  C
  C159     1.0000 0.19300  0.69450  0.78900  Biso   1.000  C
  H128     1.0000 0.15560  0.69890  0.82940  Biso   1.000  H
  C160     1.0000 0.16930  0.68190  0.29780  Biso   1.000  C
  H129     1.0000 0.13440  0.68330  0.33920  Biso   1.000  H
  C161     1.0000 0.50930  0.59820  0.13260  Biso   1.000  C
  H130     1.0000 0.51160  0.62910  0.10470  Biso   1.000  H
  C162     1.0000 0.31180  0.69750  0.78710  Biso   1.000  C
  H131     1.0000 0.35500  0.70470  0.82720  Biso   1.000  H
  C163     1.0000 0.47690  0.57330  0.72560  Biso   1.000  C
  H132     1.0000 0.44380  0.58320  0.76600  Biso   1.000  H
  C164     1.0000 0.70300  0.87550  0.16660  Biso   1.000  C
  H133     1.0000 0.64650  0.88950  0.13530  Biso   1.000  H
  C165     1.0000 0.28720  0.68630  0.29460  Biso   1.000  C
  H134     1.0000 0.33110  0.69280  0.33460  Biso   1.000  H
  C166     1.0000 0.20180  0.78680  0.42970  Biso   1.000  C
  H135     1.0000 0.16190  0.79110  0.38800  Biso   1.000  H
  C167     1.0000 0.47410  0.45360  0.61100  Biso   1.000  C
  C168     1.0000 0.36120  0.64020  0.48870  Biso   1.000  C
  H136     1.0000 0.37030  0.67440  0.50980  Biso   1.000  H
  C169     1.0000 0.57120  0.54430  0.61110  Biso   1.000  C
  H137     1.0000 0.60650  0.53530  0.57120  Biso   1.000  H
  C170     1.0000 0.49270  0.54810  0.10400  Biso   1.000  C
  H138     1.0000 0.48300  0.54500  0.05740  Biso   1.000  H
  C171     1.0000 0.57890  0.64820  0.94130  Biso   1.000  C
  H139     1.0000 0.65810  0.63110  0.94050  Biso   1.000  H
  C172     1.0000 0.48820  0.60360  0.93620  Biso   1.000  C
  C173     1.0000 0.82090  0.91510  0.67370  Biso   1.000  C
  H140     1.0000 0.82900  0.94890  0.65200  Biso   1.000  H
  C174     1.0000 0.37460  0.61480  0.94670  Biso   1.000  C
  H141     1.0000 0.35200  0.65010  0.96000  Biso   1.000  H
  C175     1.0000 0.71420  0.88900  0.67170  Biso   1.000  C
  H142     1.0000 0.64960  0.90440  0.64740  Biso   1.000  H
  C176     1.0000 0.91750  0.89150  0.70800  Biso   1.000  C
  H143     1.0000 0.99250  0.90790  0.70700  Biso   1.000  H
  C177     1.0000 0.24040  0.56400  0.46180  Biso   1.000  C
  H144     1.0000 0.16820  0.54510  0.46290  Biso   1.000  H
  C178     1.0000 0.44060  0.56950  0.42680  Biso   1.000  C
  H145     1.0000 0.50390  0.55370  0.40510  Biso   1.000  H
  C179     1.0000 0.33350  0.54240  0.42940  Biso   1.000  C
  H146     1.0000 0.32440  0.50820  0.40830  Biso   1.000  H
  C180     1.0000 0.52020  0.55260  0.91580  Biso   1.000  C
  H147     1.0000 0.59980  0.54610  0.90720  Biso   1.000  H
  C181     1.0000 0.32880  0.52190  0.91860  Biso   1.000  C
  H148     1.0000 0.27330  0.49340  0.91350  Biso   1.000  H
  C182     1.0000 0.28980  0.57300  0.93730  Biso   1.000  C
  H149     1.0000 0.20930  0.57970  0.94360  Biso   1.000  H
  C183     1.0000 0.44170  0.51110  0.90760  Biso   1.000  C
  H150     1.0000 0.46570  0.47600  0.89450  Biso   1.000  H
  C184     1.0000 0.25490  0.61260  0.49160  Biso   1.000  C
  H151     1.0000 0.19270  0.62800  0.51470  Biso   1.000  H
  H152     1.0000 0.65770  0.68600  0.52280  Biso   1.000  H
