data_image0
_cell_length_a       11.4393
_cell_length_b       24.6749
_cell_length_c       20.3245
_cell_angle_alpha    90
_cell_angle_beta     92.3471
_cell_angle_gamma    90

_symmetry_space_group_name_H-M    "P 1"
_symmetry_int_tables_number       1

loop_
  _symmetry_equiv_pos_as_xyz
  'x, y, z'

loop_
  _atom_site_label
  _atom_site_occupancy
  _atom_site_fract_x
  _atom_site_fract_y
  _atom_site_fract_z
  _atom_site_thermal_displace_type
  _atom_site_B_iso_or_equiv
  _atom_site_type_symbol
  Co1      1.0000 0.44476  0.50937  0.26380  Biso   1.000  Co
  O1       1.0000 0.44760  0.54463  0.35628  Biso   1.000  O
  O2       1.0000 0.44030  0.48149  0.16943  Biso   1.000  O
  N1       1.0000 0.63420  0.50885  0.26294  Biso   1.000  N
  O3       1.0000 0.43920  0.59571  0.24304  Biso   1.000  O
  N2       1.0000 0.53870  0.92852  0.69835  Biso   1.000  N
  N3       1.0000 0.25470  0.50366  0.26588  Biso   1.000  N
  C1       1.0000 0.42730  0.59431  0.36099  Biso   1.000  C
  C2       1.0000 0.44170  0.50525  0.11468  Biso   1.000  C
  C3       1.0000 0.69310  0.51420  0.20790  Biso   1.000  C
  C4       1.0000 0.69740  0.50030  0.31920  Biso   1.000  C
  H1       1.0000 0.50000  0.60560  0.22300  Biso   1.000  H
  C5       1.0000 0.42030  0.62900  0.29834  Biso   1.000  C
  O4       1.0000 0.41650  0.61951  0.41481  Biso   1.000  O
  O5       1.0000 0.45430  0.55515  0.10625  Biso   1.000  O
  C6       1.0000 0.42630  0.46817  0.05460  Biso   1.000  C
  H2       1.0000 0.64990  0.52020  0.16760  Biso   1.000  H
  C7       1.0000 0.81370  0.51140  0.20670  Biso   1.000  C
  H3       1.0000 0.65710  0.49610  0.35880  Biso   1.000  H
  C8       1.0000 0.81830  0.49741  0.32220  Biso   1.000  C
  H4       1.0000 0.48440  0.65660  0.30160  Biso   1.000  H
  C9       1.0000 0.30400  0.65884  0.29190  Biso   1.000  C
  Co2      1.0000 0.42515  0.59158  0.51020  Biso   1.000  Co
  Co3      1.0000 0.44296  0.58768  0.01172  Biso   1.000  Co
  O6       1.0000 0.41610  0.50088  0.99655  Biso   1.000  O
  H5       1.0000 0.35270  0.44670  0.05850  Biso   1.000  H
  C10      1.0000 0.52880  0.42941  0.05270  Biso   1.000  C
  H6       1.0000 0.85170  0.51500  0.16620  Biso   1.000  H
  C11      1.0000 0.87870  0.50351  0.26460  Biso   1.000  C
  H7       1.0000 0.85950  0.49130  0.36310  Biso   1.000  H
  C12      1.0000 0.21210  0.63930  0.25260  Biso   1.000  C
  C13      1.0000 0.28810  0.70590  0.32850  Biso   1.000  C
  N4       1.0000 0.23490  0.59855  0.51147  Biso   1.000  N
  O7       1.0000 0.44060  0.55693  0.60427  Biso   1.000  O
  N5       1.0000 0.43340  0.67116  0.55227  Biso   1.000  N
  O8       1.0000 0.40420  0.50476  0.49331  Biso   1.000  O
  N6       1.0000 0.61500  0.59677  0.50697  Biso   1.000  N
  N7       1.0000 0.63250  0.58825  0.00906  Biso   1.000  N
  O9       1.0000 0.43710  0.61401  0.91606  Biso   1.000  O
  N8       1.0000 0.45700  0.66706  0.05336  Biso   1.000  N
  N9       1.0000 0.25240  0.59586  0.01249  Biso   1.000  N
  H8       1.0000 0.34700  0.49830  0.97370  Biso   1.000  H
  C14      1.0000 0.51780  0.37780  0.07830  Biso   1.000  C
  C15      1.0000 0.63390  0.44480  0.02710  Biso   1.000  C
  C16      1.0000 0.00910  0.50218  0.26540  Biso   1.000  C
  H9       1.0000 0.22290  0.60800  0.22630  Biso   1.000  H
  C17      1.0000 0.10300  0.66540  0.25120  Biso   1.000  C
  H10      1.0000 0.35120  0.72060  0.35460  Biso   1.000  H
  C18      1.0000 0.17850  0.73150  0.32670  Biso   1.000  C
  C19      1.0000 0.17610  0.58260  0.56350  Biso   1.000  C
  C20      1.0000 0.17160  0.62046  0.46060  Biso   1.000  C
  C21      1.0000 0.44270  0.50659  0.61085  Biso   1.000  C
  C22      1.0000 0.41730  0.67963  0.61590  Biso   1.000  C
  C23      1.0000 0.46580  0.71440  0.51680  Biso   1.000  C
  C24      1.0000 0.43200  0.47085  0.54890  Biso   1.000  C
  H11      1.0000 0.33300  0.49700  0.47600  Biso   1.000  H
  C25      1.0000 0.69230  0.58180  0.95380  Biso   1.000  C
  C26      1.0000 0.69490  0.60119  0.06460  Biso   1.000  C
  C27      1.0000 0.44690  0.58978  0.86230  Biso   1.000  C
  C28      1.0000 0.41020  0.67877  0.11090  Biso   1.000  C
  C29      1.0000 0.51860  0.70620  0.02470  Biso   1.000  C
  H12      1.0000 0.44590  0.36670  0.09580  Biso   1.000  H
  C30      1.0000 0.61380  0.34160  0.07840  Biso   1.000  C
  H13      1.0000 0.64150  0.48020  0.00940  Biso   1.000  H
  C31      1.0000 0.72920  0.40930  0.02670  Biso   1.000  C
  C32      1.0000 0.07470  0.51567  0.32110  Biso   1.000  C
  C33      1.0000 0.06880  0.48759  0.20930  Biso   1.000  C
  H14      1.0000 0.04040  0.65160  0.22390  Biso   1.000  H
  C34      1.0000 0.08640  0.71030  0.28870  Biso   1.000  C
  H15      1.0000 0.16750  0.76350  0.35170  Biso   1.000  H
  H16      1.0000 0.21900  0.56850  0.60060  Biso   1.000  H
  C35      1.0000 0.05530  0.58590  0.56580  Biso   1.000  C
  C36      1.0000 0.05080  0.62409  0.45920  Biso   1.000  C
  H17      1.0000 0.21190  0.63400  0.42420  Biso   1.000  H
  O10      1.0000 0.45190  0.48145  0.66462  Biso   1.000  O
  H18      1.0000 0.39220  0.65000  0.64160  Biso   1.000  H
  C37      1.0000 0.43510  0.72932  0.64660  Biso   1.000  C
  C38      1.0000 0.48450  0.76510  0.54400  Biso   1.000  C
  H19      1.0000 0.47630  0.70980  0.47110  Biso   1.000  H
  C39      1.0000 0.54430  0.43972  0.54120  Biso   1.000  C
  H20      1.0000 0.36670  0.44440  0.55410  Biso   1.000  H
  H21      1.0000 0.64980  0.57390  0.91380  Biso   1.000  H
  C40      1.0000 0.81340  0.58610  0.95270  Biso   1.000  C
  H22      1.0000 0.65410  0.60730  0.10370  Biso   1.000  H
  C41      1.0000 0.81550  0.60602  0.06740  Biso   1.000  C
  O11      1.0000 0.46040  0.53954  0.85534  Biso   1.000  O
  C42      1.0000 0.44320  0.62591  0.80050  Biso   1.000  C
  H23      1.0000 0.36510  0.65180  0.13140  Biso   1.000  H
  C43      1.0000 0.42430  0.72813  0.14170  Biso   1.000  C
  C44      1.0000 0.53720  0.75650  0.05270  Biso   1.000  C
  H24      1.0000 0.55080  0.69880  0.98330  Biso   1.000  H
  H25      1.0000 0.60740  0.30630  0.09640  Biso   1.000  H
  C45      1.0000 0.71730  0.35860  0.05180  Biso   1.000  C
  H26      1.0000 0.80110  0.42040  0.00920  Biso   1.000  H
  C46      1.0000 0.19650  0.51590  0.31980  Biso   1.000  C
  H27      1.0000 0.03730  0.52480  0.36050  Biso   1.000  H
  C47      1.0000 0.18960  0.48842  0.21190  Biso   1.000  C
  H28      1.0000 0.02680  0.47730  0.16990  Biso   1.000  H
  H29      1.0000 0.01160  0.72710  0.28880  Biso   1.000  H
  C48      1.0000 0.99000  0.60515  0.51250  Biso   1.000  C
  H30      1.0000 0.01760  0.57480  0.60430  Biso   1.000  H
  H31      1.0000 0.00980  0.63940  0.42210  Biso   1.000  H
  Co4      1.0000 0.45771  0.50598  0.76112  Biso   1.000  Co
  H32      1.0000 0.42260  0.73310  0.69230  Biso   1.000  H
  C49      1.0000 0.47120  0.77326  0.61060  Biso   1.000  C
  H33      1.0000 0.50660  0.79450  0.51690  Biso   1.000  H
  C50      1.0000 0.56060  0.39170  0.57390  Biso   1.000  C
  C51      1.0000 0.63010  0.45930  0.50330  Biso   1.000  C
  H34      1.0000 0.85210  0.58130  0.91270  Biso   1.000  H
  C52      1.0000 0.87710  0.59738  0.01050  Biso   1.000  C
  H35      1.0000 0.85590  0.61510  0.10760  Biso   1.000  H
  O12      1.0000 0.46520  0.59294  0.74470  Biso   1.000  O
  H36      1.0000 0.50700  0.65350  0.80550  Biso   1.000  H
  C53      1.0000 0.32690  0.65540  0.79269  Biso   1.000  C
  C54      1.0000 0.48960  0.76845  0.11250  Biso   1.000  C
  H37      1.0000 0.38960  0.73470  0.18260  Biso   1.000  H
  H38      1.0000 0.58250  0.78280  0.03110  Biso   1.000  H
  H39      1.0000 0.78150  0.33420  0.05110  Biso   1.000  H
  H40      1.0000 0.24020  0.52520  0.35890  Biso   1.000  H
  H41      1.0000 0.22920  0.47770  0.17380  Biso   1.000  H
  C55      1.0000 0.86000  0.60489  0.51100  Biso   1.000  C
  N10      1.0000 0.64680  0.50138  0.75968  Biso   1.000  N
  N11      1.0000 0.53500  0.92605  0.19923  Biso   1.000  N
  N12      1.0000 0.26700  0.50109  0.75998  Biso   1.000  N
  C56      1.0000 0.49450  0.82663  0.64150  Biso   1.000  C
  C57      1.0000 0.67030  0.36560  0.57010  Biso   1.000  C
  H42      1.0000 0.50000  0.37630  0.59850  Biso   1.000  H
  C58      1.0000 0.73690  0.43330  0.50090  Biso   1.000  C
  H43      1.0000 0.61650  0.49130  0.47820  Biso   1.000  H
  C59      1.0000 0.00710  0.59946  0.01150  Biso   1.000  C
  H44      1.0000 0.51400  0.60300  0.72600  Biso   1.000  H
  C60      1.0000 0.23790  0.63671  0.75110  Biso   1.000  C
  C61      1.0000 0.30850  0.70170  0.83060  Biso   1.000  C
  C62      1.0000 0.50670  0.82268  0.14350  Biso   1.000  C
  C63      1.0000 0.79600  0.59833  0.45170  Biso   1.000  C
  C64      1.0000 0.79750  0.60950  0.56770  Biso   1.000  C
  C65      1.0000 0.70460  0.50880  0.70450  Biso   1.000  C
  C66      1.0000 0.71130  0.49117  0.81440  Biso   1.000  C
  C67      1.0000 0.44760  0.84164  0.70090  Biso   1.000  C
  C68      1.0000 0.56660  0.86440  0.61220  Biso   1.000  C
  C69      1.0000 0.75640  0.38630  0.53350  Biso   1.000  C
  H45      1.0000 0.68410  0.33280  0.59360  Biso   1.000  H
  H46      1.0000 0.79720  0.44870  0.47610  Biso   1.000  H
  C70      1.0000 0.07320  0.58320  0.06730  Biso   1.000  C
  C71      1.0000 0.06730  0.61555  0.95730  Biso   1.000  C
  H47      1.0000 0.25010  0.60570  0.72440  Biso   1.000  H
  C72      1.0000 0.12940  0.66300  0.74770  Biso   1.000  C
  H48      1.0000 0.36940  0.71500  0.85940  Biso   1.000  H
  C73      1.0000 0.20160  0.72840  0.82630  Biso   1.000  C
  C74      1.0000 0.50780  0.83050  0.21070  Biso   1.000  C
  C75      1.0000 0.52100  0.86800  0.10520  Biso   1.000  C
  C76      1.0000 0.67530  0.59493  0.45200  Biso   1.000  C
  H49      1.0000 0.83500  0.59620  0.41140  Biso   1.000  H
  C77      1.0000 0.67710  0.60510  0.56360  Biso   1.000  C
  H50      1.0000 0.83720  0.61560  0.60900  Biso   1.000  H
  C78      1.0000 0.82450  0.50700  0.70250  Biso   1.000  C
  H51      1.0000 0.66060  0.51570  0.66470  Biso   1.000  H
  C79      1.0000 0.83190  0.48875  0.81730  Biso   1.000  C
  H52      1.0000 0.67170  0.48520  0.85390  Biso   1.000  H
  C80      1.0000 0.47170  0.89193  0.72730  Biso   1.000  C
  H53      1.0000 0.39880  0.81710  0.72320  Biso   1.000  H
  C81      1.0000 0.58540  0.91490  0.64190  Biso   1.000  C
  H54      1.0000 0.60270  0.85590  0.57220  Biso   1.000  H
  H55      1.0000 0.82910  0.36790  0.53090  Biso   1.000  H
  H56      1.0000 0.03550  0.57350  0.10640  Biso   1.000  H
  C82      1.0000 0.19370  0.58131  0.06536  Biso   1.000  C
  C83      1.0000 0.18910  0.61365  0.95980  Biso   1.000  C
  H57      1.0000 0.02590  0.62780  0.91870  Biso   1.000  H
  H58      1.0000 0.06810  0.64960  0.71930  Biso   1.000  H
  C84      1.0000 0.11130  0.70820  0.78550  Biso   1.000  C
  H59      1.0000 0.19010  0.76030  0.85130  Biso   1.000  H
  C85      1.0000 0.52120  0.88250  0.23610  Biso   1.000  C
  H60      1.0000 0.49940  0.80050  0.23950  Biso   1.000  H
  C86      1.0000 0.53430  0.91800  0.13470  Biso   1.000  C
  H61      1.0000 0.52170  0.86480  0.05860  Biso   1.000  H
  H62      1.0000 0.63310  0.59110  0.41100  Biso   1.000  H
  H63      1.0000 0.63590  0.60810  0.60310  Biso   1.000  H
  C87      1.0000 0.89170  0.49760  0.75980  Biso   1.000  C
  H64      1.0000 0.86140  0.51220  0.66200  Biso   1.000  H
  H65      1.0000 0.87350  0.48120  0.85770  Biso   1.000  H
  H66      1.0000 0.43930  0.90110  0.76820  Biso   1.000  H
  H67      1.0000 0.63350  0.94050  0.62100  Biso   1.000  H
  H68      1.0000 0.23710  0.56910  0.10340  Biso   1.000  H
  H69      1.0000 0.22920  0.62550  0.92240  Biso   1.000  H
  H70      1.0000 0.03720  0.72560  0.78360  Biso   1.000  H
  H71      1.0000 0.52050  0.88700  0.28250  Biso   1.000  H
  H72      1.0000 0.54350  0.94860  0.10710  Biso   1.000  H
  C88      1.0000 0.02150  0.49792  0.76010  Biso   1.000  C
  C89      1.0000 0.08780  0.51133  0.81570  Biso   1.000  C
  C90      1.0000 0.08220  0.48450  0.70380  Biso   1.000  C
  C91      1.0000 0.20820  0.51242  0.81400  Biso   1.000  C
  H73      1.0000 0.05060  0.51980  0.85540  Biso   1.000  H
  C92      1.0000 0.20230  0.48630  0.70630  Biso   1.000  C
  H74      1.0000 0.04060  0.47420  0.66440  Biso   1.000  H
  H75      1.0000 0.25180  0.52170  0.85320  Biso   1.000  H
  H76      1.0000 0.24190  0.47650  0.66780  Biso   1.000  H
  Co5      1.0000 0.55524  0.00937  0.73620  Biso   1.000  Co
  O13      1.0000 0.55240  0.04463  0.64372  Biso   1.000  O
  O14      1.0000 0.55970  0.98149  0.83057  Biso   1.000  O
  N13      1.0000 0.36580  0.00885  0.73706  Biso   1.000  N
  O15      1.0000 0.56080  0.09571  0.75696  Biso   1.000  O
  N14      1.0000 0.46130  0.42852  0.30165  Biso   1.000  N
  N15      1.0000 0.74530  0.00366  0.73412  Biso   1.000  N
  C93      1.0000 0.57270  0.09431  0.63901  Biso   1.000  C
  C94      1.0000 0.55830  0.00525  0.88532  Biso   1.000  C
  C95      1.0000 0.30690  0.01420  0.79210  Biso   1.000  C
  C96      1.0000 0.30260  0.00030  0.68080  Biso   1.000  C
  H77      1.0000 0.50000  0.10560  0.77700  Biso   1.000  H
  C97      1.0000 0.57970  0.12900  0.70166  Biso   1.000  C
  O16      1.0000 0.58350  0.11951  0.58519  Biso   1.000  O
  O17      1.0000 0.54570  0.05515  0.89375  Biso   1.000  O
  C98      1.0000 0.57370  0.96817  0.94540  Biso   1.000  C
  H78      1.0000 0.35010  0.02020  0.83240  Biso   1.000  H
  C99      1.0000 0.18630  0.01140  0.79330  Biso   1.000  C
  H79      1.0000 0.34290  0.99610  0.64120  Biso   1.000  H
  C100     1.0000 0.18170  0.99741  0.67780  Biso   1.000  C
  H80      1.0000 0.51560  0.15660  0.69840  Biso   1.000  H
  C101     1.0000 0.69600  0.15884  0.70810  Biso   1.000  C
  Co6      1.0000 0.57485  0.09158  0.48980  Biso   1.000  Co
  Co7      1.0000 0.55704  0.08768  0.98828  Biso   1.000  Co
  O18      1.0000 0.58390  0.00088  0.00345  Biso   1.000  O
  H81      1.0000 0.64730  0.94670  0.94150  Biso   1.000  H
  C102     1.0000 0.47120  0.92941  0.94730  Biso   1.000  C
  H82      1.0000 0.14830  0.01500  0.83380  Biso   1.000  H
  C103     1.0000 0.12130  0.00351  0.73540  Biso   1.000  C
  H83      1.0000 0.14050  0.99130  0.63690  Biso   1.000  H
  C104     1.0000 0.78790  0.13930  0.74740  Biso   1.000  C
  C105     1.0000 0.71190  0.20590  0.67150  Biso   1.000  C
  N16      1.0000 0.76510  0.09855  0.48853  Biso   1.000  N
  O19      1.0000 0.55940  0.05693  0.39573  Biso   1.000  O
  N17      1.0000 0.56660  0.17116  0.44773  Biso   1.000  N
  O20      1.0000 0.59580  0.00476  0.50669  Biso   1.000  O
  N18      1.0000 0.38500  0.09677  0.49303  Biso   1.000  N
  N19      1.0000 0.36750  0.08825  0.99094  Biso   1.000  N
  O21      1.0000 0.56290  0.11401  0.08394  Biso   1.000  O
  N20      1.0000 0.54300  0.16706  0.94664  Biso   1.000  N
  N21      1.0000 0.74760  0.09586  0.98751  Biso   1.000  N
  H84      1.0000 0.65300  0.99830  0.02630  Biso   1.000  H
  C106     1.0000 0.48220  0.87780  0.92170  Biso   1.000  C
  C107     1.0000 0.36610  0.94480  0.97290  Biso   1.000  C
  C108     1.0000 0.99090  0.00218  0.73460  Biso   1.000  C
  H85      1.0000 0.77710  0.10800  0.77370  Biso   1.000  H
  C109     1.0000 0.89700  0.16540  0.74880  Biso   1.000  C
  H86      1.0000 0.64880  0.22060  0.64540  Biso   1.000  H
  C110     1.0000 0.82150  0.23150  0.67330  Biso   1.000  C
  C111     1.0000 0.82390  0.08260  0.43650  Biso   1.000  C
  C112     1.0000 0.82840  0.12046  0.53940  Biso   1.000  C
  C113     1.0000 0.55730  0.00659  0.38915  Biso   1.000  C
  C114     1.0000 0.58270  0.17963  0.38410  Biso   1.000  C
  C115     1.0000 0.53420  0.21440  0.48320  Biso   1.000  C
  C116     1.0000 0.56800  0.97085  0.45110  Biso   1.000  C
  H87      1.0000 0.66700  0.99700  0.52400  Biso   1.000  H
  C117     1.0000 0.30770  0.08180  0.04620  Biso   1.000  C
  C118     1.0000 0.30510  0.10119  0.93540  Biso   1.000  C
  C119     1.0000 0.55310  0.08978  0.13770  Biso   1.000  C
  C120     1.0000 0.58980  0.17877  0.88910  Biso   1.000  C
  C121     1.0000 0.48140  0.20620  0.97530  Biso   1.000  C
  H88      1.0000 0.55410  0.86670  0.90420  Biso   1.000  H
  C122     1.0000 0.38620  0.84160  0.92160  Biso   1.000  C
  H89      1.0000 0.35850  0.98020  0.99060  Biso   1.000  H
  C123     1.0000 0.27080  0.90930  0.97330  Biso   1.000  C
  C124     1.0000 0.92530  0.01567  0.67890  Biso   1.000  C
  C125     1.0000 0.93120  0.98759  0.79070  Biso   1.000  C
  H90      1.0000 0.95960  0.15160  0.77610  Biso   1.000  H
  C126     1.0000 0.91360  0.21030  0.71130  Biso   1.000  C
  H91      1.0000 0.83250  0.26350  0.64830  Biso   1.000  H
  H92      1.0000 0.78100  0.06850  0.39940  Biso   1.000  H
  C127     1.0000 0.94470  0.08590  0.43420  Biso   1.000  C
  C128     1.0000 0.94920  0.12409  0.54080  Biso   1.000  C
  H93      1.0000 0.78810  0.13400  0.57580  Biso   1.000  H
  O22      1.0000 0.54810  0.98145  0.33538  Biso   1.000  O
  H94      1.0000 0.60780  0.15000  0.35840  Biso   1.000  H
  C129     1.0000 0.56490  0.22932  0.35340  Biso   1.000  C
  C130     1.0000 0.51550  0.26510  0.45600  Biso   1.000  C
  H95      1.0000 0.52370  0.20980  0.52890  Biso   1.000  H
  C131     1.0000 0.45570  0.93972  0.45880  Biso   1.000  C
  H96      1.0000 0.63330  0.94440  0.44590  Biso   1.000  H
  H97      1.0000 0.35020  0.07390  0.08620  Biso   1.000  H
  C132     1.0000 0.18660  0.08610  0.04730  Biso   1.000  C
  H98      1.0000 0.34590  0.10730  0.89630  Biso   1.000  H
  C133     1.0000 0.18450  0.10602  0.93260  Biso   1.000  C
  O23      1.0000 0.53960  0.03954  0.14466  Biso   1.000  O
  C134     1.0000 0.55680  0.12591  0.19950  Biso   1.000  C
  H99      1.0000 0.63490  0.15180  0.86860  Biso   1.000  H
  C135     1.0000 0.57570  0.22813  0.85830  Biso   1.000  C
  C136     1.0000 0.46280  0.25650  0.94730  Biso   1.000  C
  H100     1.0000 0.44920  0.19880  0.01670  Biso   1.000  H
  H101     1.0000 0.39260  0.80630  0.90360  Biso   1.000  H
  C137     1.0000 0.28270  0.85860  0.94820  Biso   1.000  C
  H102     1.0000 0.19890  0.92040  0.99080  Biso   1.000  H
  C138     1.0000 0.80350  0.01590  0.68020  Biso   1.000  C
  H103     1.0000 0.96270  0.02480  0.63950  Biso   1.000  H
  C139     1.0000 0.81040  0.98842  0.78810  Biso   1.000  C
  H104     1.0000 0.97320  0.97730  0.83010  Biso   1.000  H
  H105     1.0000 0.98840  0.22710  0.71120  Biso   1.000  H
  C140     1.0000 0.01000  0.10515  0.48750  Biso   1.000  C
  H106     1.0000 0.98240  0.07480  0.39570  Biso   1.000  H
  H107     1.0000 0.99020  0.13940  0.57790  Biso   1.000  H
  Co8      1.0000 0.54229  0.00598  0.23888  Biso   1.000  Co
  H108     1.0000 0.57740  0.23310  0.30770  Biso   1.000  H
  C141     1.0000 0.52880  0.27326  0.38940  Biso   1.000  C
  H109     1.0000 0.49340  0.29450  0.48310  Biso   1.000  H
  C142     1.0000 0.43940  0.89170  0.42610  Biso   1.000  C
  C143     1.0000 0.36990  0.95930  0.49670  Biso   1.000  C
  H110     1.0000 0.14790  0.08130  0.08730  Biso   1.000  H
  C144     1.0000 0.12290  0.09738  0.98950  Biso   1.000  C
  H111     1.0000 0.14410  0.11510  0.89240  Biso   1.000  H
  O24      1.0000 0.53480  0.09294  0.25530  Biso   1.000  O
  H112     1.0000 0.49300  0.15350  0.19450  Biso   1.000  H
  C145     1.0000 0.67310  0.15540  0.20731  Biso   1.000  C
  C146     1.0000 0.51040  0.26845  0.88750  Biso   1.000  C
  H113     1.0000 0.61040  0.23470  0.81740  Biso   1.000  H
  H114     1.0000 0.41750  0.28280  0.96890  Biso   1.000  H
  H115     1.0000 0.21850  0.83420  0.94890  Biso   1.000  H
  H116     1.0000 0.75980  0.02520  0.64110  Biso   1.000  H
  H117     1.0000 0.77080  0.97770  0.82620  Biso   1.000  H
  C147     1.0000 0.14000  0.10489  0.48900  Biso   1.000  C
  N22      1.0000 0.35320  0.00138  0.24032  Biso   1.000  N
  N23      1.0000 0.46500  0.42605  0.80077  Biso   1.000  N
  N24      1.0000 0.73300  0.00109  0.24002  Biso   1.000  N
  C148     1.0000 0.50550  0.32663  0.35850  Biso   1.000  C
  C149     1.0000 0.32970  0.86560  0.42990  Biso   1.000  C
  H118     1.0000 0.50000  0.87630  0.40150  Biso   1.000  H
  C150     1.0000 0.26310  0.93330  0.49910  Biso   1.000  C
  H119     1.0000 0.38350  0.99130  0.52180  Biso   1.000  H
  C151     1.0000 0.99290  0.09946  0.98850  Biso   1.000  C
  H120     1.0000 0.48600  0.10300  0.27400  Biso   1.000  H
  C152     1.0000 0.76210  0.13671  0.24890  Biso   1.000  C
  C153     1.0000 0.69150  0.20170  0.16940  Biso   1.000  C
  C154     1.0000 0.49330  0.32268  0.85650  Biso   1.000  C
  C155     1.0000 0.20400  0.09833  0.54830  Biso   1.000  C
  C156     1.0000 0.20250  0.10950  0.43230  Biso   1.000  C
  C157     1.0000 0.29540  0.00880  0.29550  Biso   1.000  C
  C158     1.0000 0.28870  0.99117  0.18560  Biso   1.000  C
  C159     1.0000 0.55240  0.34164  0.29910  Biso   1.000  C
  C160     1.0000 0.43340  0.36440  0.38780  Biso   1.000  C
  C161     1.0000 0.24360  0.88630  0.46650  Biso   1.000  C
  H121     1.0000 0.31590  0.83280  0.40640  Biso   1.000  H
  H122     1.0000 0.20280  0.94870  0.52390  Biso   1.000  H
  C162     1.0000 0.92680  0.08320  0.93270  Biso   1.000  C
  C163     1.0000 0.93270  0.11555  0.04270  Biso   1.000  C
  H123     1.0000 0.74990  0.10570  0.27560  Biso   1.000  H
  C164     1.0000 0.87060  0.16300  0.25230  Biso   1.000  C
  H124     1.0000 0.63060  0.21500  0.14060  Biso   1.000  H
  C165     1.0000 0.79840  0.22840  0.17370  Biso   1.000  C
  C166     1.0000 0.49220  0.33050  0.78930  Biso   1.000  C
  C167     1.0000 0.47900  0.36800  0.89480  Biso   1.000  C
  C168     1.0000 0.32470  0.09493  0.54800  Biso   1.000  C
  H125     1.0000 0.16500  0.09620  0.58860  Biso   1.000  H
  C169     1.0000 0.32290  0.10510  0.43640  Biso   1.000  C
  H126     1.0000 0.16280  0.11560  0.39100  Biso   1.000  H
  C170     1.0000 0.17550  0.00700  0.29750  Biso   1.000  C
  H127     1.0000 0.33940  0.01570  0.33530  Biso   1.000  H
  C171     1.0000 0.16810  0.98875  0.18270  Biso   1.000  C
  H128     1.0000 0.32830  0.98520  0.14610  Biso   1.000  H
  C172     1.0000 0.52830  0.39193  0.27270  Biso   1.000  C
  H129     1.0000 0.60120  0.31710  0.27680  Biso   1.000  H
  C173     1.0000 0.41460  0.41490  0.35810  Biso   1.000  C
  H130     1.0000 0.39730  0.35590  0.42780  Biso   1.000  H
  H131     1.0000 0.17090  0.86790  0.46910  Biso   1.000  H
  H132     1.0000 0.96450  0.07350  0.89360  Biso   1.000  H
  C174     1.0000 0.80630  0.08131  0.93464  Biso   1.000  C
  C175     1.0000 0.81090  0.11365  0.04020  Biso   1.000  C
  H133     1.0000 0.97410  0.12780  0.08130  Biso   1.000  H
  H134     1.0000 0.93190  0.14960  0.28070  Biso   1.000  H
  C176     1.0000 0.88870  0.20820  0.21450  Biso   1.000  C
  H135     1.0000 0.80990  0.26030  0.14870  Biso   1.000  H
  C177     1.0000 0.47880  0.38250  0.76390  Biso   1.000  C
  H136     1.0000 0.50060  0.30050  0.76050  Biso   1.000  H
  C178     1.0000 0.46570  0.41800  0.86530  Biso   1.000  C
  H137     1.0000 0.47830  0.36480  0.94140  Biso   1.000  H
  H138     1.0000 0.36690  0.09110  0.58900  Biso   1.000  H
  H139     1.0000 0.36410  0.10810  0.39690  Biso   1.000  H
  C179     1.0000 0.10830  0.99760  0.24020  Biso   1.000  C
  H140     1.0000 0.13860  0.01220  0.33800  Biso   1.000  H
  H141     1.0000 0.12650  0.98120  0.14230  Biso   1.000  H
  H142     1.0000 0.56070  0.40110  0.23180  Biso   1.000  H
  H143     1.0000 0.36650  0.44050  0.37900  Biso   1.000  H
  H144     1.0000 0.76290  0.06910  0.89660  Biso   1.000  H
  H145     1.0000 0.77080  0.12550  0.07760  Biso   1.000  H
  H146     1.0000 0.96280  0.22560  0.21640  Biso   1.000  H
  H147     1.0000 0.47950  0.38700  0.71750  Biso   1.000  H
  H148     1.0000 0.45650  0.44860  0.89290  Biso   1.000  H
  C180     1.0000 0.97850  0.99792  0.23990  Biso   1.000  C
  C181     1.0000 0.91220  0.01133  0.18430  Biso   1.000  C
  C182     1.0000 0.91780  0.98450  0.29620  Biso   1.000  C
  C183     1.0000 0.79180  0.01242  0.18600  Biso   1.000  C
  H149     1.0000 0.94940  0.01980  0.14460  Biso   1.000  H
  C184     1.0000 0.79770  0.98630  0.29370  Biso   1.000  C
  H150     1.0000 0.95940  0.97420  0.33560  Biso   1.000  H
  H151     1.0000 0.74820  0.02170  0.14680  Biso   1.000  H
  H152     1.0000 0.75810  0.97650  0.33220  Biso   1.000  H
