data_image0
_cell_length_a       10.2208
_cell_length_b       23.966
_cell_length_c       11.4286
_cell_angle_alpha    90
_cell_angle_beta     91.7114
_cell_angle_gamma    90

_symmetry_space_group_name_H-M    "P 1"
_symmetry_int_tables_number       1

loop_
  _symmetry_equiv_pos_as_xyz
  'x, y, z'

loop_
  _atom_site_label
  _atom_site_occupancy
  _atom_site_fract_x
  _atom_site_fract_y
  _atom_site_fract_z
  _atom_site_thermal_displace_type
  _atom_site_B_iso_or_equiv
  _atom_site_type_symbol
  Co1      1.0000 0.99598  0.66051  0.58053  Biso   1.000  Co
  Co2      1.0000 0.49338  0.74161  0.56191  Biso   1.000  Co
  O1       1.0000 0.30580  0.70760  0.56160  Biso   1.000  O
  O2       1.0000 0.80800  0.69410  0.56940  Biso   1.000  O
  O3       1.0000 0.18500  0.63150  0.58520  Biso   1.000  O
  O4       1.0000 0.68250  0.77050  0.56350  Biso   1.000  O
  N1       1.0000 0.99570  0.65370  0.77150  Biso   1.000  N
  N2       1.0000 0.49270  0.74880  0.75140  Biso   1.000  N
  N3       1.0000 0.49690  0.74280  0.37190  Biso   1.000  N
  C1       1.0000 0.10660  0.66020  0.32750  Biso   1.000  C
  H1       1.0000 0.18650  0.66750  0.36920  Biso   1.000  H
  N4       1.0000 0.00060  0.65500  0.38990  Biso   1.000  N
  C2       1.0000 0.38410  0.73660  0.81060  Biso   1.000  C
  H2       1.0000 0.30700  0.72590  0.76790  Biso   1.000  H
  C3       1.0000 0.60410  0.73660  0.31170  Biso   1.000  C
  H3       1.0000 0.68360  0.72910  0.35390  Biso   1.000  H
  C4       1.0000 0.11200  0.65600  0.20870  Biso   1.000  C
  H4       1.0000 0.19230  0.66000  0.16980  Biso   1.000  H
  C5       1.0000 0.60800  0.74050  0.19060  Biso   1.000  C
  H5       1.0000 0.68770  0.73550  0.15130  Biso   1.000  H
  C6       1.0000 0.88330  0.66260  0.95090  Biso   1.000  C
  H6       1.0000 0.80500  0.67210  0.98910  Biso   1.000  H
  O5       1.0000 0.52770  0.65230  0.55940  Biso   1.000  O
  H7       1.0000 0.53700  0.65100  0.48310  Biso   1.000  H
  C7       1.0000 0.99650  0.64590  0.14750  Biso   1.000  C
  O6       1.0000 0.02500  0.75070  0.59300  Biso   1.000  O
  H8       1.0000 0.07700  0.77100  0.63900  Biso   1.000  H
  C8       1.0000 0.29160  0.65620  0.57600  Biso   1.000  C
  N5       1.0000 0.08810  0.07900  0.42550  Biso   1.000  N
  C9       1.0000 0.99140  0.64520  0.01670  Biso   1.000  C
  C10      1.0000 0.21470  0.07190  0.40290  Biso   1.000  C
  H9       1.0000 0.26190  0.10240  0.37170  Biso   1.000  H
  C11      1.0000 0.38100  0.73910  0.93220  Biso   1.000  C
  H10      1.0000 0.30140  0.73160  0.97000  Biso   1.000  H
  C12      1.0000 0.88750  0.66650  0.83100  Biso   1.000  C
  H11      1.0000 0.81140  0.67850  0.78840  Biso   1.000  H
  C13      1.0000 0.38600  0.75420  0.31030  Biso   1.000  C
  H12      1.0000 0.30760  0.75960  0.35140  Biso   1.000  H
  C14      1.0000 0.89020  0.64280  0.33060  Biso   1.000  C
  H13      1.0000 0.81280  0.63730  0.37320  Biso   1.000  H
  C15      1.0000 0.49290  0.75170  0.12900  Biso   1.000  C
  C16      1.0000 0.79030  0.74590  0.56610  Biso   1.000  C
  N6       1.0000 0.41350  0.82350  0.54690  Biso   1.000  N
  C17      1.0000 0.59940  0.76430  0.81520  Biso   1.000  C
  H14      1.0000 0.67580  0.77430  0.77460  Biso   1.000  H
  C18      1.0000 0.60480  0.76670  0.93630  Biso   1.000  C
  H15      1.0000 0.68300  0.77790  0.97690  Biso   1.000  H
  C19      1.0000 0.09930  0.62860  0.95400  Biso   1.000  C
  H16      1.0000 0.17450  0.61410  0.99420  Biso   1.000  H
  C20      1.0000 0.38140  0.75860  0.19040  Biso   1.000  C
  H17      1.0000 0.30070  0.76630  0.15030  Biso   1.000  H
  C21      1.0000 0.09740  0.63330  0.83330  Biso   1.000  C
  H18      1.0000 0.17220  0.62140  0.79260  Biso   1.000  H
  C22      1.0000 0.41410  0.61870  0.58160  Biso   1.000  C
  H19      1.0000 0.40510  0.58980  0.51880  Biso   1.000  H
  C23      1.0000 0.49200  0.75230  0.99880  Biso   1.000  C
  C24      1.0000 0.28290  0.92400  0.49460  Biso   1.000  C
  C25      1.0000 0.88280  0.63770  0.21070  Biso   1.000  C
  H20      1.0000 0.80220  0.62870  0.17150  Biso   1.000  H
  C26      1.0000 0.91270  0.78380  0.57120  Biso   1.000  C
  H21      1.0000 0.90430  0.81110  0.63680  Biso   1.000  H
  C27      1.0000 0.21390  0.97680  0.46700  Biso   1.000  C
  C28      1.0000 0.27950  0.02230  0.42290  Biso   1.000  C
  H22      1.0000 0.36980  0.01930  0.40640  Biso   1.000  H
  C29      1.0000 0.23560  0.88630  0.57560  Biso   1.000  C
  H23      1.0000 0.15650  0.89390  0.61440  Biso   1.000  H
  C30      1.0000 0.42720  0.58950  0.69810  Biso   1.000  C
  C31      1.0000 0.39960  0.90950  0.44070  Biso   1.000  C
  H24      1.0000 0.43660  0.93390  0.38520  Biso   1.000  H
  C32      1.0000 0.02340  0.03370  0.46250  Biso   1.000  C
  H25      1.0000 0.93190  0.03700  0.47330  Biso   1.000  H
  C33      1.0000 0.51080  0.58600  0.89790  Biso   1.000  C
  H26      1.0000 0.56760  0.60070  0.95750  Biso   1.000  H
  C34      1.0000 0.35150  0.54280  0.72180  Biso   1.000  C
  H27      1.0000 0.29720  0.52720  0.66130  Biso   1.000  H
  C35      1.0000 0.07980  0.98400  0.48530  Biso   1.000  C
  H28      1.0000 0.02920  0.95390  0.51360  Biso   1.000  H
  C36      1.0000 0.50890  0.61050  0.78630  Biso   1.000  C
  H29      1.0000 0.56380  0.64150  0.77130  Biso   1.000  H
  C37      1.0000 0.91860  0.81610  0.45530  Biso   1.000  C
  C38      1.0000 0.46010  0.85980  0.46880  Biso   1.000  C
  H30      1.0000 0.53880  0.85060  0.43110  Biso   1.000  H
  C39      1.0000 0.99950  0.79870  0.36710  Biso   1.000  C
  H31      1.0000 0.06110  0.76980  0.38230  Biso   1.000  H
  C40      1.0000 0.43280  0.54140  0.92290  Biso   1.000  C
  H32      1.0000 0.43170  0.52610  0.99960  Biso   1.000  H
  C41      1.0000 0.35390  0.51880  0.83100  Biso   1.000  C
  H33      1.0000 0.30210  0.48670  0.84490  Biso   1.000  H
  C42      1.0000 0.83810  0.86100  0.43730  Biso   1.000  C
  H34      1.0000 0.78470  0.87370  0.49840  Biso   1.000  H
  C43      1.0000 0.83420  0.88790  0.33040  Biso   1.000  C
  H35      1.0000 0.77900  0.91930  0.31810  Biso   1.000  H
  C44      1.0000 0.30460  0.83790  0.59930  Biso   1.000  C
  H36      1.0000 0.27190  0.81330  0.65670  Biso   1.000  H
  C45      1.0000 0.99150  0.82370  0.25440  Biso   1.000  C
  H37      1.0000 0.03990  0.80960  0.19100  Biso   1.000  H
  C46      1.0000 0.91110  0.86870  0.24160  Biso   1.000  C
  H38      1.0000 0.90780  0.88780  0.16870  Biso   1.000  H
  Co3      1.0000 0.00402  0.16051  0.41947  Biso   1.000  Co
  Co4      1.0000 0.50662  0.24161  0.43809  Biso   1.000  Co
  O7       1.0000 0.69420  0.20760  0.43840  Biso   1.000  O
  O8       1.0000 0.19200  0.19410  0.43060  Biso   1.000  O
  O9       1.0000 0.81500  0.13150  0.41480  Biso   1.000  O
  O10      1.0000 0.31750  0.27050  0.43650  Biso   1.000  O
  N7       1.0000 0.00430  0.15370  0.22850  Biso   1.000  N
  N8       1.0000 0.50730  0.24880  0.24860  Biso   1.000  N
  N9       1.0000 0.50310  0.24280  0.62810  Biso   1.000  N
  C47      1.0000 0.89340  0.16020  0.67250  Biso   1.000  C
  H39      1.0000 0.81350  0.16750  0.63080  Biso   1.000  H
  N10      1.0000 0.99940  0.15500  0.61010  Biso   1.000  N
  C48      1.0000 0.61590  0.23660  0.18940  Biso   1.000  C
  H40      1.0000 0.69300  0.22590  0.23210  Biso   1.000  H
  C49      1.0000 0.39590  0.23660  0.68830  Biso   1.000  C
  H41      1.0000 0.31640  0.22910  0.64610  Biso   1.000  H
  C50      1.0000 0.88800  0.15600  0.79130  Biso   1.000  C
  H42      1.0000 0.80770  0.16000  0.83020  Biso   1.000  H
  C51      1.0000 0.39200  0.24050  0.80940  Biso   1.000  C
  H43      1.0000 0.31230  0.23550  0.84870  Biso   1.000  H
  C52      1.0000 0.11670  0.16260  0.04910  Biso   1.000  C
  H44      1.0000 0.19500  0.17210  0.01090  Biso   1.000  H
  O11      1.0000 0.47230  0.15230  0.44060  Biso   1.000  O
  H45      1.0000 0.46300  0.15100  0.51690  Biso   1.000  H
  C53      1.0000 0.00350  0.14590  0.85250  Biso   1.000  C
  O12      1.0000 0.97500  0.25070  0.40700  Biso   1.000  O
  H46      1.0000 0.92300  0.27100  0.36100  Biso   1.000  H
  C54      1.0000 0.70840  0.15620  0.42400  Biso   1.000  C
  N11      1.0000 0.91190  0.57900  0.57450  Biso   1.000  N
  C55      1.0000 0.00860  0.14520  0.98330  Biso   1.000  C
  C56      1.0000 0.78530  0.57190  0.59710  Biso   1.000  C
  H47      1.0000 0.73810  0.60240  0.62830  Biso   1.000  H
  C57      1.0000 0.61900  0.23910  0.06780  Biso   1.000  C
  H48      1.0000 0.69860  0.23160  0.03000  Biso   1.000  H
  C58      1.0000 0.11250  0.16650  0.16900  Biso   1.000  C
  H49      1.0000 0.18860  0.17850  0.21160  Biso   1.000  H
  C59      1.0000 0.61400  0.25420  0.68970  Biso   1.000  C
  H50      1.0000 0.69240  0.25960  0.64860  Biso   1.000  H
  C60      1.0000 0.10980  0.14280  0.66940  Biso   1.000  C
  H51      1.0000 0.18720  0.13730  0.62680  Biso   1.000  H
  C61      1.0000 0.50710  0.25170  0.87100  Biso   1.000  C
  C62      1.0000 0.20970  0.24590  0.43390  Biso   1.000  C
  N12      1.0000 0.58650  0.32350  0.45310  Biso   1.000  N
  C63      1.0000 0.40060  0.26430  0.18480  Biso   1.000  C
  H52      1.0000 0.32420  0.27430  0.22540  Biso   1.000  H
  C64      1.0000 0.39520  0.26670  0.06370  Biso   1.000  C
  H53      1.0000 0.31700  0.27790  0.02310  Biso   1.000  H
  C65      1.0000 0.90070  0.12860  0.04600  Biso   1.000  C
  H54      1.0000 0.82550  0.11410  0.00580  Biso   1.000  H
  C66      1.0000 0.61860  0.25860  0.80960  Biso   1.000  C
  H55      1.0000 0.69930  0.26630  0.84970  Biso   1.000  H
  C67      1.0000 0.90260  0.13330  0.16670  Biso   1.000  C
  H56      1.0000 0.82780  0.12140  0.20740  Biso   1.000  H
  C68      1.0000 0.58590  0.11870  0.41840  Biso   1.000  C
  H57      1.0000 0.59490  0.08980  0.48120  Biso   1.000  H
  C69      1.0000 0.50800  0.25230  0.00120  Biso   1.000  C
  C70      1.0000 0.71710  0.42400  0.50540  Biso   1.000  C
  C71      1.0000 0.11720  0.13770  0.78930  Biso   1.000  C
  H58      1.0000 0.19780  0.12870  0.82850  Biso   1.000  H
  C72      1.0000 0.08730  0.28380  0.42880  Biso   1.000  C
  H59      1.0000 0.09570  0.31110  0.36320  Biso   1.000  H
  C73      1.0000 0.78610  0.47680  0.53300  Biso   1.000  C
  C74      1.0000 0.72050  0.52230  0.57710  Biso   1.000  C
  H60      1.0000 0.63020  0.51930  0.59360  Biso   1.000  H
  C75      1.0000 0.76440  0.38630  0.42440  Biso   1.000  C
  H61      1.0000 0.84350  0.39390  0.38560  Biso   1.000  H
  C76      1.0000 0.57280  0.08950  0.30190  Biso   1.000  C
  C77      1.0000 0.60040  0.40950  0.55930  Biso   1.000  C
  H62      1.0000 0.56340  0.43390  0.61480  Biso   1.000  H
  C78      1.0000 0.97660  0.53370  0.53750  Biso   1.000  C
  H63      1.0000 0.06810  0.53700  0.52670  Biso   1.000  H
  C79      1.0000 0.48920  0.08600  0.10210  Biso   1.000  C
  H64      1.0000 0.43240  0.10070  0.04250  Biso   1.000  H
  C80      1.0000 0.64850  0.04280  0.27820  Biso   1.000  C
  H65      1.0000 0.70280  0.02720  0.33870  Biso   1.000  H
  C81      1.0000 0.92020  0.48400  0.51470  Biso   1.000  C
  H66      1.0000 0.97080  0.45390  0.48640  Biso   1.000  H
  C82      1.0000 0.49110  0.11050  0.21370  Biso   1.000  C
  H67      1.0000 0.43620  0.14150  0.22870  Biso   1.000  H
  C83      1.0000 0.08140  0.31610  0.54470  Biso   1.000  C
  C84      1.0000 0.53990  0.35980  0.53120  Biso   1.000  C
  H68      1.0000 0.46120  0.35060  0.56890  Biso   1.000  H
  C85      1.0000 0.00050  0.29870  0.63290  Biso   1.000  C
  H69      1.0000 0.93890  0.26980  0.61770  Biso   1.000  H
  C86      1.0000 0.56720  0.04140  0.07710  Biso   1.000  C
  H70      1.0000 0.56830  0.02610  0.00040  Biso   1.000  H
  C87      1.0000 0.64610  0.01880  0.16900  Biso   1.000  C
  H71      1.0000 0.69790  0.98670  0.15510  Biso   1.000  H
  C88      1.0000 0.16190  0.36100  0.56270  Biso   1.000  C
  H72      1.0000 0.21530  0.37370  0.50160  Biso   1.000  H
  C89      1.0000 0.16580  0.38790  0.66960  Biso   1.000  C
  H73      1.0000 0.22100  0.41930  0.68190  Biso   1.000  H
  C90      1.0000 0.69540  0.33790  0.40070  Biso   1.000  C
  H74      1.0000 0.72810  0.31330  0.34330  Biso   1.000  H
  C91      1.0000 0.00850  0.32370  0.74560  Biso   1.000  C
  H75      1.0000 0.96010  0.30960  0.80900  Biso   1.000  H
  C92      1.0000 0.08890  0.36870  0.75840  Biso   1.000  C
  H76      1.0000 0.09220  0.38780  0.83130  Biso   1.000  H
