data_image0
_cell_length_a       10.2292
_cell_length_b       24.7002
_cell_length_c       11.4243
_cell_angle_alpha    90
_cell_angle_beta     90.087
_cell_angle_gamma    90

_symmetry_space_group_name_H-M    "P 1"
_symmetry_int_tables_number       1

loop_
  _symmetry_equiv_pos_as_xyz
  'x, y, z'

loop_
  _atom_site_label
  _atom_site_occupancy
  _atom_site_fract_x
  _atom_site_fract_y
  _atom_site_fract_z
  _atom_site_thermal_displace_type
  _atom_site_B_iso_or_equiv
  _atom_site_type_symbol
  Co1      1.0000 0.95568  0.18183  0.07918  Biso   1.000  Co
  Co2      1.0000 0.45687  0.26113  0.05656  Biso   1.000  Co
  O1       1.0000 0.76880  0.21420  0.07500  Biso   1.000  O
  O2       1.0000 0.26870  0.22830  0.06420  Biso   1.000  O
  O3       1.0000 0.64650  0.28800  0.05550  Biso   1.000  O
  O4       1.0000 0.14510  0.15560  0.08140  Biso   1.000  O
  N1       1.0000 0.95670  0.17610  0.26760  Biso   1.000  N
  N2       1.0000 0.95710  0.17790  0.88720  Biso   1.000  N
  N3       1.0000 0.46000  0.26400  0.86500  Biso   1.000  N
  C1       1.0000 0.84910  0.18380  0.82890  Biso   1.000  C
  H1       1.0000 0.77060  0.19010  0.87100  Biso   1.000  H
  N4       1.0000 0.46300  0.26860  0.24400  Biso   1.000  N
  C2       1.0000 0.25170  0.17940  0.07370  Biso   1.000  C
  N5       1.0000 0.37580  0.34080  0.04160  Biso   1.000  N
  C3       1.0000 0.35630  0.25250  0.80370  Biso   1.000  C
  H2       1.0000 0.28110  0.24000  0.84420  Biso   1.000  H
  O5       1.0000 0.98690  0.26920  0.09090  Biso   1.000  O
  H3       1.0000 0.03500  0.28300  0.14600  Biso   1.000  H
  C4       1.0000 0.95370  0.17100  0.51180  Biso   1.000  C
  N6       1.0000 0.12310  0.60180  0.92740  Biso   1.000  N
  C5       1.0000 0.34870  0.25740  0.68350  Biso   1.000  C
  H4       1.0000 0.26810  0.25090  0.64450  Biso   1.000  H
  O6       1.0000 0.48640  0.17360  0.05080  Biso   1.000  O
  H5       1.0000 0.50600  0.17000  0.97600  Biso   1.000  H
  C6       1.0000 0.06510  0.18110  0.33280  Biso   1.000  C
  H6       1.0000 0.14530  0.18720  0.29320  Biso   1.000  H
  C7       1.0000 0.95560  0.17140  0.64120  Biso   1.000  C
  C8       1.0000 0.84350  0.18140  0.70830  Biso   1.000  C
  H7       1.0000 0.76200  0.18660  0.66990  Biso   1.000  H
  C9       1.0000 0.57630  0.26790  0.43060  Biso   1.000  C
  H8       1.0000 0.65710  0.26630  0.47160  Biso   1.000  H
  C10      1.0000 0.56310  0.28320  0.80780  Biso   1.000  C
  H9       1.0000 0.63760  0.29450  0.85120  Biso   1.000  H
  C11      1.0000 0.06270  0.16290  0.82700  Biso   1.000  C
  H10      1.0000 0.14020  0.15440  0.86910  Biso   1.000  H
  C12      1.0000 0.06830  0.17800  0.45090  Biso   1.000  C
  H11      1.0000 0.14910  0.18080  0.49160  Biso   1.000  H
  C13      1.0000 0.45900  0.27180  0.61960  Biso   1.000  C
  C14      1.0000 0.84210  0.16320  0.44920  Biso   1.000  C
  H12      1.0000 0.76220  0.15550  0.48790  Biso   1.000  H
  C15      1.0000 0.46060  0.27290  0.48980  Biso   1.000  C
  C16      1.0000 0.75420  0.26540  0.06680  Biso   1.000  C
  C17      1.0000 0.56530  0.28730  0.68350  Biso   1.000  C
  H13      1.0000 0.64090  0.30080  0.64510  Biso   1.000  H
  C18      1.0000 0.57270  0.26530  0.31090  Biso   1.000  C
  H14      1.0000 0.65360  0.26080  0.27140  Biso   1.000  H
  C19      1.0000 0.84640  0.16670  0.33040  Biso   1.000  C
  H15      1.0000 0.76680  0.16230  0.28860  Biso   1.000  H
  C20      1.0000 0.06500  0.15910  0.70790  Biso   1.000  C
  H16      1.0000 0.14290  0.14790  0.66990  Biso   1.000  H
  C21      1.0000 0.37300  0.14260  0.07550  Biso   1.000  C
  H17      1.0000 0.36270  0.11480  0.01250  Biso   1.000  H
  C22      1.0000 0.27700  0.44320  0.99000  Biso   1.000  C
  C23      1.0000 0.87510  0.30150  0.07230  Biso   1.000  C
  H18      1.0000 0.86560  0.32680  0.14010  Biso   1.000  H
  C24      1.0000 0.35240  0.27650  0.30380  Biso   1.000  C
  H19      1.0000 0.27320  0.28060  0.26120  Biso   1.000  H
  C25      1.0000 0.24770  0.59250  0.93770  Biso   1.000  C
  H20      1.0000 0.30580  0.62230  0.93060  Biso   1.000  H
  C26      1.0000 0.25260  0.34940  0.02160  Biso   1.000  C
  H21      1.0000 0.19540  0.31910  0.02430  Biso   1.000  H
  C27      1.0000 0.45240  0.38250  0.03400  Biso   1.000  C
  H22      1.0000 0.54360  0.37760  0.04580  Biso   1.000  H
  C28      1.0000 0.22350  0.49840  0.96360  Biso   1.000  C
  C29      1.0000 0.88200  0.33490  0.96030  Biso   1.000  C
  C30      1.0000 0.34770  0.27910  0.42370  Biso   1.000  C
  H23      1.0000 0.26650  0.28520  0.46170  Biso   1.000  H
  C31      1.0000 0.40520  0.43460  0.00900  Biso   1.000  C
  H24      1.0000 0.46450  0.46410  0.00580  Biso   1.000  H
  C32      1.0000 0.19880  0.39920  0.99680  Biso   1.000  C
  H25      1.0000 0.10730  0.40260  0.98460  Biso   1.000  H
  C33      1.0000 0.05240  0.55900  0.92700  Biso   1.000  C
  H26      1.0000 0.96120  0.56350  0.91480  Biso   1.000  H
  C34      1.0000 0.38170  0.11360  0.19180  Biso   1.000  C
  C35      1.0000 0.37100  0.06830  0.41800  Biso   1.000  C
  H27      1.0000 0.37180  0.05210  0.49300  Biso   1.000  H
  C36      1.0000 0.45580  0.13530  0.28100  Biso   1.000  C
  H28      1.0000 0.51180  0.16530  0.26760  Biso   1.000  H
  C37      1.0000 0.30130  0.54190  0.95840  Biso   1.000  C
  H29      1.0000 0.39300  0.53800  0.96890  Biso   1.000  H
  C38      1.0000 0.09630  0.50750  0.94400  Biso   1.000  C
  H30      1.0000 0.03670  0.47800  0.94110  Biso   1.000  H
  C39      1.0000 0.94920  0.31660  0.86490  Biso   1.000  C
  H31      1.0000 0.99740  0.28370  0.86780  Biso   1.000  H
  C40      1.0000 0.30180  0.06970  0.21970  Biso   1.000  C
  H32      1.0000 0.25030  0.05380  0.15950  Biso   1.000  H
  C41      1.0000 0.81130  0.41530  0.85700  Biso   1.000  C
  H33      1.0000 0.76590  0.44890  0.85620  Biso   1.000  H
  C42      1.0000 0.94500  0.34930  0.75780  Biso   1.000  C
  H34      1.0000 0.98890  0.33840  0.68870  Biso   1.000  H
  C43      1.0000 0.81680  0.38370  0.95700  Biso   1.000  C
  H35      1.0000 0.77410  0.39610  0.02570  Biso   1.000  H
  C44      1.0000 0.87200  0.39670  0.76200  Biso   1.000  C
  H36      1.0000 0.86590  0.41750  0.69230  Biso   1.000  H
  C45      1.0000 0.44600  0.11150  0.39290  Biso   1.000  C
  H37      1.0000 0.49510  0.12710  0.45490  Biso   1.000  H
  C46      1.0000 0.29500  0.04880  0.32880  Biso   1.000  C
  H38      1.0000 0.23550  0.02010  0.34420  Biso   1.000  H
  Co3      1.0000 0.04432  0.68183  0.92082  Biso   1.000  Co
  Co4      1.0000 0.54313  0.76113  0.94344  Biso   1.000  Co
  O7       1.0000 0.23120  0.71420  0.92500  Biso   1.000  O
  O8       1.0000 0.73130  0.72830  0.93580  Biso   1.000  O
  O9       1.0000 0.35350  0.78800  0.94450  Biso   1.000  O
  O10      1.0000 0.85490  0.65560  0.91860  Biso   1.000  O
  N7       1.0000 0.04330  0.67610  0.73240  Biso   1.000  N
  N8       1.0000 0.04290  0.67790  0.11280  Biso   1.000  N
  N9       1.0000 0.54000  0.76400  0.13500  Biso   1.000  N
  C47      1.0000 0.15090  0.68380  0.17110  Biso   1.000  C
  H39      1.0000 0.22940  0.69010  0.12900  Biso   1.000  H
  N10      1.0000 0.53700  0.76860  0.75600  Biso   1.000  N
  C48      1.0000 0.74830  0.67940  0.92630  Biso   1.000  C
  N11      1.0000 0.62420  0.84080  0.95840  Biso   1.000  N
  C49      1.0000 0.64370  0.75250  0.19630  Biso   1.000  C
  H40      1.0000 0.71890  0.74000  0.15580  Biso   1.000  H
  O11      1.0000 0.01310  0.76920  0.90910  Biso   1.000  O
  H41      1.0000 0.96500  0.78300  0.85400  Biso   1.000  H
  C50      1.0000 0.04630  0.67100  0.48820  Biso   1.000  C
  N12      1.0000 0.87690  0.10180  0.07260  Biso   1.000  N
  C51      1.0000 0.65130  0.75740  0.31650  Biso   1.000  C
  H42      1.0000 0.73190  0.75090  0.35550  Biso   1.000  H
  O12      1.0000 0.51360  0.67360  0.94920  Biso   1.000  O
  H43      1.0000 0.49400  0.67000  0.02400  Biso   1.000  H
  C52      1.0000 0.93490  0.68110  0.66720  Biso   1.000  C
  H44      1.0000 0.85470  0.68720  0.70680  Biso   1.000  H
  C53      1.0000 0.04440  0.67140  0.35880  Biso   1.000  C
  C54      1.0000 0.15650  0.68140  0.29170  Biso   1.000  C
  H45      1.0000 0.23800  0.68660  0.33010  Biso   1.000  H
  C55      1.0000 0.42370  0.76790  0.56940  Biso   1.000  C
  H46      1.0000 0.34290  0.76630  0.52840  Biso   1.000  H
  C56      1.0000 0.43690  0.78320  0.19220  Biso   1.000  C
  H47      1.0000 0.36240  0.79450  0.14880  Biso   1.000  H
  C57      1.0000 0.93730  0.66290  0.17300  Biso   1.000  C
  H48      1.0000 0.85980  0.65440  0.13090  Biso   1.000  H
  C58      1.0000 0.93170  0.67800  0.54910  Biso   1.000  C
  H49      1.0000 0.85090  0.68080  0.50840  Biso   1.000  H
  C59      1.0000 0.54100  0.77180  0.38040  Biso   1.000  C
  C60      1.0000 0.15790  0.66320  0.55080  Biso   1.000  C
  H50      1.0000 0.23780  0.65550  0.51210  Biso   1.000  H
  C61      1.0000 0.53940  0.77290  0.51020  Biso   1.000  C
  C62      1.0000 0.24580  0.76540  0.93320  Biso   1.000  C
  C63      1.0000 0.43470  0.78730  0.31650  Biso   1.000  C
  H51      1.0000 0.35910  0.80080  0.35490  Biso   1.000  H
  C64      1.0000 0.42730  0.76530  0.68910  Biso   1.000  C
  H52      1.0000 0.34640  0.76080  0.72860  Biso   1.000  H
  C65      1.0000 0.15360  0.66670  0.66960  Biso   1.000  C
  H53      1.0000 0.23320  0.66230  0.71140  Biso   1.000  H
  C66      1.0000 0.93500  0.65910  0.29210  Biso   1.000  C
  H54      1.0000 0.85710  0.64790  0.33010  Biso   1.000  H
  C67      1.0000 0.62700  0.64260  0.92450  Biso   1.000  C
  H55      1.0000 0.63730  0.61480  0.98750  Biso   1.000  H
  C68      1.0000 0.72300  0.94320  0.01000  Biso   1.000  C
  C69      1.0000 0.12490  0.80150  0.92770  Biso   1.000  C
  H56      1.0000 0.13440  0.82680  0.85990  Biso   1.000  H
  C70      1.0000 0.64760  0.77650  0.69620  Biso   1.000  C
  H57      1.0000 0.72680  0.78060  0.73880  Biso   1.000  H
  C71      1.0000 0.75230  0.09250  0.06230  Biso   1.000  C
  H58      1.0000 0.69420  0.12230  0.06940  Biso   1.000  H
  C72      1.0000 0.74740  0.84940  0.97840  Biso   1.000  C
  H59      1.0000 0.80460  0.81910  0.97570  Biso   1.000  H
  C73      1.0000 0.54760  0.88250  0.96600  Biso   1.000  C
  H60      1.0000 0.45640  0.87760  0.95420  Biso   1.000  H
  C74      1.0000 0.77650  0.99840  0.03640  Biso   1.000  C
  C75      1.0000 0.11800  0.83490  0.03970  Biso   1.000  C
  C76      1.0000 0.65230  0.77910  0.57630  Biso   1.000  C
  H61      1.0000 0.73350  0.78520  0.53830  Biso   1.000  H
  C77      1.0000 0.59480  0.93460  0.99100  Biso   1.000  C
  H62      1.0000 0.53550  0.96410  0.99420  Biso   1.000  H
  C78      1.0000 0.80120  0.89920  0.00320  Biso   1.000  C
  H63      1.0000 0.89270  0.90260  0.01540  Biso   1.000  H
  C79      1.0000 0.94760  0.05900  0.07300  Biso   1.000  C
  H64      1.0000 0.03880  0.06350  0.08520  Biso   1.000  H
  C80      1.0000 0.61830  0.61360  0.80820  Biso   1.000  C
  C81      1.0000 0.62900  0.56830  0.58200  Biso   1.000  C
  H65      1.0000 0.62820  0.55210  0.50700  Biso   1.000  H
  C82      1.0000 0.54420  0.63530  0.71900  Biso   1.000  C
  H66      1.0000 0.48820  0.66530  0.73240  Biso   1.000  H
  C83      1.0000 0.69870  0.04190  0.04160  Biso   1.000  C
  H67      1.0000 0.60700  0.03800  0.03110  Biso   1.000  H
  C84      1.0000 0.90370  0.00750  0.05600  Biso   1.000  C
  H68      1.0000 0.96330  0.97800  0.05890  Biso   1.000  H
  C85      1.0000 0.05080  0.81660  0.13510  Biso   1.000  C
  H69      1.0000 0.00260  0.78370  0.13220  Biso   1.000  H
  C86      1.0000 0.69820  0.56970  0.78030  Biso   1.000  C
  H70      1.0000 0.74970  0.55380  0.84050  Biso   1.000  H
  C87      1.0000 0.18870  0.91530  0.14300  Biso   1.000  C
  H71      1.0000 0.23410  0.94890  0.14380  Biso   1.000  H
  C88      1.0000 0.05500  0.84930  0.24220  Biso   1.000  C
  H72      1.0000 0.01110  0.83840  0.31130  Biso   1.000  H
  C89      1.0000 0.18320  0.88370  0.04300  Biso   1.000  C
  H73      1.0000 0.22590  0.89610  0.97430  Biso   1.000  H
  C90      1.0000 0.12800  0.89670  0.23800  Biso   1.000  C
  H74      1.0000 0.13410  0.91750  0.30770  Biso   1.000  H
  C91      1.0000 0.55400  0.61150  0.60710  Biso   1.000  C
  H75      1.0000 0.50490  0.62710  0.54510  Biso   1.000  H
  C92      1.0000 0.70500  0.54880  0.67120  Biso   1.000  C
  H76      1.0000 0.76450  0.52010  0.65580  Biso   1.000  H
