data_image0
_cell_length_a       18.688
_cell_length_b       15.052
_cell_length_c       16.259
_cell_angle_alpha    90
_cell_angle_beta     113.104
_cell_angle_gamma    90

_symmetry_space_group_name_H-M    "P 1"
_symmetry_int_tables_number       1

loop_
  _symmetry_equiv_pos_as_xyz
  'x, y, z'

loop_
  _atom_site_label
  _atom_site_occupancy
  _atom_site_fract_x
  _atom_site_fract_y
  _atom_site_fract_z
  _atom_site_thermal_displace_type
  _atom_site_B_iso_or_equiv
  _atom_site_type_symbol
  Mn1      1.0000 0.22045  0.60925  0.95114  Biso   1.000  Mn
  O1       1.0000 0.24410  0.63370  0.08680  Biso   1.000  O
  O2       1.0000 0.21100  0.47480  0.33450  Biso   1.000  O
  O3       1.0000 0.23270  0.54370  0.46120  Biso   1.000  O
  O4       1.0000 0.30230  0.76580  0.11160  Biso   1.000  O
  C1       1.0000 0.24760  0.62740  0.25860  Biso   1.000  C
  H1       1.0000 0.22980  0.57810  0.22180  Biso   1.000  H
  C2       1.0000 0.29910  0.77410  0.28150  Biso   1.000  C
  H2       1.0000 0.31730  0.82270  0.26020  Biso   1.000  H
  C3       1.0000 0.24930  0.62710  0.34550  Biso   1.000  C
  C4       1.0000 0.22900  0.54430  0.38190  Biso   1.000  C
  C5       1.0000 0.27210  0.70070  0.13480  Biso   1.000  C
  C6       1.0000 0.27260  0.70130  0.22860  Biso   1.000  C
  C7       1.0000 0.27490  0.70170  0.39890  Biso   1.000  C
  C8       1.0000 0.43780  0.91810  0.40740  Biso   1.000  C
  N1       1.0000 0.59350  0.90210  0.43030  Biso   1.000  N
  N2       1.0000 0.32480  0.84940  0.42440  Biso   1.000  N
  H3       1.0000 0.32320  0.84800  0.47650  Biso   1.000  H
  C9       1.0000 0.35490  0.92880  0.39600  Biso   1.000  C
  H4       1.0000 0.35070  0.97940  0.43080  Biso   1.000  H
  H5       1.0000 0.32310  0.94080  0.33360  Biso   1.000  H
  C10      1.0000 0.29910  0.77690  0.36790  Biso   1.000  C
  C11      1.0000 0.54620  0.95820  0.37440  Biso   1.000  C
  H6       1.0000 0.56580  0.99430  0.34160  Biso   1.000  H
  C12      1.0000 0.48930  0.86200  0.46980  Biso   1.000  C
  H7       1.0000 0.47230  0.82730  0.50590  Biso   1.000  H
  C13      1.0000 0.46860  0.96780  0.36060  Biso   1.000  C
  H8       1.0000 0.43770  0.00860  0.31880  Biso   1.000  H
  C14      1.0000 0.56440  0.85700  0.47910  Biso   1.000  C
  H9       1.0000 0.59750  0.81930  0.52280  Biso   1.000  H
  Mn2      1.0000 0.72045  0.10925  0.95114  Biso   1.000  Mn
  O5       1.0000 0.74410  0.13370  0.08680  Biso   1.000  O
  O6       1.0000 0.71100  0.97480  0.33450  Biso   1.000  O
  O7       1.0000 0.73270  0.04370  0.46120  Biso   1.000  O
  O8       1.0000 0.80230  0.26580  0.11160  Biso   1.000  O
  C15      1.0000 0.74760  0.12740  0.25860  Biso   1.000  C
  H10      1.0000 0.72980  0.07810  0.22180  Biso   1.000  H
  C16      1.0000 0.79910  0.27410  0.28150  Biso   1.000  C
  H11      1.0000 0.81730  0.32270  0.26020  Biso   1.000  H
  C17      1.0000 0.74930  0.12710  0.34550  Biso   1.000  C
  C18      1.0000 0.72900  0.04430  0.38190  Biso   1.000  C
  C19      1.0000 0.77210  0.20070  0.13480  Biso   1.000  C
  C20      1.0000 0.77260  0.20130  0.22860  Biso   1.000  C
  C21      1.0000 0.77490  0.20170  0.39890  Biso   1.000  C
  C22      1.0000 0.93780  0.41810  0.40740  Biso   1.000  C
  N3       1.0000 0.09350  0.40210  0.43030  Biso   1.000  N
  N4       1.0000 0.82480  0.34940  0.42440  Biso   1.000  N
  H12      1.0000 0.82320  0.34800  0.47650  Biso   1.000  H
  C23      1.0000 0.85490  0.42880  0.39600  Biso   1.000  C
  H13      1.0000 0.85070  0.47940  0.43080  Biso   1.000  H
  H14      1.0000 0.82310  0.44080  0.33360  Biso   1.000  H
  C24      1.0000 0.79910  0.27690  0.36790  Biso   1.000  C
  C25      1.0000 0.04620  0.45820  0.37440  Biso   1.000  C
  H15      1.0000 0.06580  0.49430  0.34160  Biso   1.000  H
  C26      1.0000 0.98930  0.36200  0.46980  Biso   1.000  C
  H16      1.0000 0.97230  0.32730  0.50590  Biso   1.000  H
  C27      1.0000 0.96860  0.46780  0.36060  Biso   1.000  C
  H17      1.0000 0.93770  0.50860  0.31880  Biso   1.000  H
  C28      1.0000 0.06440  0.35700  0.47910  Biso   1.000  C
  H18      1.0000 0.09750  0.31930  0.52280  Biso   1.000  H
  Mn3      1.0000 0.77955  0.60925  0.54886  Biso   1.000  Mn
  O9       1.0000 0.75590  0.63370  0.41320  Biso   1.000  O
  O10      1.0000 0.78900  0.47480  0.16550  Biso   1.000  O
  O11      1.0000 0.76730  0.54370  0.03880  Biso   1.000  O
  O12      1.0000 0.69770  0.76580  0.38840  Biso   1.000  O
  C29      1.0000 0.75240  0.62740  0.24140  Biso   1.000  C
  H19      1.0000 0.77020  0.57810  0.27820  Biso   1.000  H
  C30      1.0000 0.70090  0.77410  0.21850  Biso   1.000  C
  H20      1.0000 0.68270  0.82270  0.23980  Biso   1.000  H
  C31      1.0000 0.75070  0.62710  0.15450  Biso   1.000  C
  C32      1.0000 0.77100  0.54430  0.11810  Biso   1.000  C
  C33      1.0000 0.72790  0.70070  0.36520  Biso   1.000  C
  C34      1.0000 0.72740  0.70130  0.27140  Biso   1.000  C
  C35      1.0000 0.72510  0.70170  0.10110  Biso   1.000  C
  C36      1.0000 0.56220  0.91810  0.09260  Biso   1.000  C
  N5       1.0000 0.40650  0.90210  0.06970  Biso   1.000  N
  N6       1.0000 0.67520  0.84940  0.07560  Biso   1.000  N
  H21      1.0000 0.67680  0.84800  0.02350  Biso   1.000  H
  C37      1.0000 0.64510  0.92880  0.10400  Biso   1.000  C
  H22      1.0000 0.64930  0.97940  0.06920  Biso   1.000  H
  H23      1.0000 0.67690  0.94080  0.16640  Biso   1.000  H
  C38      1.0000 0.70090  0.77690  0.13210  Biso   1.000  C
  C39      1.0000 0.45380  0.95820  0.12560  Biso   1.000  C
  H24      1.0000 0.43420  0.99430  0.15840  Biso   1.000  H
  C40      1.0000 0.51070  0.86200  0.03020  Biso   1.000  C
  H25      1.0000 0.52770  0.82730  0.99410  Biso   1.000  H
  C41      1.0000 0.53140  0.96780  0.13940  Biso   1.000  C
  H26      1.0000 0.56230  0.00860  0.18120  Biso   1.000  H
  C42      1.0000 0.43560  0.85700  0.02090  Biso   1.000  C
  H27      1.0000 0.40250  0.81930  0.97720  Biso   1.000  H
  Mn4      1.0000 0.27955  0.10925  0.54886  Biso   1.000  Mn
  O13      1.0000 0.25590  0.13370  0.41320  Biso   1.000  O
  O14      1.0000 0.28900  0.97480  0.16550  Biso   1.000  O
  O15      1.0000 0.26730  0.04370  0.03880  Biso   1.000  O
  O16      1.0000 0.19770  0.26580  0.38840  Biso   1.000  O
  C43      1.0000 0.25240  0.12740  0.24140  Biso   1.000  C
  H28      1.0000 0.27020  0.07810  0.27820  Biso   1.000  H
  C44      1.0000 0.20090  0.27410  0.21850  Biso   1.000  C
  H29      1.0000 0.18270  0.32270  0.23980  Biso   1.000  H
  C45      1.0000 0.25070  0.12710  0.15450  Biso   1.000  C
  C46      1.0000 0.27100  0.04430  0.11810  Biso   1.000  C
  C47      1.0000 0.22790  0.20070  0.36520  Biso   1.000  C
  C48      1.0000 0.22740  0.20130  0.27140  Biso   1.000  C
  C49      1.0000 0.22510  0.20170  0.10110  Biso   1.000  C
  C50      1.0000 0.06220  0.41810  0.09260  Biso   1.000  C
  N7       1.0000 0.90650  0.40210  0.06970  Biso   1.000  N
  N8       1.0000 0.17520  0.34940  0.07560  Biso   1.000  N
  H30      1.0000 0.17680  0.34800  0.02350  Biso   1.000  H
  C51      1.0000 0.14510  0.42880  0.10400  Biso   1.000  C
  H31      1.0000 0.14930  0.47940  0.06920  Biso   1.000  H
  H32      1.0000 0.17690  0.44080  0.16640  Biso   1.000  H
  C52      1.0000 0.20090  0.27690  0.13210  Biso   1.000  C
  C53      1.0000 0.95380  0.45820  0.12560  Biso   1.000  C
  H33      1.0000 0.93420  0.49430  0.15840  Biso   1.000  H
  C54      1.0000 0.01070  0.36200  0.03020  Biso   1.000  C
  H34      1.0000 0.02770  0.32730  0.99410  Biso   1.000  H
  C55      1.0000 0.03140  0.46780  0.13940  Biso   1.000  C
  H35      1.0000 0.06230  0.50860  0.18120  Biso   1.000  H
  C56      1.0000 0.93560  0.35700  0.02090  Biso   1.000  C
  H36      1.0000 0.90250  0.31930  0.97720  Biso   1.000  H
  Mn5      1.0000 0.77955  0.39075  0.04886  Biso   1.000  Mn
  O17      1.0000 0.75590  0.36630  0.91320  Biso   1.000  O
  O18      1.0000 0.78900  0.52520  0.66550  Biso   1.000  O
  O19      1.0000 0.76730  0.45630  0.53880  Biso   1.000  O
  O20      1.0000 0.69770  0.23420  0.88840  Biso   1.000  O
  C57      1.0000 0.75240  0.37260  0.74140  Biso   1.000  C
  H37      1.0000 0.77020  0.42190  0.77820  Biso   1.000  H
  C58      1.0000 0.70090  0.22590  0.71850  Biso   1.000  C
  H38      1.0000 0.68270  0.17730  0.73980  Biso   1.000  H
  C59      1.0000 0.75070  0.37290  0.65450  Biso   1.000  C
  C60      1.0000 0.77100  0.45570  0.61810  Biso   1.000  C
  C61      1.0000 0.72790  0.29930  0.86520  Biso   1.000  C
  C62      1.0000 0.72740  0.29870  0.77140  Biso   1.000  C
  C63      1.0000 0.72510  0.29830  0.60110  Biso   1.000  C
  C64      1.0000 0.56220  0.08190  0.59260  Biso   1.000  C
  N9       1.0000 0.40650  0.09790  0.56970  Biso   1.000  N
  N10      1.0000 0.67520  0.15060  0.57560  Biso   1.000  N
  H39      1.0000 0.67680  0.15200  0.52350  Biso   1.000  H
  C65      1.0000 0.64510  0.07120  0.60400  Biso   1.000  C
  H40      1.0000 0.64930  0.02060  0.56920  Biso   1.000  H
  H41      1.0000 0.67690  0.05920  0.66640  Biso   1.000  H
  C66      1.0000 0.70090  0.22310  0.63210  Biso   1.000  C
  C67      1.0000 0.45380  0.04180  0.62560  Biso   1.000  C
  H42      1.0000 0.43420  0.00570  0.65840  Biso   1.000  H
  C68      1.0000 0.51070  0.13800  0.53020  Biso   1.000  C
  H43      1.0000 0.52770  0.17270  0.49410  Biso   1.000  H
  C69      1.0000 0.53140  0.03220  0.63940  Biso   1.000  C
  H44      1.0000 0.56230  0.99140  0.68120  Biso   1.000  H
  C70      1.0000 0.43560  0.14300  0.52090  Biso   1.000  C
  H45      1.0000 0.40250  0.18070  0.47720  Biso   1.000  H
  Mn6      1.0000 0.27955  0.89075  0.04886  Biso   1.000  Mn
  O21      1.0000 0.25590  0.86630  0.91320  Biso   1.000  O
  O22      1.0000 0.28900  0.02520  0.66550  Biso   1.000  O
  O23      1.0000 0.26730  0.95630  0.53880  Biso   1.000  O
  O24      1.0000 0.19770  0.73420  0.88840  Biso   1.000  O
  C71      1.0000 0.25240  0.87260  0.74140  Biso   1.000  C
  H46      1.0000 0.27020  0.92190  0.77820  Biso   1.000  H
  C72      1.0000 0.20090  0.72590  0.71850  Biso   1.000  C
  H47      1.0000 0.18270  0.67730  0.73980  Biso   1.000  H
  C73      1.0000 0.25070  0.87290  0.65450  Biso   1.000  C
  C74      1.0000 0.27100  0.95570  0.61810  Biso   1.000  C
  C75      1.0000 0.22790  0.79930  0.86520  Biso   1.000  C
  C76      1.0000 0.22740  0.79870  0.77140  Biso   1.000  C
  C77      1.0000 0.22510  0.79830  0.60110  Biso   1.000  C
  C78      1.0000 0.06220  0.58190  0.59260  Biso   1.000  C
  N11      1.0000 0.90650  0.59790  0.56970  Biso   1.000  N
  N12      1.0000 0.17520  0.65060  0.57560  Biso   1.000  N
  H48      1.0000 0.17680  0.65200  0.52350  Biso   1.000  H
  C79      1.0000 0.14510  0.57120  0.60400  Biso   1.000  C
  H49      1.0000 0.14930  0.52060  0.56920  Biso   1.000  H
  H50      1.0000 0.17690  0.55920  0.66640  Biso   1.000  H
  C80      1.0000 0.20090  0.72310  0.63210  Biso   1.000  C
  C81      1.0000 0.95380  0.54180  0.62560  Biso   1.000  C
  H51      1.0000 0.93420  0.50570  0.65840  Biso   1.000  H
  C82      1.0000 0.01070  0.63800  0.53020  Biso   1.000  C
  H52      1.0000 0.02770  0.67270  0.49410  Biso   1.000  H
  C83      1.0000 0.03140  0.53220  0.63940  Biso   1.000  C
  H53      1.0000 0.06230  0.49140  0.68120  Biso   1.000  H
  C84      1.0000 0.93560  0.64300  0.52090  Biso   1.000  C
  H54      1.0000 0.90250  0.68070  0.47720  Biso   1.000  H
  Mn7      1.0000 0.22045  0.39075  0.45114  Biso   1.000  Mn
  O25      1.0000 0.24410  0.36630  0.58680  Biso   1.000  O
  O26      1.0000 0.21100  0.52520  0.83450  Biso   1.000  O
  O27      1.0000 0.23270  0.45630  0.96120  Biso   1.000  O
  O28      1.0000 0.30230  0.23420  0.61160  Biso   1.000  O
  C85      1.0000 0.24760  0.37260  0.75860  Biso   1.000  C
  H55      1.0000 0.22980  0.42190  0.72180  Biso   1.000  H
  C86      1.0000 0.29910  0.22590  0.78150  Biso   1.000  C
  H56      1.0000 0.31730  0.17730  0.76020  Biso   1.000  H
  C87      1.0000 0.24930  0.37290  0.84550  Biso   1.000  C
  C88      1.0000 0.22900  0.45570  0.88190  Biso   1.000  C
  C89      1.0000 0.27210  0.29930  0.63480  Biso   1.000  C
  C90      1.0000 0.27260  0.29870  0.72860  Biso   1.000  C
  C91      1.0000 0.27490  0.29830  0.89890  Biso   1.000  C
  C92      1.0000 0.43780  0.08190  0.90740  Biso   1.000  C
  N13      1.0000 0.59350  0.09790  0.93030  Biso   1.000  N
  N14      1.0000 0.32480  0.15060  0.92440  Biso   1.000  N
  H57      1.0000 0.32320  0.15200  0.97650  Biso   1.000  H
  C93      1.0000 0.35490  0.07120  0.89600  Biso   1.000  C
  H58      1.0000 0.35070  0.02060  0.93080  Biso   1.000  H
  H59      1.0000 0.32310  0.05920  0.83360  Biso   1.000  H
  C94      1.0000 0.29910  0.22310  0.86790  Biso   1.000  C
  C95      1.0000 0.54620  0.04180  0.87440  Biso   1.000  C
  H60      1.0000 0.56580  0.00570  0.84160  Biso   1.000  H
  C96      1.0000 0.48930  0.13800  0.96980  Biso   1.000  C
  H61      1.0000 0.47230  0.17270  0.00590  Biso   1.000  H
  C97      1.0000 0.46860  0.03220  0.86060  Biso   1.000  C
  H62      1.0000 0.43770  0.99140  0.81880  Biso   1.000  H
  C98      1.0000 0.56440  0.14300  0.97910  Biso   1.000  C
  H63      1.0000 0.59750  0.18070  0.02280  Biso   1.000  H
  Mn8      1.0000 0.72045  0.89075  0.45114  Biso   1.000  Mn
  O29      1.0000 0.74410  0.86630  0.58680  Biso   1.000  O
  O30      1.0000 0.71100  0.02520  0.83450  Biso   1.000  O
  O31      1.0000 0.73270  0.95630  0.96120  Biso   1.000  O
  O32      1.0000 0.80230  0.73420  0.61160  Biso   1.000  O
  C99      1.0000 0.74760  0.87260  0.75860  Biso   1.000  C
  H64      1.0000 0.72980  0.92190  0.72180  Biso   1.000  H
  C100     1.0000 0.79910  0.72590  0.78150  Biso   1.000  C
  H65      1.0000 0.81730  0.67730  0.76020  Biso   1.000  H
  C101     1.0000 0.74930  0.87290  0.84550  Biso   1.000  C
  C102     1.0000 0.72900  0.95570  0.88190  Biso   1.000  C
  C103     1.0000 0.77210  0.79930  0.63480  Biso   1.000  C
  C104     1.0000 0.77260  0.79870  0.72860  Biso   1.000  C
  C105     1.0000 0.77490  0.79830  0.89890  Biso   1.000  C
  C106     1.0000 0.93780  0.58190  0.90740  Biso   1.000  C
  N15      1.0000 0.09350  0.59790  0.93030  Biso   1.000  N
  N16      1.0000 0.82480  0.65060  0.92440  Biso   1.000  N
  H66      1.0000 0.82320  0.65200  0.97650  Biso   1.000  H
  C107     1.0000 0.85490  0.57120  0.89600  Biso   1.000  C
  H67      1.0000 0.85070  0.52060  0.93080  Biso   1.000  H
  H68      1.0000 0.82310  0.55920  0.83360  Biso   1.000  H
  C108     1.0000 0.79910  0.72310  0.86790  Biso   1.000  C
  C109     1.0000 0.04620  0.54180  0.87440  Biso   1.000  C
  H69      1.0000 0.06580  0.50570  0.84160  Biso   1.000  H
  C110     1.0000 0.98930  0.63800  0.96980  Biso   1.000  C
  H70      1.0000 0.97230  0.67270  0.00590  Biso   1.000  H
  C111     1.0000 0.96860  0.53220  0.86060  Biso   1.000  C
  H71      1.0000 0.93770  0.49140  0.81880  Biso   1.000  H
  C112     1.0000 0.06440  0.64300  0.97910  Biso   1.000  C
  H72      1.0000 0.09750  0.68070  0.02280  Biso   1.000  H
