data_TUTZOX_clean
_audit_creation_date              2014-07-02
_audit_creation_method            'Materials Studio'
_symmetry_space_group_name_H-M    'P1'
_symmetry_Int_Tables_number       1
_symmetry_cell_setting            triclinic
loop_
_symmetry_equiv_pos_as_xyz
  x,y,z
_cell_length_a                    10.2180
_cell_length_b                    22.1010
_cell_length_c                    14.2830
_cell_angle_alpha                 91.2760
_cell_angle_beta                  90.0000
_cell_angle_gamma                 90.0000
loop_
_atom_site_label
_atom_site_type_symbol
_atom_site_fract_x
_atom_site_fract_y
_atom_site_fract_z
_atom_site_U_iso_or_equiv
_atom_site_adp_type
_atom_site_occupancy
La1    La    0.44338   0.74180   0.73499   0.01267  Uiso   1.00
La2    La    0.24886   0.75007   0.97873   0.01267  Uiso   1.00
La3    La    0.94338   0.25820   0.76501   0.01267  Uiso   1.00
La4    La    0.74886   0.24993   0.52127   0.01267  Uiso   1.00
La5    La    0.55662   0.25820   0.26501   0.01267  Uiso   1.00
La6    La    0.75114   0.24993   0.02127   0.01267  Uiso   1.00
La7    La    0.05662   0.74180   0.23499   0.01267  Uiso   1.00
La8    La    0.25114   0.75007   0.47873   0.01267  Uiso   1.00
H1     H     0.63920   0.53360   0.87070   0.01267  Uiso   1.00
H2     H     0.70230   0.43930   0.81440   0.01267  Uiso   1.00
H3     H     0.33050   0.38610   0.81310   0.01267  Uiso   1.00
H4     H     0.26740   0.48060   0.86370   0.01267  Uiso   1.00
H5     H     0.45590   0.58580   0.96970   0.01267  Uiso   1.00
H6     H     0.31400   0.57310   0.93370   0.01267  Uiso   1.00
H7     H     0.62430   0.34340   0.72120   0.01267  Uiso   1.00
H8     H     0.48960   0.31710   0.75430   0.01267  Uiso   1.00
H9     H     0.83940   0.90330   0.78960   0.01267  Uiso   1.00
H10    H     0.77390   0.99130   0.86230   0.01267  Uiso   1.00
H11    H     0.14470   0.04400   0.88430   0.01267  Uiso   1.00
H12    H     0.21070   0.95490   0.81320   0.01267  Uiso   1.00
H13    H     0.00810   0.84140   0.71540   0.01267  Uiso   1.00
H14    H     0.14790   0.86960   0.70420   0.01267  Uiso   1.00
H15    H     0.95690   0.09200   0.98400   0.01267  Uiso   1.00
H16    H     0.81530   0.08240   0.94480   0.01267  Uiso   1.00
H17    H     0.58120   0.53110   0.35880   0.01267  Uiso   1.00
H18    H     0.50670   0.56470   0.62720   0.01267  Uiso   1.00
H19    H     0.69900   0.62080   0.52430   0.01267  Uiso   1.00
H20    H     0.64610   0.62580   0.42140   0.01267  Uiso   1.00
H21    H     0.46600   0.97840   0.84330   0.01267  Uiso   1.00
H22    H     0.59200   0.92870   0.09530   0.01267  Uiso   1.00
H23    H     0.65210   0.86890   0.95220   0.01267  Uiso   1.00
H24    H     0.58870   0.88530   0.85610   0.01267  Uiso   1.00
H25    H     0.13920   0.46640   0.62930   0.01267  Uiso   1.00
H26    H     0.20230   0.56070   0.68560   0.01267  Uiso   1.00
H27    H     0.83050   0.61390   0.68690   0.01267  Uiso   1.00
H28    H     0.76740   0.51940   0.63630   0.01267  Uiso   1.00
H29    H     0.95590   0.41420   0.53030   0.01267  Uiso   1.00
H30    H     0.81400   0.42690   0.56630   0.01267  Uiso   1.00
H31    H     0.12430   0.65660   0.77880   0.01267  Uiso   1.00
H32    H     0.98960   0.68290   0.74570   0.01267  Uiso   1.00
H33    H     0.33940   0.09670   0.71040   0.01267  Uiso   1.00
H34    H     0.27390   0.00870   0.63770   0.01267  Uiso   1.00
H35    H     0.64470   0.95600   0.61570   0.01267  Uiso   1.00
H36    H     0.71070   0.04510   0.68680   0.01267  Uiso   1.00
H37    H     0.50810   0.15860   0.78460   0.01267  Uiso   1.00
H38    H     0.64790   0.13040   0.79580   0.01267  Uiso   1.00
H39    H     0.45690   0.90800   0.51600   0.01267  Uiso   1.00
H40    H     0.31530   0.91760   0.55520   0.01267  Uiso   1.00
H41    H     0.08120   0.46890   0.14120   0.01267  Uiso   1.00
H42    H     0.00670   0.43530   0.87280   0.01267  Uiso   1.00
H43    H     0.19900   0.37920   0.97570   0.01267  Uiso   1.00
H44    H     0.14610   0.37420   0.07860   0.01267  Uiso   1.00
H45    H     0.96600   0.02160   0.65670   0.01267  Uiso   1.00
H46    H     0.09200   0.07130   0.40470   0.01267  Uiso   1.00
H47    H     0.15210   0.13110   0.54780   0.01267  Uiso   1.00
H48    H     0.08870   0.11470   0.64390   0.01267  Uiso   1.00
H49    H     0.36080   0.46640   0.12930   0.01267  Uiso   1.00
H50    H     0.29770   0.56070   0.18560   0.01267  Uiso   1.00
H51    H     0.66950   0.61390   0.18690   0.01267  Uiso   1.00
H52    H     0.73260   0.51940   0.13630   0.01267  Uiso   1.00
H53    H     0.54410   0.41420   0.03030   0.01267  Uiso   1.00
H54    H     0.68600   0.42690   0.06630   0.01267  Uiso   1.00
H55    H     0.37570   0.65660   0.27880   0.01267  Uiso   1.00
H56    H     0.51040   0.68290   0.24570   0.01267  Uiso   1.00
H57    H     0.16060   0.09670   0.21040   0.01267  Uiso   1.00
H58    H     0.22610   0.00870   0.13770   0.01267  Uiso   1.00
H59    H     0.85530   0.95600   0.11570   0.01267  Uiso   1.00
H60    H     0.78930   0.04510   0.18680   0.01267  Uiso   1.00
H61    H     0.99190   0.15860   0.28460   0.01267  Uiso   1.00
H62    H     0.85210   0.13040   0.29580   0.01267  Uiso   1.00
H63    H     0.04310   0.90800   0.01600   0.01267  Uiso   1.00
H64    H     0.18470   0.91760   0.05520   0.01267  Uiso   1.00
H65    H     0.41880   0.46890   0.64120   0.01267  Uiso   1.00
H66    H     0.49330   0.43530   0.37280   0.01267  Uiso   1.00
H67    H     0.30100   0.37920   0.47570   0.01267  Uiso   1.00
H68    H     0.35390   0.37420   0.57860   0.01267  Uiso   1.00
H69    H     0.53400   0.02160   0.15670   0.01267  Uiso   1.00
H70    H     0.40800   0.07130   0.90470   0.01267  Uiso   1.00
H71    H     0.34790   0.13110   0.04780   0.01267  Uiso   1.00
H72    H     0.41130   0.11470   0.14390   0.01267  Uiso   1.00
H73    H     0.86080   0.53360   0.37070   0.01267  Uiso   1.00
H74    H     0.79770   0.43930   0.31440   0.01267  Uiso   1.00
H75    H     0.16950   0.38610   0.31310   0.01267  Uiso   1.00
H76    H     0.23260   0.48060   0.36370   0.01267  Uiso   1.00
H77    H     0.04410   0.58580   0.46970   0.01267  Uiso   1.00
H78    H     0.18600   0.57310   0.43370   0.01267  Uiso   1.00
H79    H     0.87570   0.34340   0.22120   0.01267  Uiso   1.00
H80    H     0.01040   0.31710   0.25430   0.01267  Uiso   1.00
H81    H     0.66060   0.90330   0.28960   0.01267  Uiso   1.00
H82    H     0.72610   0.99130   0.36230   0.01267  Uiso   1.00
H83    H     0.35530   0.04400   0.38430   0.01267  Uiso   1.00
H84    H     0.28930   0.95490   0.31320   0.01267  Uiso   1.00
H85    H     0.49190   0.84140   0.21540   0.01267  Uiso   1.00
H86    H     0.35210   0.86960   0.20420   0.01267  Uiso   1.00
H87    H     0.54310   0.09200   0.48400   0.01267  Uiso   1.00
H88    H     0.68470   0.08240   0.44480   0.01267  Uiso   1.00
H89    H     0.91880   0.53110   0.85880   0.01267  Uiso   1.00
H90    H     0.99330   0.56470   0.12720   0.01267  Uiso   1.00
H91    H     0.80100   0.62080   0.02430   0.01267  Uiso   1.00
H92    H     0.85390   0.62580   0.92140   0.01267  Uiso   1.00
H93    H     0.03400   0.97840   0.34330   0.01267  Uiso   1.00
H94    H     0.90800   0.92870   0.59530   0.01267  Uiso   1.00
H95    H     0.84790   0.86890   0.45220   0.01267  Uiso   1.00
H96    H     0.91130   0.88530   0.35610   0.01267  Uiso   1.00
C1     C     0.44760   0.51660   0.87520   0.01267  Uiso   1.00
C2     C     0.57630   0.50400   0.85900   0.01267  Uiso   1.00
C3     C     0.61410   0.44720   0.82510   0.01267  Uiso   1.00
C4     C     0.52360   0.40270   0.80710   0.01267  Uiso   1.00
C5     C     0.39350   0.41580   0.82360   0.01267  Uiso   1.00
C6     C     0.35590   0.47210   0.85540   0.01267  Uiso   1.00
C7     C     0.40440   0.57680   0.91400   0.01267  Uiso   1.00
C8     C     0.41410   0.62980   0.85090   0.01267  Uiso   1.00
C9     C     0.56560   0.34030   0.77420   0.01267  Uiso   1.00
C10    C     0.63350   0.30870   0.85240   0.01267  Uiso   1.00
C11    C     0.03260   0.91870   0.79470   0.01267  Uiso   1.00
C12    C     0.90210   0.93130   0.80910   0.01267  Uiso   1.00
C13    C     0.86270   0.98470   0.85190   0.01267  Uiso   1.00
C14    C     0.94940   0.02810   0.87910   0.01267  Uiso   1.00
C15    C     0.08230   0.01570   0.86510   0.01267  Uiso   1.00
C16    C     0.12190   0.96200   0.82280   0.01267  Uiso   1.00
C17    C     0.08000   0.86040   0.74920   0.01267  Uiso   1.00
C18    C     0.13250   0.81750   0.81810   0.01267  Uiso   1.00
C19    C     0.90640   0.08640   0.92700   0.01267  Uiso   1.00
C20    C     0.92100   0.14240   0.86880   0.01267  Uiso   1.00
C21    C     0.55560   0.55690   0.49360   0.01267  Uiso   1.00
C22    C     0.54930   0.51870   0.41630   0.01267  Uiso   1.00
C23    C     0.50510   0.53850   0.57530   0.01267  Uiso   1.00
C24    C     0.62080   0.61910   0.48580   0.01267  Uiso   1.00
C25    C     0.52350   0.66830   0.51880   0.01267  Uiso   1.00
C26    C     0.53670   0.94350   0.96160   0.01267  Uiso   1.00
C27    C     0.48030   0.98690   0.90650   0.01267  Uiso   1.00
C28    C     0.55520   0.95740   0.05660   0.01267  Uiso   1.00
C29    C     0.57190   0.88230   0.92270   0.01267  Uiso   1.00
C30    C     0.46690   0.83560   0.93730   0.01267  Uiso   1.00
C31    C     0.94760   0.48340   0.62480   0.01267  Uiso   1.00
C32    C     0.07630   0.49600   0.64100   0.01267  Uiso   1.00
C33    C     0.11410   0.55280   0.67490   0.01267  Uiso   1.00
C34    C     0.02360   0.59730   0.69290   0.01267  Uiso   1.00
C35    C     0.89350   0.58420   0.67640   0.01267  Uiso   1.00
C36    C     0.85590   0.52790   0.64460   0.01267  Uiso   1.00
C37    C     0.90440   0.42320   0.58600   0.01267  Uiso   1.00
C38    C     0.91410   0.37020   0.64910   0.01267  Uiso   1.00
C39    C     0.06560   0.65970   0.72580   0.01267  Uiso   1.00
C40    C     0.13350   0.69130   0.64760   0.01267  Uiso   1.00
C41    C     0.53260   0.08130   0.70530   0.01267  Uiso   1.00
C42    C     0.40210   0.06870   0.69090   0.01267  Uiso   1.00
C43    C     0.36270   0.01530   0.64810   0.01267  Uiso   1.00
C44    C     0.44940   0.97190   0.62090   0.01267  Uiso   1.00
C45    C     0.58230   0.98430   0.63490   0.01267  Uiso   1.00
C46    C     0.62190   0.03800   0.67720   0.01267  Uiso   1.00
C47    C     0.58000   0.13960   0.75080   0.01267  Uiso   1.00
C48    C     0.63250   0.18250   0.68190   0.01267  Uiso   1.00
C49    C     0.40640   0.91360   0.57300   0.01267  Uiso   1.00
C50    C     0.42100   0.85760   0.63120   0.01267  Uiso   1.00
C51    C     0.05560   0.44310   0.00640   0.01267  Uiso   1.00
C52    C     0.04930   0.48130   0.08370   0.01267  Uiso   1.00
C53    C     0.00510   0.46150   0.92470   0.01267  Uiso   1.00
C54    C     0.12080   0.38090   0.01420   0.01267  Uiso   1.00
C55    C     0.02350   0.33170   0.98120   0.01267  Uiso   1.00
C56    C     0.03670   0.05650   0.53840   0.01267  Uiso   1.00
C57    C     0.98030   0.01310   0.59350   0.01267  Uiso   1.00
C58    C     0.05520   0.04260   0.44340   0.01267  Uiso   1.00
C59    C     0.07190   0.11770   0.57730   0.01267  Uiso   1.00
C60    C     0.96690   0.16440   0.56270   0.01267  Uiso   1.00
C61    C     0.55240   0.48340   0.12480   0.01267  Uiso   1.00
C62    C     0.42370   0.49600   0.14100   0.01267  Uiso   1.00
C63    C     0.38590   0.55280   0.17490   0.01267  Uiso   1.00
C64    C     0.47640   0.59730   0.19290   0.01267  Uiso   1.00
C65    C     0.60650   0.58420   0.17640   0.01267  Uiso   1.00
C66    C     0.64410   0.52790   0.14460   0.01267  Uiso   1.00
C67    C     0.59560   0.42320   0.08600   0.01267  Uiso   1.00
C68    C     0.58590   0.37020   0.14910   0.01267  Uiso   1.00
C69    C     0.43440   0.65970   0.22580   0.01267  Uiso   1.00
C70    C     0.36650   0.69130   0.14760   0.01267  Uiso   1.00
C71    C     0.96740   0.08130   0.20530   0.01267  Uiso   1.00
C72    C     0.09790   0.06870   0.19090   0.01267  Uiso   1.00
C73    C     0.13730   0.01530   0.14810   0.01267  Uiso   1.00
C74    C     0.05060   0.97190   0.12090   0.01267  Uiso   1.00
C75    C     0.91770   0.98430   0.13490   0.01267  Uiso   1.00
C76    C     0.87810   0.03800   0.17720   0.01267  Uiso   1.00
C77    C     0.92000   0.13960   0.25080   0.01267  Uiso   1.00
C78    C     0.86750   0.18250   0.18190   0.01267  Uiso   1.00
C79    C     0.09360   0.91360   0.07300   0.01267  Uiso   1.00
C80    C     0.07900   0.85760   0.13120   0.01267  Uiso   1.00
C81    C     0.44440   0.44310   0.50640   0.01267  Uiso   1.00
C82    C     0.45070   0.48130   0.58370   0.01267  Uiso   1.00
C83    C     0.49490   0.46150   0.42470   0.01267  Uiso   1.00
C84    C     0.37920   0.38090   0.51420   0.01267  Uiso   1.00
C85    C     0.47650   0.33170   0.48120   0.01267  Uiso   1.00
C86    C     0.46330   0.05650   0.03840   0.01267  Uiso   1.00
C87    C     0.51970   0.01310   0.09350   0.01267  Uiso   1.00
C88    C     0.44480   0.04260   0.94340   0.01267  Uiso   1.00
C89    C     0.42810   0.11770   0.07730   0.01267  Uiso   1.00
C90    C     0.53310   0.16440   0.06270   0.01267  Uiso   1.00
C91    C     0.05240   0.51660   0.37520   0.01267  Uiso   1.00
C92    C     0.92370   0.50400   0.35900   0.01267  Uiso   1.00
C93    C     0.88590   0.44720   0.32510   0.01267  Uiso   1.00
C94    C     0.97640   0.40270   0.30710   0.01267  Uiso   1.00
C95    C     0.10650   0.41580   0.32360   0.01267  Uiso   1.00
C96    C     0.14410   0.47210   0.35540   0.01267  Uiso   1.00
C97    C     0.09560   0.57680   0.41400   0.01267  Uiso   1.00
C98    C     0.08590   0.62980   0.35090   0.01267  Uiso   1.00
C99    C     0.93440   0.34030   0.27420   0.01267  Uiso   1.00
C100   C     0.86650   0.30870   0.35240   0.01267  Uiso   1.00
C101   C     0.46740   0.91870   0.29470   0.01267  Uiso   1.00
C102   C     0.59790   0.93130   0.30910   0.01267  Uiso   1.00
C103   C     0.63730   0.98470   0.35190   0.01267  Uiso   1.00
C104   C     0.55060   0.02810   0.37910   0.01267  Uiso   1.00
C105   C     0.41770   0.01570   0.36510   0.01267  Uiso   1.00
C106   C     0.37810   0.96200   0.32280   0.01267  Uiso   1.00
C107   C     0.42000   0.86040   0.24920   0.01267  Uiso   1.00
C108   C     0.36750   0.81750   0.31810   0.01267  Uiso   1.00
C109   C     0.59360   0.08640   0.42700   0.01267  Uiso   1.00
C110   C     0.57900   0.14240   0.36880   0.01267  Uiso   1.00
C111   C     0.94440   0.55690   0.99360   0.01267  Uiso   1.00
C112   C     0.95070   0.51870   0.91630   0.01267  Uiso   1.00
C113   C     0.99490   0.53850   0.07530   0.01267  Uiso   1.00
C114   C     0.87920   0.61910   0.98580   0.01267  Uiso   1.00
C115   C     0.97650   0.66830   0.01880   0.01267  Uiso   1.00
C116   C     0.96330   0.94350   0.46160   0.01267  Uiso   1.00
C117   C     0.01970   0.98690   0.40650   0.01267  Uiso   1.00
C118   C     0.94480   0.95740   0.55660   0.01267  Uiso   1.00
C119   C     0.92810   0.88230   0.42270   0.01267  Uiso   1.00
C120   C     0.03310   0.83560   0.43730   0.01267  Uiso   1.00
O1     O     0.48930   0.63040   0.78190   0.01267  Uiso   1.00
O2     O     0.34240   0.67520   0.86850   0.01267  Uiso   1.00
O3     O     0.75640   0.30680   0.85670   0.01267  Uiso   1.00
O4     O     0.56540   0.28460   0.91520   0.01267  Uiso   1.00
O5     O     0.23250   0.78600   0.79920   0.01267  Uiso   1.00
O6     O     0.07550   0.81120   0.89410   0.01267  Uiso   1.00
O7     O     0.98010   0.14330   0.79440   0.01267  Uiso   1.00
O8     O     0.86580   0.19090   0.89930   0.01267  Uiso   1.00
O9     O     0.43280   0.67890   0.46630   0.01267  Uiso   1.00
O10    O     0.54570   0.69590   0.59430   0.01267  Uiso   1.00
O11    O     0.47570   0.78490   0.89640   0.01267  Uiso   1.00
O12    O     0.37250   0.84680   0.99070   0.01267  Uiso   1.00
O13    O     0.98930   0.36960   0.71810   0.01267  Uiso   1.00
O14    O     0.84240   0.32480   0.63150   0.01267  Uiso   1.00
O15    O     0.25640   0.69320   0.64330   0.01267  Uiso   1.00
O16    O     0.06540   0.71540   0.58480   0.01267  Uiso   1.00
O17    O     0.73250   0.21400   0.70080   0.01267  Uiso   1.00
O18    O     0.57550   0.18880   0.60590   0.01267  Uiso   1.00
O19    O     0.48010   0.85670   0.70560   0.01267  Uiso   1.00
O20    O     0.36580   0.80910   0.60070   0.01267  Uiso   1.00
O21    O     0.93280   0.32110   0.03370   0.01267  Uiso   1.00
O22    O     0.04570   0.30410   0.90570   0.01267  Uiso   1.00
O23    O     0.97570   0.21510   0.60360   0.01267  Uiso   1.00
O24    O     0.87250   0.15320   0.50930   0.01267  Uiso   1.00
O25    O     0.51070   0.36960   0.21810   0.01267  Uiso   1.00
O26    O     0.65760   0.32480   0.13150   0.01267  Uiso   1.00
O27    O     0.24360   0.69320   0.14330   0.01267  Uiso   1.00
O28    O     0.43460   0.71540   0.08480   0.01267  Uiso   1.00
O29    O     0.76750   0.21400   0.20080   0.01267  Uiso   1.00
O30    O     0.92450   0.18880   0.10590   0.01267  Uiso   1.00
O31    O     0.01990   0.85670   0.20560   0.01267  Uiso   1.00
O32    O     0.13420   0.80910   0.10070   0.01267  Uiso   1.00
O33    O     0.56720   0.32110   0.53370   0.01267  Uiso   1.00
O34    O     0.45430   0.30410   0.40570   0.01267  Uiso   1.00
O35    O     0.52430   0.21510   0.10360   0.01267  Uiso   1.00
O36    O     0.62750   0.15320   0.00930   0.01267  Uiso   1.00
O37    O     0.01070   0.63040   0.28190   0.01267  Uiso   1.00
O38    O     0.15760   0.67520   0.36850   0.01267  Uiso   1.00
O39    O     0.74360   0.30680   0.35670   0.01267  Uiso   1.00
O40    O     0.93460   0.28460   0.41520   0.01267  Uiso   1.00
O41    O     0.26750   0.78600   0.29920   0.01267  Uiso   1.00
O42    O     0.42450   0.81120   0.39410   0.01267  Uiso   1.00
O43    O     0.51990   0.14330   0.29440   0.01267  Uiso   1.00
O44    O     0.63420   0.19090   0.39930   0.01267  Uiso   1.00
O45    O     0.06720   0.67890   0.96630   0.01267  Uiso   1.00
O46    O     0.95430   0.69590   0.09430   0.01267  Uiso   1.00
O47    O     0.02430   0.78490   0.39640   0.01267  Uiso   1.00
O48    O     0.12750   0.84680   0.49070   0.01267  Uiso   1.00
