data_image0
_cell_length_a       21.999
_cell_length_b       21.999
_cell_length_c       16.7023
_cell_angle_alpha    90
_cell_angle_beta     90
_cell_angle_gamma    90

_symmetry_space_group_name_H-M    "P 1"
_symmetry_int_tables_number       1

loop_
  _symmetry_equiv_pos_as_xyz
  'x, y, z'

loop_
  _atom_site_label
  _atom_site_occupancy
  _atom_site_fract_x
  _atom_site_fract_y
  _atom_site_fract_z
  _atom_site_thermal_displace_type
  _atom_site_B_iso_or_equiv
  _atom_site_type_symbol
  Ce1      1.0000 0.82438  0.85859  0.36543  Biso   1.000  Ce
  N1       1.0000 0.86430  0.91770  0.23800  Biso   1.000  N
  O1       1.0000 0.72100  0.93130  0.14280  Biso   1.000  O
  O2       1.0000 0.74910  0.88880  0.25930  Biso   1.000  O
  O3       1.0000 0.01610  0.92260  0.29710  Biso   1.000  O
  O4       1.0000 0.93470  0.88490  0.35700  Biso   1.000  O
  C1       1.0000 0.76000  0.91790  0.19420  Biso   1.000  C
  C2       1.0000 0.82580  0.93540  0.18020  Biso   1.000  C
  C3       1.0000 0.84380  0.96860  0.11430  Biso   1.000  C
  H1       1.0000 0.81600  0.97920  0.07480  Biso   1.000  H
  C4       1.0000 0.90410  0.98590  0.10830  Biso   1.000  C
  H2       1.0000 0.91770  0.00960  0.06580  Biso   1.000  H
  C5       1.0000 0.94450  0.96620  0.16930  Biso   1.000  C
  H3       1.0000 0.98570  0.97510  0.16670  Biso   1.000  H
  C6       1.0000 0.92120  0.93380  0.23170  Biso   1.000  C
  C7       1.0000 0.96130  0.91320  0.30050  Biso   1.000  C
  Ce2      1.0000 0.32438  0.35859  0.86543  Biso   1.000  Ce
  N2       1.0000 0.36430  0.41770  0.73800  Biso   1.000  N
  O5       1.0000 0.22100  0.43130  0.64280  Biso   1.000  O
  O6       1.0000 0.24910  0.38880  0.75930  Biso   1.000  O
  O7       1.0000 0.51610  0.42260  0.79710  Biso   1.000  O
  O8       1.0000 0.43470  0.38490  0.85700  Biso   1.000  O
  C8       1.0000 0.26000  0.41790  0.69420  Biso   1.000  C
  C9       1.0000 0.32580  0.43540  0.68020  Biso   1.000  C
  C10      1.0000 0.34380  0.46860  0.61430  Biso   1.000  C
  H4       1.0000 0.31600  0.47920  0.57480  Biso   1.000  H
  C11      1.0000 0.40410  0.48590  0.60830  Biso   1.000  C
  H5       1.0000 0.41770  0.50960  0.56580  Biso   1.000  H
  C12      1.0000 0.44450  0.46620  0.66930  Biso   1.000  C
  H6       1.0000 0.48570  0.47510  0.66670  Biso   1.000  H
  C13      1.0000 0.42120  0.43380  0.73170  Biso   1.000  C
  C14      1.0000 0.46130  0.41320  0.80050  Biso   1.000  C
  Ce3      1.0000 0.67562  0.14141  0.86543  Biso   1.000  Ce
  N3       1.0000 0.63570  0.08230  0.73800  Biso   1.000  N
  O9       1.0000 0.77900  0.06870  0.64280  Biso   1.000  O
  O10      1.0000 0.75090  0.11120  0.75930  Biso   1.000  O
  O11      1.0000 0.48390  0.07740  0.79710  Biso   1.000  O
  O12      1.0000 0.56530  0.11510  0.85700  Biso   1.000  O
  C15      1.0000 0.74000  0.08210  0.69420  Biso   1.000  C
  C16      1.0000 0.67420  0.06460  0.68020  Biso   1.000  C
  C17      1.0000 0.65620  0.03140  0.61430  Biso   1.000  C
  H7       1.0000 0.68400  0.02080  0.57480  Biso   1.000  H
  C18      1.0000 0.59590  0.01410  0.60830  Biso   1.000  C
  H8       1.0000 0.58230  0.99040  0.56580  Biso   1.000  H
  C19      1.0000 0.55550  0.03380  0.66930  Biso   1.000  C
  H9       1.0000 0.51430  0.02490  0.66670  Biso   1.000  H
  C20      1.0000 0.57880  0.06620  0.73170  Biso   1.000  C
  C21      1.0000 0.53870  0.08680  0.80050  Biso   1.000  C
  Ce4      1.0000 0.17562  0.64141  0.36543  Biso   1.000  Ce
  N4       1.0000 0.13570  0.58230  0.23800  Biso   1.000  N
  O13      1.0000 0.27900  0.56870  0.14280  Biso   1.000  O
  O14      1.0000 0.25090  0.61120  0.25930  Biso   1.000  O
  O15      1.0000 0.98390  0.57740  0.29710  Biso   1.000  O
  O16      1.0000 0.06530  0.61510  0.35700  Biso   1.000  O
  C22      1.0000 0.24000  0.58210  0.19420  Biso   1.000  C
  C23      1.0000 0.17420  0.56460  0.18020  Biso   1.000  C
  C24      1.0000 0.15620  0.53140  0.11430  Biso   1.000  C
  H10      1.0000 0.18400  0.52080  0.07480  Biso   1.000  H
  C25      1.0000 0.09590  0.51410  0.10830  Biso   1.000  C
  H11      1.0000 0.08230  0.49040  0.06580  Biso   1.000  H
  C26      1.0000 0.05550  0.53380  0.16930  Biso   1.000  C
  H12      1.0000 0.01430  0.52490  0.16670  Biso   1.000  H
  C27      1.0000 0.07880  0.56620  0.23170  Biso   1.000  C
  C28      1.0000 0.03870  0.58680  0.30050  Biso   1.000  C
  Ce5      1.0000 0.89141  0.07438  0.61543  Biso   1.000  Ce
  N5       1.0000 0.83230  0.11430  0.48800  Biso   1.000  N
  O17      1.0000 0.81870  0.97100  0.39280  Biso   1.000  O
  O18      1.0000 0.86120  0.99910  0.50930  Biso   1.000  O
  O19      1.0000 0.82740  0.26610  0.54710  Biso   1.000  O
  O20      1.0000 0.86510  0.18470  0.60700  Biso   1.000  O
  C29      1.0000 0.83210  0.01000  0.44420  Biso   1.000  C
  C30      1.0000 0.81460  0.07580  0.43020  Biso   1.000  C
  C31      1.0000 0.78140  0.09380  0.36430  Biso   1.000  C
  H13      1.0000 0.77080  0.06600  0.32480  Biso   1.000  H
  C32      1.0000 0.76410  0.15410  0.35830  Biso   1.000  C
  H14      1.0000 0.74040  0.16770  0.31580  Biso   1.000  H
  C33      1.0000 0.78380  0.19450  0.41930  Biso   1.000  C
  H15      1.0000 0.77490  0.23570  0.41670  Biso   1.000  H
  C34      1.0000 0.81620  0.17120  0.48170  Biso   1.000  C
  C35      1.0000 0.83680  0.21130  0.55050  Biso   1.000  C
  Ce6      1.0000 0.39141  0.57438  0.11543  Biso   1.000  Ce
  N6       1.0000 0.33230  0.61430  0.98800  Biso   1.000  N
  O21      1.0000 0.31870  0.47100  0.89280  Biso   1.000  O
  O22      1.0000 0.36120  0.49910  0.00930  Biso   1.000  O
  O23      1.0000 0.32740  0.76610  0.04710  Biso   1.000  O
  O24      1.0000 0.36510  0.68470  0.10700  Biso   1.000  O
  C36      1.0000 0.33210  0.51000  0.94420  Biso   1.000  C
  C37      1.0000 0.31460  0.57580  0.93020  Biso   1.000  C
  C38      1.0000 0.28140  0.59380  0.86430  Biso   1.000  C
  H16      1.0000 0.27080  0.56600  0.82480  Biso   1.000  H
  C39      1.0000 0.26410  0.65410  0.85830  Biso   1.000  C
  H17      1.0000 0.24040  0.66770  0.81580  Biso   1.000  H
  C40      1.0000 0.28380  0.69450  0.91930  Biso   1.000  C
  H18      1.0000 0.27490  0.73570  0.91670  Biso   1.000  H
  C41      1.0000 0.31620  0.67120  0.98170  Biso   1.000  C
  C42      1.0000 0.33680  0.71130  0.05050  Biso   1.000  C
  Ce7      1.0000 0.60859  0.92562  0.11543  Biso   1.000  Ce
  N7       1.0000 0.66770  0.88570  0.98800  Biso   1.000  N
  O25      1.0000 0.68130  0.02900  0.89280  Biso   1.000  O
  O26      1.0000 0.63880  0.00090  0.00930  Biso   1.000  O
  O27      1.0000 0.67260  0.73390  0.04710  Biso   1.000  O
  O28      1.0000 0.63490  0.81530  0.10700  Biso   1.000  O
  C43      1.0000 0.66790  0.99000  0.94420  Biso   1.000  C
  C44      1.0000 0.68540  0.92420  0.93020  Biso   1.000  C
  C45      1.0000 0.71860  0.90620  0.86430  Biso   1.000  C
  H19      1.0000 0.72920  0.93400  0.82480  Biso   1.000  H
  C46      1.0000 0.73590  0.84590  0.85830  Biso   1.000  C
  H20      1.0000 0.75960  0.83230  0.81580  Biso   1.000  H
  C47      1.0000 0.71620  0.80550  0.91930  Biso   1.000  C
  H21      1.0000 0.72510  0.76430  0.91670  Biso   1.000  H
  C48      1.0000 0.68380  0.82880  0.98170  Biso   1.000  C
  C49      1.0000 0.66320  0.78870  0.05050  Biso   1.000  C
  Ce8      1.0000 0.10859  0.42562  0.61543  Biso   1.000  Ce
  N8       1.0000 0.16770  0.38570  0.48800  Biso   1.000  N
  O29      1.0000 0.18130  0.52900  0.39280  Biso   1.000  O
  O30      1.0000 0.13880  0.50090  0.50930  Biso   1.000  O
  O31      1.0000 0.17260  0.23390  0.54710  Biso   1.000  O
  O32      1.0000 0.13490  0.31530  0.60700  Biso   1.000  O
  C50      1.0000 0.16790  0.49000  0.44420  Biso   1.000  C
  C51      1.0000 0.18540  0.42420  0.43020  Biso   1.000  C
  C52      1.0000 0.21860  0.40620  0.36430  Biso   1.000  C
  H22      1.0000 0.22920  0.43400  0.32480  Biso   1.000  H
  C53      1.0000 0.23590  0.34590  0.35830  Biso   1.000  C
  H23      1.0000 0.25960  0.33230  0.31580  Biso   1.000  H
  C54      1.0000 0.21620  0.30550  0.41930  Biso   1.000  C
  H24      1.0000 0.22510  0.26430  0.41670  Biso   1.000  H
  C55      1.0000 0.18380  0.32880  0.48170  Biso   1.000  C
  C56      1.0000 0.16320  0.28870  0.55050  Biso   1.000  C
  Ce9      1.0000 0.17562  0.14141  0.63457  Biso   1.000  Ce
  N9       1.0000 0.13570  0.08230  0.76200  Biso   1.000  N
  O33      1.0000 0.27900  0.06870  0.85720  Biso   1.000  O
  O34      1.0000 0.25090  0.11120  0.74070  Biso   1.000  O
  O35      1.0000 0.98390  0.07740  0.70290  Biso   1.000  O
  O36      1.0000 0.06530  0.11510  0.64300  Biso   1.000  O
  C57      1.0000 0.24000  0.08210  0.80580  Biso   1.000  C
  C58      1.0000 0.17420  0.06460  0.81980  Biso   1.000  C
  C59      1.0000 0.15620  0.03140  0.88570  Biso   1.000  C
  H25      1.0000 0.18400  0.02080  0.92520  Biso   1.000  H
  C60      1.0000 0.09590  0.01410  0.89170  Biso   1.000  C
  H26      1.0000 0.08230  0.99040  0.93420  Biso   1.000  H
  C61      1.0000 0.05550  0.03380  0.83070  Biso   1.000  C
  H27      1.0000 0.01430  0.02490  0.83330  Biso   1.000  H
  C62      1.0000 0.07880  0.06620  0.76830  Biso   1.000  C
  C63      1.0000 0.03870  0.08680  0.69950  Biso   1.000  C
  Ce10     1.0000 0.67562  0.64141  0.13457  Biso   1.000  Ce
  N10      1.0000 0.63570  0.58230  0.26200  Biso   1.000  N
  O37      1.0000 0.77900  0.56870  0.35720  Biso   1.000  O
  O38      1.0000 0.75090  0.61120  0.24070  Biso   1.000  O
  O39      1.0000 0.48390  0.57740  0.20290  Biso   1.000  O
  O40      1.0000 0.56530  0.61510  0.14300  Biso   1.000  O
  C64      1.0000 0.74000  0.58210  0.30580  Biso   1.000  C
  C65      1.0000 0.67420  0.56460  0.31980  Biso   1.000  C
  C66      1.0000 0.65620  0.53140  0.38570  Biso   1.000  C
  H28      1.0000 0.68400  0.52080  0.42520  Biso   1.000  H
  C67      1.0000 0.59590  0.51410  0.39170  Biso   1.000  C
  H29      1.0000 0.58230  0.49040  0.43420  Biso   1.000  H
  C68      1.0000 0.55550  0.53380  0.33070  Biso   1.000  C
  H30      1.0000 0.51430  0.52490  0.33330  Biso   1.000  H
  C69      1.0000 0.57880  0.56620  0.26830  Biso   1.000  C
  C70      1.0000 0.53870  0.58680  0.19950  Biso   1.000  C
  Ce11     1.0000 0.32438  0.85859  0.13457  Biso   1.000  Ce
  N11      1.0000 0.36430  0.91770  0.26200  Biso   1.000  N
  O41      1.0000 0.22100  0.93130  0.35720  Biso   1.000  O
  O42      1.0000 0.24910  0.88880  0.24070  Biso   1.000  O
  O43      1.0000 0.51610  0.92260  0.20290  Biso   1.000  O
  O44      1.0000 0.43470  0.88490  0.14300  Biso   1.000  O
  C71      1.0000 0.26000  0.91790  0.30580  Biso   1.000  C
  C72      1.0000 0.32580  0.93540  0.31980  Biso   1.000  C
  C73      1.0000 0.34380  0.96860  0.38570  Biso   1.000  C
  H31      1.0000 0.31600  0.97920  0.42520  Biso   1.000  H
  C74      1.0000 0.40410  0.98590  0.39170  Biso   1.000  C
  H32      1.0000 0.41770  0.00960  0.43420  Biso   1.000  H
  C75      1.0000 0.44450  0.96620  0.33070  Biso   1.000  C
  H33      1.0000 0.48570  0.97510  0.33330  Biso   1.000  H
  C76      1.0000 0.42120  0.93380  0.26830  Biso   1.000  C
  C77      1.0000 0.46130  0.91320  0.19950  Biso   1.000  C
  Ce12     1.0000 0.82438  0.35859  0.63457  Biso   1.000  Ce
  N12      1.0000 0.86430  0.41770  0.76200  Biso   1.000  N
  O45      1.0000 0.72100  0.43130  0.85720  Biso   1.000  O
  O46      1.0000 0.74910  0.38880  0.74070  Biso   1.000  O
  O47      1.0000 0.01610  0.42260  0.70290  Biso   1.000  O
  O48      1.0000 0.93470  0.38490  0.64300  Biso   1.000  O
  C78      1.0000 0.76000  0.41790  0.80580  Biso   1.000  C
  C79      1.0000 0.82580  0.43540  0.81980  Biso   1.000  C
  C80      1.0000 0.84380  0.46860  0.88570  Biso   1.000  C
  H34      1.0000 0.81600  0.47920  0.92520  Biso   1.000  H
  C81      1.0000 0.90410  0.48590  0.89170  Biso   1.000  C
  H35      1.0000 0.91770  0.50960  0.93420  Biso   1.000  H
  C82      1.0000 0.94450  0.46620  0.83070  Biso   1.000  C
  H36      1.0000 0.98570  0.47510  0.83330  Biso   1.000  H
  C83      1.0000 0.92120  0.43380  0.76830  Biso   1.000  C
  C84      1.0000 0.96130  0.41320  0.69950  Biso   1.000  C
  Ce13     1.0000 0.10859  0.92562  0.38457  Biso   1.000  Ce
  N13      1.0000 0.16770  0.88570  0.51200  Biso   1.000  N
  O49      1.0000 0.18130  0.02900  0.60720  Biso   1.000  O
  O50      1.0000 0.13880  0.00090  0.49070  Biso   1.000  O
  O51      1.0000 0.17260  0.73390  0.45290  Biso   1.000  O
  O52      1.0000 0.13490  0.81530  0.39300  Biso   1.000  O
  C85      1.0000 0.16790  0.99000  0.55580  Biso   1.000  C
  C86      1.0000 0.18540  0.92420  0.56980  Biso   1.000  C
  C87      1.0000 0.21860  0.90620  0.63570  Biso   1.000  C
  H37      1.0000 0.22920  0.93400  0.67520  Biso   1.000  H
  C88      1.0000 0.23590  0.84590  0.64170  Biso   1.000  C
  H38      1.0000 0.25960  0.83230  0.68420  Biso   1.000  H
  C89      1.0000 0.21620  0.80550  0.58070  Biso   1.000  C
  H39      1.0000 0.22510  0.76430  0.58330  Biso   1.000  H
  C90      1.0000 0.18380  0.82880  0.51830  Biso   1.000  C
  C91      1.0000 0.16320  0.78870  0.44950  Biso   1.000  C
  Ce14     1.0000 0.60859  0.42562  0.88457  Biso   1.000  Ce
  N14      1.0000 0.66770  0.38570  0.01200  Biso   1.000  N
  O53      1.0000 0.68130  0.52900  0.10720  Biso   1.000  O
  O54      1.0000 0.63880  0.50090  0.99070  Biso   1.000  O
  O55      1.0000 0.67260  0.23390  0.95290  Biso   1.000  O
  O56      1.0000 0.63490  0.31530  0.89300  Biso   1.000  O
  C92      1.0000 0.66790  0.49000  0.05580  Biso   1.000  C
  C93      1.0000 0.68540  0.42420  0.06980  Biso   1.000  C
  C94      1.0000 0.71860  0.40620  0.13570  Biso   1.000  C
  H40      1.0000 0.72920  0.43400  0.17520  Biso   1.000  H
  C95      1.0000 0.73590  0.34590  0.14170  Biso   1.000  C
  H41      1.0000 0.75960  0.33230  0.18420  Biso   1.000  H
  C96      1.0000 0.71620  0.30550  0.08070  Biso   1.000  C
  H42      1.0000 0.72510  0.26430  0.08330  Biso   1.000  H
  C97      1.0000 0.68380  0.32880  0.01830  Biso   1.000  C
  C98      1.0000 0.66320  0.28870  0.94950  Biso   1.000  C
  Ce15     1.0000 0.39141  0.07438  0.88457  Biso   1.000  Ce
  N15      1.0000 0.33230  0.11430  0.01200  Biso   1.000  N
  O57      1.0000 0.31870  0.97100  0.10720  Biso   1.000  O
  O58      1.0000 0.36120  0.99910  0.99070  Biso   1.000  O
  O59      1.0000 0.32740  0.26610  0.95290  Biso   1.000  O
  O60      1.0000 0.36510  0.18470  0.89300  Biso   1.000  O
  C99      1.0000 0.33210  0.01000  0.05580  Biso   1.000  C
  C100     1.0000 0.31460  0.07580  0.06980  Biso   1.000  C
  C101     1.0000 0.28140  0.09380  0.13570  Biso   1.000  C
  H43      1.0000 0.27080  0.06600  0.17520  Biso   1.000  H
  C102     1.0000 0.26410  0.15410  0.14170  Biso   1.000  C
  H44      1.0000 0.24040  0.16770  0.18420  Biso   1.000  H
  C103     1.0000 0.28380  0.19450  0.08070  Biso   1.000  C
  H45      1.0000 0.27490  0.23570  0.08330  Biso   1.000  H
  C104     1.0000 0.31620  0.17120  0.01830  Biso   1.000  C
  C105     1.0000 0.33680  0.21130  0.94950  Biso   1.000  C
  Ce16     1.0000 0.89141  0.57438  0.38457  Biso   1.000  Ce
  N16      1.0000 0.83230  0.61430  0.51200  Biso   1.000  N
  O61      1.0000 0.81870  0.47100  0.60720  Biso   1.000  O
  O62      1.0000 0.86120  0.49910  0.49070  Biso   1.000  O
  O63      1.0000 0.82740  0.76610  0.45290  Biso   1.000  O
  O64      1.0000 0.86510  0.68470  0.39300  Biso   1.000  O
  C106     1.0000 0.83210  0.51000  0.55580  Biso   1.000  C
  C107     1.0000 0.81460  0.57580  0.56980  Biso   1.000  C
  C108     1.0000 0.78140  0.59380  0.63570  Biso   1.000  C
  H46      1.0000 0.77080  0.56600  0.67520  Biso   1.000  H
  C109     1.0000 0.76410  0.65410  0.64170  Biso   1.000  C
  H47      1.0000 0.74040  0.66770  0.68420  Biso   1.000  H
  C110     1.0000 0.78380  0.69450  0.58070  Biso   1.000  C
  H48      1.0000 0.77490  0.73570  0.58330  Biso   1.000  H
  C111     1.0000 0.81620  0.67120  0.51830  Biso   1.000  C
  C112     1.0000 0.83680  0.71130  0.44950  Biso   1.000  C
