data_image0
_cell_length_a       21.917
_cell_length_b       21.917
_cell_length_c       16.5868
_cell_angle_alpha    90
_cell_angle_beta     90
_cell_angle_gamma    90

_symmetry_space_group_name_H-M    "P 1"
_symmetry_int_tables_number       1

loop_
  _symmetry_equiv_pos_as_xyz
  'x, y, z'

loop_
  _atom_site_label
  _atom_site_occupancy
  _atom_site_fract_x
  _atom_site_fract_y
  _atom_site_fract_z
  _atom_site_thermal_displace_type
  _atom_site_B_iso_or_equiv
  _atom_site_type_symbol
  Nd1      1.0000 0.88894  0.42493  0.11504  Biso   1.000  Nd
  N1       1.0000 0.83150  0.38540  0.98830  Biso   1.000  N
  O1       1.0000 0.86260  0.31690  0.11190  Biso   1.000  O
  O2       1.0000 0.82450  0.23260  0.05150  Biso   1.000  O
  O3       1.0000 0.85930  0.50090  0.01130  Biso   1.000  O
  O4       1.0000 0.81710  0.52860  0.89380  Biso   1.000  O
  C1       1.0000 0.83200  0.28820  0.05330  Biso   1.000  C
  C2       1.0000 0.81420  0.32670  0.98460  Biso   1.000  C
  C3       1.0000 0.77950  0.30360  0.91730  Biso   1.000  C
  H1       1.0000 0.76870  0.26260  0.91390  Biso   1.000  H
  C4       1.0000 0.76340  0.34390  0.85910  Biso   1.000  C
  H2       1.0000 0.73970  0.33070  0.81600  Biso   1.000  H
  C5       1.0000 0.78200  0.40550  0.86310  Biso   1.000  C
  H3       1.0000 0.77280  0.43290  0.82210  Biso   1.000  H
  C6       1.0000 0.81410  0.42300  0.93010  Biso   1.000  C
  C7       1.0000 0.83120  0.49060  0.94490  Biso   1.000  C
  Nd2      1.0000 0.38894  0.92493  0.61504  Biso   1.000  Nd
  N2       1.0000 0.33150  0.88540  0.48830  Biso   1.000  N
  O5       1.0000 0.36260  0.81690  0.61190  Biso   1.000  O
  O6       1.0000 0.32450  0.73260  0.55150  Biso   1.000  O
  O7       1.0000 0.35930  0.00090  0.51130  Biso   1.000  O
  O8       1.0000 0.31710  0.02860  0.39380  Biso   1.000  O
  C8       1.0000 0.33200  0.78820  0.55330  Biso   1.000  C
  C9       1.0000 0.31420  0.82670  0.48460  Biso   1.000  C
  C10      1.0000 0.27950  0.80360  0.41730  Biso   1.000  C
  H4       1.0000 0.26870  0.76260  0.41390  Biso   1.000  H
  C11      1.0000 0.26340  0.84390  0.35910  Biso   1.000  C
  H5       1.0000 0.23970  0.83070  0.31600  Biso   1.000  H
  C12      1.0000 0.28200  0.90550  0.36310  Biso   1.000  C
  H6       1.0000 0.27280  0.93290  0.32210  Biso   1.000  H
  C13      1.0000 0.31410  0.92300  0.43010  Biso   1.000  C
  C14      1.0000 0.33120  0.99060  0.44490  Biso   1.000  C
  Nd3      1.0000 0.61106  0.57507  0.61504  Biso   1.000  Nd
  N3       1.0000 0.66850  0.61460  0.48830  Biso   1.000  N
  O9       1.0000 0.63740  0.68310  0.61190  Biso   1.000  O
  O10      1.0000 0.67550  0.76740  0.55150  Biso   1.000  O
  O11      1.0000 0.64070  0.49910  0.51130  Biso   1.000  O
  O12      1.0000 0.68290  0.47140  0.39380  Biso   1.000  O
  C15      1.0000 0.66800  0.71180  0.55330  Biso   1.000  C
  C16      1.0000 0.68580  0.67330  0.48460  Biso   1.000  C
  C17      1.0000 0.72050  0.69640  0.41730  Biso   1.000  C
  H7       1.0000 0.73130  0.73740  0.41390  Biso   1.000  H
  C18      1.0000 0.73660  0.65610  0.35910  Biso   1.000  C
  H8       1.0000 0.76030  0.66930  0.31600  Biso   1.000  H
  C19      1.0000 0.71800  0.59450  0.36310  Biso   1.000  C
  H9       1.0000 0.72720  0.56710  0.32210  Biso   1.000  H
  C20      1.0000 0.68590  0.57700  0.43010  Biso   1.000  C
  C21      1.0000 0.66880  0.50940  0.44490  Biso   1.000  C
  Nd4      1.0000 0.11106  0.07507  0.11504  Biso   1.000  Nd
  N4       1.0000 0.16850  0.11460  0.98830  Biso   1.000  N
  O13      1.0000 0.13740  0.18310  0.11190  Biso   1.000  O
  O14      1.0000 0.17550  0.26740  0.05150  Biso   1.000  O
  O15      1.0000 0.14070  0.99910  0.01130  Biso   1.000  O
  O16      1.0000 0.18290  0.97140  0.89380  Biso   1.000  O
  C22      1.0000 0.16800  0.21180  0.05330  Biso   1.000  C
  C23      1.0000 0.18580  0.17330  0.98460  Biso   1.000  C
  C24      1.0000 0.22050  0.19640  0.91730  Biso   1.000  C
  H10      1.0000 0.23130  0.23740  0.91390  Biso   1.000  H
  C25      1.0000 0.23660  0.15610  0.85910  Biso   1.000  C
  H11      1.0000 0.26030  0.16930  0.81600  Biso   1.000  H
  C26      1.0000 0.21800  0.09450  0.86310  Biso   1.000  C
  H12      1.0000 0.22720  0.06710  0.82210  Biso   1.000  H
  C27      1.0000 0.18590  0.07700  0.93010  Biso   1.000  C
  C28      1.0000 0.16880  0.00940  0.94490  Biso   1.000  C
  Nd5      1.0000 0.32507  0.13894  0.36504  Biso   1.000  Nd
  N5       1.0000 0.36460  0.08150  0.23830  Biso   1.000  N
  O17      1.0000 0.43310  0.11260  0.36190  Biso   1.000  O
  O18      1.0000 0.51740  0.07450  0.30150  Biso   1.000  O
  O19      1.0000 0.24910  0.10930  0.26130  Biso   1.000  O
  O20      1.0000 0.22140  0.06710  0.14380  Biso   1.000  O
  C29      1.0000 0.46180  0.08200  0.30330  Biso   1.000  C
  C30      1.0000 0.42330  0.06420  0.23460  Biso   1.000  C
  C31      1.0000 0.44640  0.02950  0.16730  Biso   1.000  C
  H13      1.0000 0.48740  0.01870  0.16390  Biso   1.000  H
  C32      1.0000 0.40610  0.01340  0.10910  Biso   1.000  C
  H14      1.0000 0.41930  0.98970  0.06600  Biso   1.000  H
  C33      1.0000 0.34450  0.03200  0.11310  Biso   1.000  C
  H15      1.0000 0.31710  0.02280  0.07210  Biso   1.000  H
  C34      1.0000 0.32700  0.06410  0.18010  Biso   1.000  C
  C35      1.0000 0.25940  0.08120  0.19490  Biso   1.000  C
  Nd6      1.0000 0.82507  0.63894  0.86504  Biso   1.000  Nd
  N6       1.0000 0.86460  0.58150  0.73830  Biso   1.000  N
  O21      1.0000 0.93310  0.61260  0.86190  Biso   1.000  O
  O22      1.0000 0.01740  0.57450  0.80150  Biso   1.000  O
  O23      1.0000 0.74910  0.60930  0.76130  Biso   1.000  O
  O24      1.0000 0.72140  0.56710  0.64380  Biso   1.000  O
  C36      1.0000 0.96180  0.58200  0.80330  Biso   1.000  C
  C37      1.0000 0.92330  0.56420  0.73460  Biso   1.000  C
  C38      1.0000 0.94640  0.52950  0.66730  Biso   1.000  C
  H16      1.0000 0.98740  0.51870  0.66390  Biso   1.000  H
  C39      1.0000 0.90610  0.51340  0.60910  Biso   1.000  C
  H17      1.0000 0.91930  0.48970  0.56600  Biso   1.000  H
  C40      1.0000 0.84450  0.53200  0.61310  Biso   1.000  C
  H18      1.0000 0.81710  0.52280  0.57210  Biso   1.000  H
  C41      1.0000 0.82700  0.56410  0.68010  Biso   1.000  C
  C42      1.0000 0.75940  0.58120  0.69490  Biso   1.000  C
  Nd7      1.0000 0.17493  0.86106  0.86504  Biso   1.000  Nd
  N7       1.0000 0.13540  0.91850  0.73830  Biso   1.000  N
  O25      1.0000 0.06690  0.88740  0.86190  Biso   1.000  O
  O26      1.0000 0.98260  0.92550  0.80150  Biso   1.000  O
  O27      1.0000 0.25090  0.89070  0.76130  Biso   1.000  O
  O28      1.0000 0.27860  0.93290  0.64380  Biso   1.000  O
  C43      1.0000 0.03820  0.91800  0.80330  Biso   1.000  C
  C44      1.0000 0.07670  0.93580  0.73460  Biso   1.000  C
  C45      1.0000 0.05360  0.97050  0.66730  Biso   1.000  C
  H19      1.0000 0.01260  0.98130  0.66390  Biso   1.000  H
  C46      1.0000 0.09390  0.98660  0.60910  Biso   1.000  C
  H20      1.0000 0.08070  0.01030  0.56600  Biso   1.000  H
  C47      1.0000 0.15550  0.96800  0.61310  Biso   1.000  C
  H21      1.0000 0.18290  0.97720  0.57210  Biso   1.000  H
  C48      1.0000 0.17300  0.93590  0.68010  Biso   1.000  C
  C49      1.0000 0.24060  0.91880  0.69490  Biso   1.000  C
  Nd8      1.0000 0.67493  0.36106  0.36504  Biso   1.000  Nd
  N8       1.0000 0.63540  0.41850  0.23830  Biso   1.000  N
  O29      1.0000 0.56690  0.38740  0.36190  Biso   1.000  O
  O30      1.0000 0.48260  0.42550  0.30150  Biso   1.000  O
  O31      1.0000 0.75090  0.39070  0.26130  Biso   1.000  O
  O32      1.0000 0.77860  0.43290  0.14380  Biso   1.000  O
  C50      1.0000 0.53820  0.41800  0.30330  Biso   1.000  C
  C51      1.0000 0.57670  0.43580  0.23460  Biso   1.000  C
  C52      1.0000 0.55360  0.47050  0.16730  Biso   1.000  C
  H22      1.0000 0.51260  0.48130  0.16390  Biso   1.000  H
  C53      1.0000 0.59390  0.48660  0.10910  Biso   1.000  C
  H23      1.0000 0.58070  0.51030  0.06600  Biso   1.000  H
  C54      1.0000 0.65550  0.46800  0.11310  Biso   1.000  C
  H24      1.0000 0.68290  0.47720  0.07210  Biso   1.000  H
  C55      1.0000 0.67300  0.43590  0.18010  Biso   1.000  C
  C56      1.0000 0.74060  0.41880  0.19490  Biso   1.000  C
  Nd9      1.0000 0.11106  0.57507  0.88496  Biso   1.000  Nd
  N9       1.0000 0.16850  0.61460  0.01170  Biso   1.000  N
  O33      1.0000 0.13740  0.68310  0.88810  Biso   1.000  O
  O34      1.0000 0.17550  0.76740  0.94850  Biso   1.000  O
  O35      1.0000 0.14070  0.49910  0.98870  Biso   1.000  O
  O36      1.0000 0.18290  0.47140  0.10620  Biso   1.000  O
  C57      1.0000 0.16800  0.71180  0.94670  Biso   1.000  C
  C58      1.0000 0.18580  0.67330  0.01540  Biso   1.000  C
  C59      1.0000 0.22050  0.69640  0.08270  Biso   1.000  C
  H25      1.0000 0.23130  0.73740  0.08610  Biso   1.000  H
  C60      1.0000 0.23660  0.65610  0.14090  Biso   1.000  C
  H26      1.0000 0.26030  0.66930  0.18400  Biso   1.000  H
  C61      1.0000 0.21800  0.59450  0.13690  Biso   1.000  C
  H27      1.0000 0.22720  0.56710  0.17790  Biso   1.000  H
  C62      1.0000 0.18590  0.57700  0.06990  Biso   1.000  C
  C63      1.0000 0.16880  0.50940  0.05510  Biso   1.000  C
  Nd10     1.0000 0.61106  0.07507  0.38496  Biso   1.000  Nd
  N10      1.0000 0.66850  0.11460  0.51170  Biso   1.000  N
  O37      1.0000 0.63740  0.18310  0.38810  Biso   1.000  O
  O38      1.0000 0.67550  0.26740  0.44850  Biso   1.000  O
  O39      1.0000 0.64070  0.99910  0.48870  Biso   1.000  O
  O40      1.0000 0.68290  0.97140  0.60620  Biso   1.000  O
  C64      1.0000 0.66800  0.21180  0.44670  Biso   1.000  C
  C65      1.0000 0.68580  0.17330  0.51540  Biso   1.000  C
  C66      1.0000 0.72050  0.19640  0.58270  Biso   1.000  C
  H28      1.0000 0.73130  0.23740  0.58610  Biso   1.000  H
  C67      1.0000 0.73660  0.15610  0.64090  Biso   1.000  C
  H29      1.0000 0.76030  0.16930  0.68400  Biso   1.000  H
  C68      1.0000 0.71800  0.09450  0.63690  Biso   1.000  C
  H30      1.0000 0.72720  0.06710  0.67790  Biso   1.000  H
  C69      1.0000 0.68590  0.07700  0.56990  Biso   1.000  C
  C70      1.0000 0.66880  0.00940  0.55510  Biso   1.000  C
  Nd11     1.0000 0.38894  0.42493  0.38496  Biso   1.000  Nd
  N11      1.0000 0.33150  0.38540  0.51170  Biso   1.000  N
  O41      1.0000 0.36260  0.31690  0.38810  Biso   1.000  O
  O42      1.0000 0.32450  0.23260  0.44850  Biso   1.000  O
  O43      1.0000 0.35930  0.50090  0.48870  Biso   1.000  O
  O44      1.0000 0.31710  0.52860  0.60620  Biso   1.000  O
  C71      1.0000 0.33200  0.28820  0.44670  Biso   1.000  C
  C72      1.0000 0.31420  0.32670  0.51540  Biso   1.000  C
  C73      1.0000 0.27950  0.30360  0.58270  Biso   1.000  C
  H31      1.0000 0.26870  0.26260  0.58610  Biso   1.000  H
  C74      1.0000 0.26340  0.34390  0.64090  Biso   1.000  C
  H32      1.0000 0.23970  0.33070  0.68400  Biso   1.000  H
  C75      1.0000 0.28200  0.40550  0.63690  Biso   1.000  C
  H33      1.0000 0.27280  0.43290  0.67790  Biso   1.000  H
  C76      1.0000 0.31410  0.42300  0.56990  Biso   1.000  C
  C77      1.0000 0.33120  0.49060  0.55510  Biso   1.000  C
  Nd12     1.0000 0.88894  0.92493  0.88496  Biso   1.000  Nd
  N12      1.0000 0.83150  0.88540  0.01170  Biso   1.000  N
  O45      1.0000 0.86260  0.81690  0.88810  Biso   1.000  O
  O46      1.0000 0.82450  0.73260  0.94850  Biso   1.000  O
  O47      1.0000 0.85930  0.00090  0.98870  Biso   1.000  O
  O48      1.0000 0.81710  0.02860  0.10620  Biso   1.000  O
  C78      1.0000 0.83200  0.78820  0.94670  Biso   1.000  C
  C79      1.0000 0.81420  0.82670  0.01540  Biso   1.000  C
  C80      1.0000 0.77950  0.80360  0.08270  Biso   1.000  C
  H34      1.0000 0.76870  0.76260  0.08610  Biso   1.000  H
  C81      1.0000 0.76340  0.84390  0.14090  Biso   1.000  C
  H35      1.0000 0.73970  0.83070  0.18400  Biso   1.000  H
  C82      1.0000 0.78200  0.90550  0.13690  Biso   1.000  C
  H36      1.0000 0.77280  0.93290  0.17790  Biso   1.000  H
  C83      1.0000 0.81410  0.92300  0.06990  Biso   1.000  C
  C84      1.0000 0.83120  0.99060  0.05510  Biso   1.000  C
  Nd13     1.0000 0.67493  0.86106  0.63496  Biso   1.000  Nd
  N13      1.0000 0.63540  0.91850  0.76170  Biso   1.000  N
  O49      1.0000 0.56690  0.88740  0.63810  Biso   1.000  O
  O50      1.0000 0.48260  0.92550  0.69850  Biso   1.000  O
  O51      1.0000 0.75090  0.89070  0.73870  Biso   1.000  O
  O52      1.0000 0.77860  0.93290  0.85620  Biso   1.000  O
  C85      1.0000 0.53820  0.91800  0.69670  Biso   1.000  C
  C86      1.0000 0.57670  0.93580  0.76540  Biso   1.000  C
  C87      1.0000 0.55360  0.97050  0.83270  Biso   1.000  C
  H37      1.0000 0.51260  0.98130  0.83610  Biso   1.000  H
  C88      1.0000 0.59390  0.98660  0.89090  Biso   1.000  C
  H38      1.0000 0.58070  0.01030  0.93400  Biso   1.000  H
  C89      1.0000 0.65550  0.96800  0.88690  Biso   1.000  C
  H39      1.0000 0.68290  0.97720  0.92790  Biso   1.000  H
  C90      1.0000 0.67300  0.93590  0.81990  Biso   1.000  C
  C91      1.0000 0.74060  0.91880  0.80510  Biso   1.000  C
  Nd14     1.0000 0.17493  0.36106  0.13496  Biso   1.000  Nd
  N14      1.0000 0.13540  0.41850  0.26170  Biso   1.000  N
  O53      1.0000 0.06690  0.38740  0.13810  Biso   1.000  O
  O54      1.0000 0.98260  0.42550  0.19850  Biso   1.000  O
  O55      1.0000 0.25090  0.39070  0.23870  Biso   1.000  O
  O56      1.0000 0.27860  0.43290  0.35620  Biso   1.000  O
  C92      1.0000 0.03820  0.41800  0.19670  Biso   1.000  C
  C93      1.0000 0.07670  0.43580  0.26540  Biso   1.000  C
  C94      1.0000 0.05360  0.47050  0.33270  Biso   1.000  C
  H40      1.0000 0.01260  0.48130  0.33610  Biso   1.000  H
  C95      1.0000 0.09390  0.48660  0.39090  Biso   1.000  C
  H41      1.0000 0.08070  0.51030  0.43400  Biso   1.000  H
  C96      1.0000 0.15550  0.46800  0.38690  Biso   1.000  C
  H42      1.0000 0.18290  0.47720  0.42790  Biso   1.000  H
  C97      1.0000 0.17300  0.43590  0.31990  Biso   1.000  C
  C98      1.0000 0.24060  0.41880  0.30510  Biso   1.000  C
  Nd15     1.0000 0.82507  0.13894  0.13496  Biso   1.000  Nd
  N15      1.0000 0.86460  0.08150  0.26170  Biso   1.000  N
  O57      1.0000 0.93310  0.11260  0.13810  Biso   1.000  O
  O58      1.0000 0.01740  0.07450  0.19850  Biso   1.000  O
  O59      1.0000 0.74910  0.10930  0.23870  Biso   1.000  O
  O60      1.0000 0.72140  0.06710  0.35620  Biso   1.000  O
  C99      1.0000 0.96180  0.08200  0.19670  Biso   1.000  C
  C100     1.0000 0.92330  0.06420  0.26540  Biso   1.000  C
  C101     1.0000 0.94640  0.02950  0.33270  Biso   1.000  C
  H43      1.0000 0.98740  0.01870  0.33610  Biso   1.000  H
  C102     1.0000 0.90610  0.01340  0.39090  Biso   1.000  C
  H44      1.0000 0.91930  0.98970  0.43400  Biso   1.000  H
  C103     1.0000 0.84450  0.03200  0.38690  Biso   1.000  C
  H45      1.0000 0.81710  0.02280  0.42790  Biso   1.000  H
  C104     1.0000 0.82700  0.06410  0.31990  Biso   1.000  C
  C105     1.0000 0.75940  0.08120  0.30510  Biso   1.000  C
  Nd16     1.0000 0.32507  0.63894  0.63496  Biso   1.000  Nd
  N16      1.0000 0.36460  0.58150  0.76170  Biso   1.000  N
  O61      1.0000 0.43310  0.61260  0.63810  Biso   1.000  O
  O62      1.0000 0.51740  0.57450  0.69850  Biso   1.000  O
  O63      1.0000 0.24910  0.60930  0.73870  Biso   1.000  O
  O64      1.0000 0.22140  0.56710  0.85620  Biso   1.000  O
  C106     1.0000 0.46180  0.58200  0.69670  Biso   1.000  C
  C107     1.0000 0.42330  0.56420  0.76540  Biso   1.000  C
  C108     1.0000 0.44640  0.52950  0.83270  Biso   1.000  C
  H46      1.0000 0.48740  0.51870  0.83610  Biso   1.000  H
  C109     1.0000 0.40610  0.51340  0.89090  Biso   1.000  C
  H47      1.0000 0.41930  0.48970  0.93400  Biso   1.000  H
  C110     1.0000 0.34450  0.53200  0.88690  Biso   1.000  C
  H48      1.0000 0.31710  0.52280  0.92790  Biso   1.000  H
  C111     1.0000 0.32700  0.56410  0.81990  Biso   1.000  C
  C112     1.0000 0.25940  0.58120  0.80510  Biso   1.000  C
