data_image0
_cell_length_a       21.8937
_cell_length_b       21.8937
_cell_length_c       16.7687
_cell_angle_alpha    90
_cell_angle_beta     90
_cell_angle_gamma    90

_symmetry_space_group_name_H-M    "P 1"
_symmetry_int_tables_number       1

loop_
  _symmetry_equiv_pos_as_xyz
  'x, y, z'

loop_
  _atom_site_label
  _atom_site_occupancy
  _atom_site_fract_x
  _atom_site_fract_y
  _atom_site_fract_z
  _atom_site_thermal_displace_type
  _atom_site_B_iso_or_equiv
  _atom_site_type_symbol
  La1      1.0000 0.82020  0.35795  0.63752  Biso   1.000  La
  N1       1.0000 0.86290  0.41710  0.76500  Biso   1.000  N
  O1       1.0000 0.72120  0.43070  0.86270  Biso   1.000  O
  O2       1.0000 0.74740  0.38900  0.74590  Biso   1.000  O
  O3       1.0000 0.93220  0.38350  0.64420  Biso   1.000  O
  O4       1.0000 0.01470  0.42470  0.70020  Biso   1.000  O
  O5       1.0000 0.72150  0.38340  0.55680  Biso   1.000  O
  H1       1.0000 0.72540  0.42060  0.53960  Biso   1.000  H
  H2       1.0000 0.73230  0.36070  0.51780  Biso   1.000  H
  C1       1.0000 0.75930  0.41710  0.81060  Biso   1.000  C
  C2       1.0000 0.82470  0.43470  0.82350  Biso   1.000  C
  C3       1.0000 0.84500  0.46750  0.88700  Biso   1.000  C
  H3       1.0000 0.81790  0.47910  0.92700  Biso   1.000  H
  C4       1.0000 0.90570  0.48360  0.89210  Biso   1.000  C
  H4       1.0000 0.92010  0.50590  0.93540  Biso   1.000  H
  C5       1.0000 0.94500  0.46580  0.83130  Biso   1.000  C
  H5       1.0000 0.98620  0.47610  0.83290  Biso   1.000  H
  C6       1.0000 0.92160  0.43280  0.76860  Biso   1.000  C
  C7       1.0000 0.95930  0.41210  0.69850  Biso   1.000  C
  La2      1.0000 0.32020  0.85795  0.13752  Biso   1.000  La
  N2       1.0000 0.36290  0.91710  0.26500  Biso   1.000  N
  O6       1.0000 0.22120  0.93070  0.36270  Biso   1.000  O
  O7       1.0000 0.24740  0.88900  0.24590  Biso   1.000  O
  O8       1.0000 0.43220  0.88350  0.14420  Biso   1.000  O
  O9       1.0000 0.51470  0.92470  0.20020  Biso   1.000  O
  O10      1.0000 0.22150  0.88340  0.05680  Biso   1.000  O
  H6       1.0000 0.22540  0.92060  0.03960  Biso   1.000  H
  H7       1.0000 0.23230  0.86070  0.01780  Biso   1.000  H
  C8       1.0000 0.25930  0.91710  0.31060  Biso   1.000  C
  C9       1.0000 0.32470  0.93470  0.32350  Biso   1.000  C
  C10      1.0000 0.34500  0.96750  0.38700  Biso   1.000  C
  H8       1.0000 0.31790  0.97910  0.42700  Biso   1.000  H
  C11      1.0000 0.40570  0.98360  0.39210  Biso   1.000  C
  H9       1.0000 0.42010  0.00590  0.43540  Biso   1.000  H
  C12      1.0000 0.44500  0.96580  0.33130  Biso   1.000  C
  H10      1.0000 0.48620  0.97610  0.33290  Biso   1.000  H
  C13      1.0000 0.42160  0.93280  0.26860  Biso   1.000  C
  C14      1.0000 0.45930  0.91210  0.19850  Biso   1.000  C
  La3      1.0000 0.67980  0.64205  0.13752  Biso   1.000  La
  N3       1.0000 0.63710  0.58290  0.26500  Biso   1.000  N
  O11      1.0000 0.77880  0.56930  0.36270  Biso   1.000  O
  O12      1.0000 0.75260  0.61100  0.24590  Biso   1.000  O
  O13      1.0000 0.56780  0.61650  0.14420  Biso   1.000  O
  O14      1.0000 0.48530  0.57530  0.20020  Biso   1.000  O
  O15      1.0000 0.77850  0.61660  0.05680  Biso   1.000  O
  H11      1.0000 0.77460  0.57940  0.03960  Biso   1.000  H
  H12      1.0000 0.76770  0.63930  0.01780  Biso   1.000  H
  C15      1.0000 0.74070  0.58290  0.31060  Biso   1.000  C
  C16      1.0000 0.67530  0.56530  0.32350  Biso   1.000  C
  C17      1.0000 0.65500  0.53250  0.38700  Biso   1.000  C
  H13      1.0000 0.68210  0.52090  0.42700  Biso   1.000  H
  C18      1.0000 0.59430  0.51640  0.39210  Biso   1.000  C
  H14      1.0000 0.57990  0.49410  0.43540  Biso   1.000  H
  C19      1.0000 0.55500  0.53420  0.33130  Biso   1.000  C
  H15      1.0000 0.51380  0.52390  0.33290  Biso   1.000  H
  C20      1.0000 0.57840  0.56720  0.26860  Biso   1.000  C
  C21      1.0000 0.54070  0.58790  0.19850  Biso   1.000  C
  La4      1.0000 0.17980  0.14205  0.63752  Biso   1.000  La
  N4       1.0000 0.13710  0.08290  0.76500  Biso   1.000  N
  O16      1.0000 0.27880  0.06930  0.86270  Biso   1.000  O
  O17      1.0000 0.25260  0.11100  0.74590  Biso   1.000  O
  O18      1.0000 0.06780  0.11650  0.64420  Biso   1.000  O
  O19      1.0000 0.98530  0.07530  0.70020  Biso   1.000  O
  O20      1.0000 0.27850  0.11660  0.55680  Biso   1.000  O
  H16      1.0000 0.27460  0.07940  0.53960  Biso   1.000  H
  H17      1.0000 0.26770  0.13930  0.51780  Biso   1.000  H
  C22      1.0000 0.24070  0.08290  0.81060  Biso   1.000  C
  C23      1.0000 0.17530  0.06530  0.82350  Biso   1.000  C
  C24      1.0000 0.15500  0.03250  0.88700  Biso   1.000  C
  H18      1.0000 0.18210  0.02090  0.92700  Biso   1.000  H
  C25      1.0000 0.09430  0.01640  0.89210  Biso   1.000  C
  H19      1.0000 0.07990  0.99410  0.93540  Biso   1.000  H
  C26      1.0000 0.05500  0.03420  0.83130  Biso   1.000  C
  H20      1.0000 0.01380  0.02390  0.83290  Biso   1.000  H
  C27      1.0000 0.07840  0.06720  0.76860  Biso   1.000  C
  C28      1.0000 0.04070  0.08790  0.69850  Biso   1.000  C
  La5      1.0000 0.39205  0.07020  0.88752  Biso   1.000  La
  N5       1.0000 0.33290  0.11290  0.01500  Biso   1.000  N
  O21      1.0000 0.31930  0.97120  0.11270  Biso   1.000  O
  O22      1.0000 0.36100  0.99740  0.99590  Biso   1.000  O
  O23      1.0000 0.36650  0.18220  0.89420  Biso   1.000  O
  O24      1.0000 0.32530  0.26470  0.95020  Biso   1.000  O
  O25      1.0000 0.36660  0.97150  0.80680  Biso   1.000  O
  H21      1.0000 0.32940  0.97540  0.78960  Biso   1.000  H
  H22      1.0000 0.38930  0.98230  0.76780  Biso   1.000  H
  C29      1.0000 0.33290  0.00930  0.06060  Biso   1.000  C
  C30      1.0000 0.31530  0.07470  0.07350  Biso   1.000  C
  C31      1.0000 0.28250  0.09500  0.13700  Biso   1.000  C
  H23      1.0000 0.27090  0.06790  0.17700  Biso   1.000  H
  C32      1.0000 0.26640  0.15570  0.14210  Biso   1.000  C
  H24      1.0000 0.24410  0.17010  0.18540  Biso   1.000  H
  C33      1.0000 0.28420  0.19500  0.08130  Biso   1.000  C
  H25      1.0000 0.27390  0.23620  0.08290  Biso   1.000  H
  C34      1.0000 0.31720  0.17160  0.01860  Biso   1.000  C
  C35      1.0000 0.33790  0.20930  0.94850  Biso   1.000  C
  La6      1.0000 0.89205  0.57020  0.38752  Biso   1.000  La
  N6       1.0000 0.83290  0.61290  0.51500  Biso   1.000  N
  O26      1.0000 0.81930  0.47120  0.61270  Biso   1.000  O
  O27      1.0000 0.86100  0.49740  0.49590  Biso   1.000  O
  O28      1.0000 0.86650  0.68220  0.39420  Biso   1.000  O
  O29      1.0000 0.82530  0.76470  0.45020  Biso   1.000  O
  O30      1.0000 0.86660  0.47150  0.30680  Biso   1.000  O
  H26      1.0000 0.82940  0.47540  0.28960  Biso   1.000  H
  H27      1.0000 0.88930  0.48230  0.26780  Biso   1.000  H
  C36      1.0000 0.83290  0.50930  0.56060  Biso   1.000  C
  C37      1.0000 0.81530  0.57470  0.57350  Biso   1.000  C
  C38      1.0000 0.78250  0.59500  0.63700  Biso   1.000  C
  H28      1.0000 0.77090  0.56790  0.67700  Biso   1.000  H
  C39      1.0000 0.76640  0.65570  0.64210  Biso   1.000  C
  H29      1.0000 0.74410  0.67010  0.68540  Biso   1.000  H
  C40      1.0000 0.78420  0.69500  0.58130  Biso   1.000  C
  H30      1.0000 0.77390  0.73620  0.58290  Biso   1.000  H
  C41      1.0000 0.81720  0.67160  0.51860  Biso   1.000  C
  C42      1.0000 0.83790  0.70930  0.44850  Biso   1.000  C
  La7      1.0000 0.10795  0.92980  0.38752  Biso   1.000  La
  N7       1.0000 0.16710  0.88710  0.51500  Biso   1.000  N
  O31      1.0000 0.18070  0.02880  0.61270  Biso   1.000  O
  O32      1.0000 0.13900  0.00260  0.49590  Biso   1.000  O
  O33      1.0000 0.13350  0.81780  0.39420  Biso   1.000  O
  O34      1.0000 0.17470  0.73530  0.45020  Biso   1.000  O
  O35      1.0000 0.13340  0.02850  0.30680  Biso   1.000  O
  H31      1.0000 0.17060  0.02460  0.28960  Biso   1.000  H
  H32      1.0000 0.11070  0.01770  0.26780  Biso   1.000  H
  C43      1.0000 0.16710  0.99070  0.56060  Biso   1.000  C
  C44      1.0000 0.18470  0.92530  0.57350  Biso   1.000  C
  C45      1.0000 0.21750  0.90500  0.63700  Biso   1.000  C
  H33      1.0000 0.22910  0.93210  0.67700  Biso   1.000  H
  C46      1.0000 0.23360  0.84430  0.64210  Biso   1.000  C
  H34      1.0000 0.25590  0.82990  0.68540  Biso   1.000  H
  C47      1.0000 0.21580  0.80500  0.58130  Biso   1.000  C
  H35      1.0000 0.22610  0.76380  0.58290  Biso   1.000  H
  C48      1.0000 0.18280  0.82840  0.51860  Biso   1.000  C
  C49      1.0000 0.16210  0.79070  0.44850  Biso   1.000  C
  La8      1.0000 0.60795  0.42980  0.88752  Biso   1.000  La
  N8       1.0000 0.66710  0.38710  0.01500  Biso   1.000  N
  O36      1.0000 0.68070  0.52880  0.11270  Biso   1.000  O
  O37      1.0000 0.63900  0.50260  0.99590  Biso   1.000  O
  O38      1.0000 0.63350  0.31780  0.89420  Biso   1.000  O
  O39      1.0000 0.67470  0.23530  0.95020  Biso   1.000  O
  O40      1.0000 0.63340  0.52850  0.80680  Biso   1.000  O
  H36      1.0000 0.67060  0.52460  0.78960  Biso   1.000  H
  H37      1.0000 0.61070  0.51770  0.76780  Biso   1.000  H
  C50      1.0000 0.66710  0.49070  0.06060  Biso   1.000  C
  C51      1.0000 0.68470  0.42530  0.07350  Biso   1.000  C
  C52      1.0000 0.71750  0.40500  0.13700  Biso   1.000  C
  H38      1.0000 0.72910  0.43210  0.17700  Biso   1.000  H
  C53      1.0000 0.73360  0.34430  0.14210  Biso   1.000  C
  H39      1.0000 0.75590  0.32990  0.18540  Biso   1.000  H
  C54      1.0000 0.71580  0.30500  0.08130  Biso   1.000  C
  H40      1.0000 0.72610  0.26380  0.08290  Biso   1.000  H
  C55      1.0000 0.68280  0.32840  0.01860  Biso   1.000  C
  C56      1.0000 0.66210  0.29070  0.94850  Biso   1.000  C
  La9      1.0000 0.17980  0.64205  0.36248  Biso   1.000  La
  N9       1.0000 0.13710  0.58290  0.23500  Biso   1.000  N
  O41      1.0000 0.27880  0.56930  0.13730  Biso   1.000  O
  O42      1.0000 0.25260  0.61100  0.25410  Biso   1.000  O
  O43      1.0000 0.06780  0.61650  0.35580  Biso   1.000  O
  O44      1.0000 0.98530  0.57530  0.29980  Biso   1.000  O
  O45      1.0000 0.27850  0.61660  0.44320  Biso   1.000  O
  H41      1.0000 0.27460  0.57940  0.46040  Biso   1.000  H
  H42      1.0000 0.26770  0.63930  0.48220  Biso   1.000  H
  C57      1.0000 0.24070  0.58290  0.18940  Biso   1.000  C
  C58      1.0000 0.17530  0.56530  0.17650  Biso   1.000  C
  C59      1.0000 0.15500  0.53250  0.11300  Biso   1.000  C
  H43      1.0000 0.18210  0.52090  0.07300  Biso   1.000  H
  C60      1.0000 0.09430  0.51640  0.10790  Biso   1.000  C
  H44      1.0000 0.07990  0.49410  0.06460  Biso   1.000  H
  C61      1.0000 0.05500  0.53420  0.16870  Biso   1.000  C
  H45      1.0000 0.01380  0.52390  0.16710  Biso   1.000  H
  C62      1.0000 0.07840  0.56720  0.23140  Biso   1.000  C
  C63      1.0000 0.04070  0.58790  0.30150  Biso   1.000  C
  La10     1.0000 0.67980  0.14205  0.86248  Biso   1.000  La
  N10      1.0000 0.63710  0.08290  0.73500  Biso   1.000  N
  O46      1.0000 0.77880  0.06930  0.63730  Biso   1.000  O
  O47      1.0000 0.75260  0.11100  0.75410  Biso   1.000  O
  O48      1.0000 0.56780  0.11650  0.85580  Biso   1.000  O
  O49      1.0000 0.48530  0.07530  0.79980  Biso   1.000  O
  O50      1.0000 0.77850  0.11660  0.94320  Biso   1.000  O
  H46      1.0000 0.77460  0.07940  0.96040  Biso   1.000  H
  H47      1.0000 0.76770  0.13930  0.98220  Biso   1.000  H
  C64      1.0000 0.74070  0.08290  0.68940  Biso   1.000  C
  C65      1.0000 0.67530  0.06530  0.67650  Biso   1.000  C
  C66      1.0000 0.65500  0.03250  0.61300  Biso   1.000  C
  H48      1.0000 0.68210  0.02090  0.57300  Biso   1.000  H
  C67      1.0000 0.59430  0.01640  0.60790  Biso   1.000  C
  H49      1.0000 0.57990  0.99410  0.56460  Biso   1.000  H
  C68      1.0000 0.55500  0.03420  0.66870  Biso   1.000  C
  H50      1.0000 0.51380  0.02390  0.66710  Biso   1.000  H
  C69      1.0000 0.57840  0.06720  0.73140  Biso   1.000  C
  C70      1.0000 0.54070  0.08790  0.80150  Biso   1.000  C
  La11     1.0000 0.32020  0.35795  0.86248  Biso   1.000  La
  N11      1.0000 0.36290  0.41710  0.73500  Biso   1.000  N
  O51      1.0000 0.22120  0.43070  0.63730  Biso   1.000  O
  O52      1.0000 0.24740  0.38900  0.75410  Biso   1.000  O
  O53      1.0000 0.43220  0.38350  0.85580  Biso   1.000  O
  O54      1.0000 0.51470  0.42470  0.79980  Biso   1.000  O
  O55      1.0000 0.22150  0.38340  0.94320  Biso   1.000  O
  H51      1.0000 0.22540  0.42060  0.96040  Biso   1.000  H
  H52      1.0000 0.23230  0.36070  0.98220  Biso   1.000  H
  C71      1.0000 0.25930  0.41710  0.68940  Biso   1.000  C
  C72      1.0000 0.32470  0.43470  0.67650  Biso   1.000  C
  C73      1.0000 0.34500  0.46750  0.61300  Biso   1.000  C
  H53      1.0000 0.31790  0.47910  0.57300  Biso   1.000  H
  C74      1.0000 0.40570  0.48360  0.60790  Biso   1.000  C
  H54      1.0000 0.42010  0.50590  0.56460  Biso   1.000  H
  C75      1.0000 0.44500  0.46580  0.66870  Biso   1.000  C
  H55      1.0000 0.48620  0.47610  0.66710  Biso   1.000  H
  C76      1.0000 0.42160  0.43280  0.73140  Biso   1.000  C
  C77      1.0000 0.45930  0.41210  0.80150  Biso   1.000  C
  La12     1.0000 0.82020  0.85795  0.36248  Biso   1.000  La
  N12      1.0000 0.86290  0.91710  0.23500  Biso   1.000  N
  O56      1.0000 0.72120  0.93070  0.13730  Biso   1.000  O
  O57      1.0000 0.74740  0.88900  0.25410  Biso   1.000  O
  O58      1.0000 0.93220  0.88350  0.35580  Biso   1.000  O
  O59      1.0000 0.01470  0.92470  0.29980  Biso   1.000  O
  O60      1.0000 0.72150  0.88340  0.44320  Biso   1.000  O
  H56      1.0000 0.72540  0.92060  0.46040  Biso   1.000  H
  H57      1.0000 0.73230  0.86070  0.48220  Biso   1.000  H
  C78      1.0000 0.75930  0.91710  0.18940  Biso   1.000  C
  C79      1.0000 0.82470  0.93470  0.17650  Biso   1.000  C
  C80      1.0000 0.84500  0.96750  0.11300  Biso   1.000  C
  H58      1.0000 0.81790  0.97910  0.07300  Biso   1.000  H
  C81      1.0000 0.90570  0.98360  0.10790  Biso   1.000  C
  H59      1.0000 0.92010  0.00590  0.06460  Biso   1.000  H
  C82      1.0000 0.94500  0.96580  0.16870  Biso   1.000  C
  H60      1.0000 0.98620  0.97610  0.16710  Biso   1.000  H
  C83      1.0000 0.92160  0.93280  0.23140  Biso   1.000  C
  C84      1.0000 0.95930  0.91210  0.30150  Biso   1.000  C
  La13     1.0000 0.60795  0.92980  0.11248  Biso   1.000  La
  N13      1.0000 0.66710  0.88710  0.98500  Biso   1.000  N
  O61      1.0000 0.68070  0.02880  0.88730  Biso   1.000  O
  O62      1.0000 0.63900  0.00260  0.00410  Biso   1.000  O
  O63      1.0000 0.63350  0.81780  0.10580  Biso   1.000  O
  O64      1.0000 0.67470  0.73530  0.04980  Biso   1.000  O
  O65      1.0000 0.63340  0.02850  0.19320  Biso   1.000  O
  H61      1.0000 0.67060  0.02460  0.21040  Biso   1.000  H
  H62      1.0000 0.61070  0.01770  0.23220  Biso   1.000  H
  C85      1.0000 0.66710  0.99070  0.93940  Biso   1.000  C
  C86      1.0000 0.68470  0.92530  0.92650  Biso   1.000  C
  C87      1.0000 0.71750  0.90500  0.86300  Biso   1.000  C
  H63      1.0000 0.72910  0.93210  0.82300  Biso   1.000  H
  C88      1.0000 0.73360  0.84430  0.85790  Biso   1.000  C
  H64      1.0000 0.75590  0.82990  0.81460  Biso   1.000  H
  C89      1.0000 0.71580  0.80500  0.91870  Biso   1.000  C
  H65      1.0000 0.72610  0.76380  0.91710  Biso   1.000  H
  C90      1.0000 0.68280  0.82840  0.98140  Biso   1.000  C
  C91      1.0000 0.66210  0.79070  0.05150  Biso   1.000  C
  La14     1.0000 0.10795  0.42980  0.61248  Biso   1.000  La
  N14      1.0000 0.16710  0.38710  0.48500  Biso   1.000  N
  O66      1.0000 0.18070  0.52880  0.38730  Biso   1.000  O
  O67      1.0000 0.13900  0.50260  0.50410  Biso   1.000  O
  O68      1.0000 0.13350  0.31780  0.60580  Biso   1.000  O
  O69      1.0000 0.17470  0.23530  0.54980  Biso   1.000  O
  O70      1.0000 0.13340  0.52850  0.69320  Biso   1.000  O
  H66      1.0000 0.17060  0.52460  0.71040  Biso   1.000  H
  H67      1.0000 0.11070  0.51770  0.73220  Biso   1.000  H
  C92      1.0000 0.16710  0.49070  0.43940  Biso   1.000  C
  C93      1.0000 0.18470  0.42530  0.42650  Biso   1.000  C
  C94      1.0000 0.21750  0.40500  0.36300  Biso   1.000  C
  H68      1.0000 0.22910  0.43210  0.32300  Biso   1.000  H
  C95      1.0000 0.23360  0.34430  0.35790  Biso   1.000  C
  H69      1.0000 0.25590  0.32990  0.31460  Biso   1.000  H
  C96      1.0000 0.21580  0.30500  0.41870  Biso   1.000  C
  H70      1.0000 0.22610  0.26380  0.41710  Biso   1.000  H
  C97      1.0000 0.18280  0.32840  0.48140  Biso   1.000  C
  C98      1.0000 0.16210  0.29070  0.55150  Biso   1.000  C
  La15     1.0000 0.89205  0.07020  0.61248  Biso   1.000  La
  N15      1.0000 0.83290  0.11290  0.48500  Biso   1.000  N
  O71      1.0000 0.81930  0.97120  0.38730  Biso   1.000  O
  O72      1.0000 0.86100  0.99740  0.50410  Biso   1.000  O
  O73      1.0000 0.86650  0.18220  0.60580  Biso   1.000  O
  O74      1.0000 0.82530  0.26470  0.54980  Biso   1.000  O
  O75      1.0000 0.86660  0.97150  0.69320  Biso   1.000  O
  H71      1.0000 0.82940  0.97540  0.71040  Biso   1.000  H
  H72      1.0000 0.88930  0.98230  0.73220  Biso   1.000  H
  C99      1.0000 0.83290  0.00930  0.43940  Biso   1.000  C
  C100     1.0000 0.81530  0.07470  0.42650  Biso   1.000  C
  C101     1.0000 0.78250  0.09500  0.36300  Biso   1.000  C
  H73      1.0000 0.77090  0.06790  0.32300  Biso   1.000  H
  C102     1.0000 0.76640  0.15570  0.35790  Biso   1.000  C
  H74      1.0000 0.74410  0.17010  0.31460  Biso   1.000  H
  C103     1.0000 0.78420  0.19500  0.41870  Biso   1.000  C
  H75      1.0000 0.77390  0.23620  0.41710  Biso   1.000  H
  C104     1.0000 0.81720  0.17160  0.48140  Biso   1.000  C
  C105     1.0000 0.83790  0.20930  0.55150  Biso   1.000  C
  La16     1.0000 0.39205  0.57020  0.11248  Biso   1.000  La
  N16      1.0000 0.33290  0.61290  0.98500  Biso   1.000  N
  O76      1.0000 0.31930  0.47120  0.88730  Biso   1.000  O
  O77      1.0000 0.36100  0.49740  0.00410  Biso   1.000  O
  O78      1.0000 0.36650  0.68220  0.10580  Biso   1.000  O
  O79      1.0000 0.32530  0.76470  0.04980  Biso   1.000  O
  O80      1.0000 0.36660  0.47150  0.19320  Biso   1.000  O
  H76      1.0000 0.32940  0.47540  0.21040  Biso   1.000  H
  H77      1.0000 0.38930  0.48230  0.23220  Biso   1.000  H
  C106     1.0000 0.33290  0.50930  0.93940  Biso   1.000  C
  C107     1.0000 0.31530  0.57470  0.92650  Biso   1.000  C
  C108     1.0000 0.28250  0.59500  0.86300  Biso   1.000  C
  H78      1.0000 0.27090  0.56790  0.82300  Biso   1.000  H
  C109     1.0000 0.26640  0.65570  0.85790  Biso   1.000  C
  H79      1.0000 0.24410  0.67010  0.81460  Biso   1.000  H
  C110     1.0000 0.28420  0.69500  0.91870  Biso   1.000  C
  H80      1.0000 0.27390  0.73620  0.91710  Biso   1.000  H
  C111     1.0000 0.31720  0.67160  0.98140  Biso   1.000  C
  C112     1.0000 0.33790  0.70930  0.05150  Biso   1.000  C
