data_image0
_cell_length_a       9.9949
_cell_length_b       15.8229
_cell_length_c       18.1963
_cell_angle_alpha    90
_cell_angle_beta     90
_cell_angle_gamma    90

_symmetry_space_group_name_H-M    "P 1"
_symmetry_int_tables_number       1

loop_
  _symmetry_equiv_pos_as_xyz
  'x, y, z'

loop_
  _atom_site_label
  _atom_site_occupancy
  _atom_site_fract_x
  _atom_site_fract_y
  _atom_site_fract_z
  _atom_site_thermal_displace_type
  _atom_site_B_iso_or_equiv
  _atom_site_type_symbol
  Al1      1.0000 0.68470  0.03750  0.28230  Biso   1.000  Al
  Al2      1.0000 0.83100  0.85010  0.32340  Biso   1.000  Al
  Al3      1.0000 0.65770  0.00970  0.09400  Biso   1.000  Al
  P1       1.0000 0.85930  0.00930  0.42271  Biso   1.000  P
  P2       1.0000 0.64580  0.18360  0.16993  Biso   1.000  P
  P3       1.0000 0.88410  0.94270  0.18548  Biso   1.000  P
  F1       1.0000 0.67870  0.92100  0.30720  Biso   1.000  F
  F2       1.0000 0.60050  0.00390  0.19530  Biso   1.000  F
  O1       1.0000 0.00460  0.04190  0.42740  Biso   1.000  O
  O2       1.0000 0.79070  0.01910  0.49750  Biso   1.000  O
  O3       1.0000 0.86370  0.91600  0.39980  Biso   1.000  O
  O4       1.0000 0.78240  0.06360  0.36700  Biso   1.000  O
  O5       1.0000 0.72920  0.26290  0.15490  Biso   1.000  O
  O6       1.0000 0.68400  0.14850  0.24610  Biso   1.000  O
  O7       1.0000 0.68310  0.12000  0.10780  Biso   1.000  O
  O8       1.0000 0.49770  0.20740  0.16500  Biso   1.000  O
  O9       1.0000 0.79780  0.94330  0.11520  Biso   1.000  O
  O10      1.0000 0.85880  0.85720  0.22540  Biso   1.000  O
  O11      1.0000 0.84660  0.01620  0.23510  Biso   1.000  O
  O12      1.0000 0.03110  0.94820  0.16350  Biso   1.000  O
  Al4      1.0000 0.31530  0.46250  0.78230  Biso   1.000  Al
  Al5      1.0000 0.16900  0.64990  0.82340  Biso   1.000  Al
  Al6      1.0000 0.34230  0.49030  0.59400  Biso   1.000  Al
  P4       1.0000 0.14070  0.49070  0.92271  Biso   1.000  P
  P5       1.0000 0.35420  0.31640  0.66993  Biso   1.000  P
  P6       1.0000 0.11590  0.55730  0.68548  Biso   1.000  P
  F3       1.0000 0.32130  0.57900  0.80720  Biso   1.000  F
  F4       1.0000 0.39950  0.49610  0.69530  Biso   1.000  F
  O13      1.0000 0.99540  0.45810  0.92740  Biso   1.000  O
  O14      1.0000 0.20930  0.48090  0.99750  Biso   1.000  O
  O15      1.0000 0.13630  0.58400  0.89980  Biso   1.000  O
  O16      1.0000 0.21760  0.43640  0.86700  Biso   1.000  O
  O17      1.0000 0.27080  0.23710  0.65490  Biso   1.000  O
  O18      1.0000 0.31600  0.35150  0.74610  Biso   1.000  O
  O19      1.0000 0.31690  0.38000  0.60780  Biso   1.000  O
  O20      1.0000 0.50230  0.29260  0.66500  Biso   1.000  O
  O21      1.0000 0.20220  0.55670  0.61520  Biso   1.000  O
  O22      1.0000 0.14120  0.64280  0.72540  Biso   1.000  O
  O23      1.0000 0.15340  0.48380  0.73510  Biso   1.000  O
  O24      1.0000 0.96890  0.55180  0.66350  Biso   1.000  O
  Al7      1.0000 0.18470  0.96250  0.21770  Biso   1.000  Al
  Al8      1.0000 0.33100  0.14990  0.17660  Biso   1.000  Al
  Al9      1.0000 0.15770  0.99030  0.40600  Biso   1.000  Al
  P7       1.0000 0.35930  0.99070  0.07729  Biso   1.000  P
  P8       1.0000 0.14580  0.81640  0.33007  Biso   1.000  P
  P9       1.0000 0.38410  0.05730  0.31452  Biso   1.000  P
  F5       1.0000 0.17870  0.07900  0.19280  Biso   1.000  F
  F6       1.0000 0.10050  0.99610  0.30470  Biso   1.000  F
  O25      1.0000 0.50460  0.95810  0.07260  Biso   1.000  O
  O26      1.0000 0.29070  0.98090  0.00250  Biso   1.000  O
  O27      1.0000 0.36370  0.08400  0.10020  Biso   1.000  O
  O28      1.0000 0.28240  0.93640  0.13300  Biso   1.000  O
  O29      1.0000 0.22920  0.73710  0.34510  Biso   1.000  O
  O30      1.0000 0.18400  0.85150  0.25390  Biso   1.000  O
  O31      1.0000 0.18310  0.88000  0.39220  Biso   1.000  O
  O32      1.0000 0.99770  0.79260  0.33500  Biso   1.000  O
  O33      1.0000 0.29780  0.05670  0.38480  Biso   1.000  O
  O34      1.0000 0.35880  0.14280  0.27460  Biso   1.000  O
  O35      1.0000 0.34660  0.98380  0.26490  Biso   1.000  O
  O36      1.0000 0.53110  0.05180  0.33650  Biso   1.000  O
  Al10     1.0000 0.81530  0.53750  0.71770  Biso   1.000  Al
  Al11     1.0000 0.66900  0.35010  0.67660  Biso   1.000  Al
  Al12     1.0000 0.84230  0.50970  0.90600  Biso   1.000  Al
  P10      1.0000 0.64070  0.50930  0.57729  Biso   1.000  P
  P11      1.0000 0.85420  0.68360  0.83007  Biso   1.000  P
  P12      1.0000 0.61590  0.44270  0.81452  Biso   1.000  P
  F7       1.0000 0.82130  0.42100  0.69280  Biso   1.000  F
  F8       1.0000 0.89950  0.50390  0.80470  Biso   1.000  F
  O37      1.0000 0.49540  0.54190  0.57260  Biso   1.000  O
  O38      1.0000 0.70930  0.51910  0.50250  Biso   1.000  O
  O39      1.0000 0.63630  0.41600  0.60020  Biso   1.000  O
  O40      1.0000 0.71760  0.56360  0.63300  Biso   1.000  O
  O41      1.0000 0.77080  0.76290  0.84510  Biso   1.000  O
  O42      1.0000 0.81600  0.64850  0.75390  Biso   1.000  O
  O43      1.0000 0.81690  0.62000  0.89220  Biso   1.000  O
  O44      1.0000 0.00230  0.70740  0.83500  Biso   1.000  O
  O45      1.0000 0.70220  0.44330  0.88480  Biso   1.000  O
  O46      1.0000 0.64120  0.35720  0.77460  Biso   1.000  O
  O47      1.0000 0.65340  0.51620  0.76490  Biso   1.000  O
  O48      1.0000 0.46890  0.44820  0.83650  Biso   1.000  O
  Al13     1.0000 0.31530  0.96250  0.71770  Biso   1.000  Al
  Al14     1.0000 0.16900  0.14990  0.67660  Biso   1.000  Al
  Al15     1.0000 0.34230  0.99030  0.90600  Biso   1.000  Al
  P13      1.0000 0.14070  0.99070  0.57729  Biso   1.000  P
  P14      1.0000 0.35420  0.81640  0.83007  Biso   1.000  P
  P15      1.0000 0.11590  0.05730  0.81452  Biso   1.000  P
  F9       1.0000 0.32130  0.07900  0.69280  Biso   1.000  F
  F10      1.0000 0.39950  0.99610  0.80470  Biso   1.000  F
  O49      1.0000 0.99540  0.95810  0.57260  Biso   1.000  O
  O50      1.0000 0.20930  0.98090  0.50250  Biso   1.000  O
  O51      1.0000 0.13630  0.08400  0.60020  Biso   1.000  O
  O52      1.0000 0.21760  0.93640  0.63300  Biso   1.000  O
  O53      1.0000 0.27080  0.73710  0.84510  Biso   1.000  O
  O54      1.0000 0.31600  0.85150  0.75390  Biso   1.000  O
  O55      1.0000 0.31690  0.88000  0.89220  Biso   1.000  O
  O56      1.0000 0.50230  0.79260  0.83500  Biso   1.000  O
  O57      1.0000 0.20220  0.05670  0.88480  Biso   1.000  O
  O58      1.0000 0.14120  0.14280  0.77460  Biso   1.000  O
  O59      1.0000 0.15340  0.98380  0.76490  Biso   1.000  O
  O60      1.0000 0.96890  0.05180  0.83650  Biso   1.000  O
  Al16     1.0000 0.68470  0.53750  0.21770  Biso   1.000  Al
  Al17     1.0000 0.83100  0.35010  0.17660  Biso   1.000  Al
  Al18     1.0000 0.65770  0.50970  0.40600  Biso   1.000  Al
  P16      1.0000 0.85930  0.50930  0.07729  Biso   1.000  P
  P17      1.0000 0.64580  0.68360  0.33007  Biso   1.000  P
  P18      1.0000 0.88410  0.44270  0.31452  Biso   1.000  P
  F11      1.0000 0.67870  0.42100  0.19280  Biso   1.000  F
  F12      1.0000 0.60050  0.50390  0.30470  Biso   1.000  F
  O61      1.0000 0.00460  0.54190  0.07260  Biso   1.000  O
  O62      1.0000 0.79070  0.51910  0.00250  Biso   1.000  O
  O63      1.0000 0.86370  0.41600  0.10020  Biso   1.000  O
  O64      1.0000 0.78240  0.56360  0.13300  Biso   1.000  O
  O65      1.0000 0.72920  0.76290  0.34510  Biso   1.000  O
  O66      1.0000 0.68400  0.64850  0.25390  Biso   1.000  O
  O67      1.0000 0.68310  0.62000  0.39220  Biso   1.000  O
  O68      1.0000 0.49770  0.70740  0.33500  Biso   1.000  O
  O69      1.0000 0.79780  0.44330  0.38480  Biso   1.000  O
  O70      1.0000 0.85880  0.35720  0.27460  Biso   1.000  O
  O71      1.0000 0.84660  0.51620  0.26490  Biso   1.000  O
  O72      1.0000 0.03110  0.44820  0.33650  Biso   1.000  O
  Al19     1.0000 0.81530  0.03750  0.78230  Biso   1.000  Al
  Al20     1.0000 0.66900  0.85010  0.82340  Biso   1.000  Al
  Al21     1.0000 0.84230  0.00970  0.59400  Biso   1.000  Al
  P19      1.0000 0.64070  0.00930  0.92271  Biso   1.000  P
  P20      1.0000 0.85420  0.18360  0.66993  Biso   1.000  P
  P21      1.0000 0.61590  0.94270  0.68548  Biso   1.000  P
  F13      1.0000 0.82130  0.92100  0.80720  Biso   1.000  F
  F14      1.0000 0.89950  0.00390  0.69530  Biso   1.000  F
  O73      1.0000 0.49540  0.04190  0.92740  Biso   1.000  O
  O74      1.0000 0.70930  0.01910  0.99750  Biso   1.000  O
  O75      1.0000 0.63630  0.91600  0.89980  Biso   1.000  O
  O76      1.0000 0.71760  0.06360  0.86700  Biso   1.000  O
  O77      1.0000 0.77080  0.26290  0.65490  Biso   1.000  O
  O78      1.0000 0.81600  0.14850  0.74610  Biso   1.000  O
  O79      1.0000 0.81690  0.12000  0.60780  Biso   1.000  O
  O80      1.0000 0.00230  0.20740  0.66500  Biso   1.000  O
  O81      1.0000 0.70220  0.94330  0.61520  Biso   1.000  O
  O82      1.0000 0.64120  0.85720  0.72540  Biso   1.000  O
  O83      1.0000 0.65340  0.01620  0.73510  Biso   1.000  O
  O84      1.0000 0.46890  0.94820  0.66350  Biso   1.000  O
  Al22     1.0000 0.18470  0.46250  0.28230  Biso   1.000  Al
  Al23     1.0000 0.33100  0.64990  0.32340  Biso   1.000  Al
  Al24     1.0000 0.15770  0.49030  0.09400  Biso   1.000  Al
  P22      1.0000 0.35930  0.49070  0.42271  Biso   1.000  P
  P23      1.0000 0.14580  0.31640  0.16993  Biso   1.000  P
  P24      1.0000 0.38410  0.55730  0.18548  Biso   1.000  P
  F15      1.0000 0.17870  0.57900  0.30720  Biso   1.000  F
  F16      1.0000 0.10050  0.49610  0.19530  Biso   1.000  F
  O85      1.0000 0.50460  0.45810  0.42740  Biso   1.000  O
  O86      1.0000 0.29070  0.48090  0.49750  Biso   1.000  O
  O87      1.0000 0.36370  0.58400  0.39980  Biso   1.000  O
  O88      1.0000 0.28240  0.43640  0.36700  Biso   1.000  O
  O89      1.0000 0.22920  0.23710  0.15490  Biso   1.000  O
  O90      1.0000 0.18400  0.35150  0.24610  Biso   1.000  O
  O91      1.0000 0.18310  0.38000  0.10780  Biso   1.000  O
  O92      1.0000 0.99770  0.29260  0.16500  Biso   1.000  O
  O93      1.0000 0.29780  0.55670  0.11520  Biso   1.000  O
  O94      1.0000 0.35880  0.64280  0.22540  Biso   1.000  O
  O95      1.0000 0.34660  0.48380  0.23510  Biso   1.000  O
  O96      1.0000 0.53110  0.55180  0.16350  Biso   1.000  O
