data_image0
_cell_length_a       9.809
_cell_length_b       11.595
_cell_length_c       12.065
_cell_angle_alpha    90
_cell_angle_beta     90
_cell_angle_gamma    90

_symmetry_space_group_name_H-M    "P 1"
_symmetry_int_tables_number       1

loop_
  _symmetry_equiv_pos_as_xyz
  'x, y, z'

loop_
  _atom_site_label
  _atom_site_occupancy
  _atom_site_fract_x
  _atom_site_fract_y
  _atom_site_fract_z
  _atom_site_thermal_displace_type
  _atom_site_B_iso_or_equiv
  _atom_site_type_symbol
  Cu1      1.0000 0.18999  0.25687  0.92741  Biso   1.000  Cu
  O1       1.0000 0.00450  0.26070  0.98400  Biso   1.000  O
  O2       1.0000 0.87300  0.22330  0.13000  Biso   1.000  O
  O3       1.0000 0.22630  0.19450  0.07860  Biso   1.000  O
  H1       1.0000 0.31290  0.18320  0.06690  Biso   1.000  H
  O4       1.0000 0.32260  0.98550  0.12390  Biso   1.000  O
  H2       1.0000 0.38970  0.97460  0.08720  Biso   1.000  H
  O5       1.0000 0.32140  0.92700  0.34970  Biso   1.000  O
  H3       1.0000 0.39170  0.92360  0.30830  Biso   1.000  H
  O6       1.0000 0.23140  0.14720  0.43170  Biso   1.000  O
  H4       1.0000 0.21080  0.08870  0.46770  Biso   1.000  H
  C1       1.0000 0.98570  0.22030  0.08020  Biso   1.000  C
  C2       1.0000 0.10200  0.15820  0.13700  Biso   1.000  C
  C3       1.0000 0.08050  0.02720  0.12330  Biso   1.000  C
  H5       1.0000 0.99450  0.00530  0.15710  Biso   1.000  H
  H6       1.0000 0.07570  0.00840  0.04510  Biso   1.000  H
  C4       1.0000 0.19570  0.95900  0.17680  Biso   1.000  C
  H7       1.0000 0.17710  0.87630  0.16980  Biso   1.000  H
  C5       1.0000 0.21120  0.99050  0.29990  Biso   1.000  C
  H8       1.0000 0.12680  0.96860  0.33790  Biso   1.000  H
  C6       1.0000 0.23140  0.12000  0.31560  Biso   1.000  C
  H9       1.0000 0.31930  0.14250  0.28360  Biso   1.000  H
  C7       1.0000 0.11780  0.18950  0.25970  Biso   1.000  C
  H10      1.0000 0.03240  0.17500  0.29770  Biso   1.000  H
  H11      1.0000 0.13800  0.27110  0.26610  Biso   1.000  H
  Cu2      1.0000 0.68999  0.24313  0.07259  Biso   1.000  Cu
  O7       1.0000 0.50450  0.23930  0.01600  Biso   1.000  O
  O8       1.0000 0.37300  0.27670  0.87000  Biso   1.000  O
  O9       1.0000 0.72630  0.30550  0.92140  Biso   1.000  O
  H12      1.0000 0.81290  0.31680  0.93310  Biso   1.000  H
  O10      1.0000 0.82260  0.51450  0.87610  Biso   1.000  O
  H13      1.0000 0.88970  0.52540  0.91280  Biso   1.000  H
  O11      1.0000 0.82140  0.57300  0.65030  Biso   1.000  O
  H14      1.0000 0.89170  0.57640  0.69170  Biso   1.000  H
  O12      1.0000 0.73140  0.35280  0.56830  Biso   1.000  O
  H15      1.0000 0.71080  0.41130  0.53230  Biso   1.000  H
  C8       1.0000 0.48570  0.27970  0.91980  Biso   1.000  C
  C9       1.0000 0.60200  0.34180  0.86300  Biso   1.000  C
  C10      1.0000 0.58050  0.47280  0.87670  Biso   1.000  C
  H16      1.0000 0.49450  0.49470  0.84290  Biso   1.000  H
  H17      1.0000 0.57570  0.49160  0.95490  Biso   1.000  H
  C11      1.0000 0.69570  0.54100  0.82320  Biso   1.000  C
  H18      1.0000 0.67710  0.62370  0.83020  Biso   1.000  H
  C12      1.0000 0.71120  0.50950  0.70010  Biso   1.000  C
  H19      1.0000 0.62680  0.53140  0.66210  Biso   1.000  H
  C13      1.0000 0.73140  0.38000  0.68440  Biso   1.000  C
  H20      1.0000 0.81930  0.35750  0.71640  Biso   1.000  H
  C14      1.0000 0.61780  0.31050  0.74030  Biso   1.000  C
  H21      1.0000 0.53240  0.32500  0.70230  Biso   1.000  H
  H22      1.0000 0.63800  0.22890  0.73390  Biso   1.000  H
  Cu3      1.0000 0.31001  0.74313  0.42741  Biso   1.000  Cu
  O13      1.0000 0.49550  0.73930  0.48400  Biso   1.000  O
  O14      1.0000 0.62700  0.77670  0.63000  Biso   1.000  O
  O15      1.0000 0.27370  0.80550  0.57860  Biso   1.000  O
  H23      1.0000 0.18710  0.81680  0.56690  Biso   1.000  H
  O16      1.0000 0.17740  0.01450  0.62390  Biso   1.000  O
  H24      1.0000 0.11030  0.02540  0.58720  Biso   1.000  H
  O17      1.0000 0.17860  0.07300  0.84970  Biso   1.000  O
  H25      1.0000 0.10830  0.07640  0.80830  Biso   1.000  H
  O18      1.0000 0.26860  0.85280  0.93170  Biso   1.000  O
  H26      1.0000 0.28920  0.91130  0.96770  Biso   1.000  H
  C15      1.0000 0.51430  0.77970  0.58020  Biso   1.000  C
  C16      1.0000 0.39800  0.84180  0.63700  Biso   1.000  C
  C17      1.0000 0.41950  0.97280  0.62330  Biso   1.000  C
  H27      1.0000 0.50550  0.99470  0.65710  Biso   1.000  H
  H28      1.0000 0.42430  0.99160  0.54510  Biso   1.000  H
  C18      1.0000 0.30430  0.04100  0.67680  Biso   1.000  C
  H29      1.0000 0.32290  0.12370  0.66980  Biso   1.000  H
  C19      1.0000 0.28880  0.00950  0.79990  Biso   1.000  C
  H30      1.0000 0.37320  0.03140  0.83790  Biso   1.000  H
  C20      1.0000 0.26860  0.88000  0.81560  Biso   1.000  C
  H31      1.0000 0.18070  0.85750  0.78360  Biso   1.000  H
  C21      1.0000 0.38220  0.81050  0.75970  Biso   1.000  C
  H32      1.0000 0.46760  0.82500  0.79770  Biso   1.000  H
  H33      1.0000 0.36200  0.72890  0.76610  Biso   1.000  H
  Cu4      1.0000 0.81001  0.75687  0.57259  Biso   1.000  Cu
  O19      1.0000 0.99550  0.76070  0.51600  Biso   1.000  O
  O20      1.0000 0.12700  0.72330  0.37000  Biso   1.000  O
  O21      1.0000 0.77370  0.69450  0.42140  Biso   1.000  O
  H34      1.0000 0.68710  0.68320  0.43310  Biso   1.000  H
  O22      1.0000 0.67740  0.48550  0.37610  Biso   1.000  O
  H35      1.0000 0.61030  0.47460  0.41280  Biso   1.000  H
  O23      1.0000 0.67860  0.42700  0.15030  Biso   1.000  O
  H36      1.0000 0.60830  0.42360  0.19170  Biso   1.000  H
  O24      1.0000 0.76860  0.64720  0.06830  Biso   1.000  O
  H37      1.0000 0.78920  0.58870  0.03230  Biso   1.000  H
  C22      1.0000 0.01430  0.72030  0.41980  Biso   1.000  C
  C23      1.0000 0.89800  0.65820  0.36300  Biso   1.000  C
  C24      1.0000 0.91950  0.52720  0.37670  Biso   1.000  C
  H38      1.0000 0.00550  0.50530  0.34290  Biso   1.000  H
  H39      1.0000 0.92430  0.50840  0.45490  Biso   1.000  H
  C25      1.0000 0.80430  0.45900  0.32320  Biso   1.000  C
  H40      1.0000 0.82290  0.37630  0.33020  Biso   1.000  H
  C26      1.0000 0.78880  0.49050  0.20010  Biso   1.000  C
  H41      1.0000 0.87320  0.46860  0.16210  Biso   1.000  H
  C27      1.0000 0.76860  0.62000  0.18440  Biso   1.000  C
  H42      1.0000 0.68070  0.64250  0.21640  Biso   1.000  H
  C28      1.0000 0.88220  0.68950  0.24030  Biso   1.000  C
  H43      1.0000 0.96760  0.67500  0.20230  Biso   1.000  H
  H44      1.0000 0.86200  0.77110  0.23390  Biso   1.000  H
