data_image0
_cell_length_a       19.9998
_cell_length_b       19.9998
_cell_length_c       19.9998
_cell_angle_alpha    90
_cell_angle_beta     90
_cell_angle_gamma    90

_symmetry_space_group_name_H-M    "P 1"
_symmetry_int_tables_number       1

loop_
  _symmetry_equiv_pos_as_xyz
  'x, y, z'

loop_
  _atom_site_label
  _atom_site_occupancy
  _atom_site_fract_x
  _atom_site_fract_y
  _atom_site_fract_z
  _atom_site_thermal_displace_type
  _atom_site_B_iso_or_equiv
  _atom_site_type_symbol
  N1       1.0000 0.06000  0.53473  0.23990  Biso   1.000  N
  H1       1.0000 0.10510  0.51090  0.24100  Biso   1.000  H
  C1       1.0000 0.08997  0.60300  0.22711  Biso   1.000  C
  H2       1.0000 0.12190  0.59970  0.18950  Biso   1.000  H
  H3       1.0000 0.05380  0.63390  0.21330  Biso   1.000  H
  C2       1.0000 0.12513  0.63200  0.28611  Biso   1.000  C
  C3       1.0000 0.10070  0.68854  0.31799  Biso   1.000  C
  H4       1.0000 0.06210  0.71020  0.30080  Biso   1.000  H
  C4       1.0000 0.02367  0.52829  0.30073  Biso   1.000  C
  H5       1.0000 0.99870  0.57010  0.30900  Biso   1.000  H
  H6       1.0000 0.05570  0.52220  0.33790  Biso   1.000  H
  O1       1.0000 0.97942  0.57936  0.11005  Biso   1.000  O
  N2       1.0000 0.06000  0.03473  0.73990  Biso   1.000  N
  H7       1.0000 0.10510  0.01090  0.74100  Biso   1.000  H
  C5       1.0000 0.08997  0.10300  0.72711  Biso   1.000  C
  H8       1.0000 0.12190  0.09970  0.68950  Biso   1.000  H
  H9       1.0000 0.05380  0.13390  0.71330  Biso   1.000  H
  C6       1.0000 0.12513  0.13200  0.78611  Biso   1.000  C
  C7       1.0000 0.10070  0.18854  0.81799  Biso   1.000  C
  H10      1.0000 0.06210  0.21020  0.80080  Biso   1.000  H
  C8       1.0000 0.02367  0.02829  0.80073  Biso   1.000  C
  H11      1.0000 0.99870  0.07010  0.80900  Biso   1.000  H
  H12      1.0000 0.05570  0.02220  0.83790  Biso   1.000  H
  O2       1.0000 0.97942  0.07936  0.61005  Biso   1.000  O
  N3       1.0000 0.56000  0.53473  0.73990  Biso   1.000  N
  H13      1.0000 0.60510  0.51090  0.74100  Biso   1.000  H
  C9       1.0000 0.58997  0.60300  0.72711  Biso   1.000  C
  H14      1.0000 0.62190  0.59970  0.68950  Biso   1.000  H
  H15      1.0000 0.55380  0.63390  0.71330  Biso   1.000  H
  C10      1.0000 0.62513  0.63200  0.78611  Biso   1.000  C
  C11      1.0000 0.60070  0.68854  0.81799  Biso   1.000  C
  H16      1.0000 0.56210  0.71020  0.80080  Biso   1.000  H
  C12      1.0000 0.52367  0.52829  0.80073  Biso   1.000  C
  H17      1.0000 0.49870  0.57010  0.80900  Biso   1.000  H
  H18      1.0000 0.55570  0.52220  0.83790  Biso   1.000  H
  O3       1.0000 0.47942  0.57936  0.61005  Biso   1.000  O
  N4       1.0000 0.56000  0.03473  0.23990  Biso   1.000  N
  H19      1.0000 0.60510  0.01090  0.24100  Biso   1.000  H
  C13      1.0000 0.58997  0.10300  0.22711  Biso   1.000  C
  H20      1.0000 0.62190  0.09970  0.18950  Biso   1.000  H
  H21      1.0000 0.55380  0.13390  0.21330  Biso   1.000  H
  C14      1.0000 0.62513  0.13200  0.28611  Biso   1.000  C
  C15      1.0000 0.60070  0.18854  0.31799  Biso   1.000  C
  H22      1.0000 0.56210  0.21020  0.30080  Biso   1.000  H
  C16      1.0000 0.52367  0.02829  0.30073  Biso   1.000  C
  H23      1.0000 0.49870  0.07010  0.30900  Biso   1.000  H
  H24      1.0000 0.55570  0.02220  0.33790  Biso   1.000  H
  O4       1.0000 0.47942  0.07936  0.11005  Biso   1.000  O
  N5       1.0000 0.94000  0.46527  0.23990  Biso   1.000  N
  H25      1.0000 0.89490  0.48910  0.24100  Biso   1.000  H
  C17      1.0000 0.91003  0.39700  0.22711  Biso   1.000  C
  H26      1.0000 0.87810  0.40030  0.18950  Biso   1.000  H
  H27      1.0000 0.94620  0.36610  0.21330  Biso   1.000  H
  C18      1.0000 0.87487  0.36800  0.28611  Biso   1.000  C
  C19      1.0000 0.89930  0.31146  0.31799  Biso   1.000  C
  H28      1.0000 0.93790  0.28980  0.30080  Biso   1.000  H
  C20      1.0000 0.97633  0.47171  0.30073  Biso   1.000  C
  H29      1.0000 0.00130  0.42990  0.30900  Biso   1.000  H
  H30      1.0000 0.94430  0.47780  0.33790  Biso   1.000  H
  O5       1.0000 0.02058  0.42064  0.11005  Biso   1.000  O
  N6       1.0000 0.94000  0.96527  0.73990  Biso   1.000  N
  H31      1.0000 0.89490  0.98910  0.74100  Biso   1.000  H
  C21      1.0000 0.91003  0.89700  0.72711  Biso   1.000  C
  H32      1.0000 0.87810  0.90030  0.68950  Biso   1.000  H
  H33      1.0000 0.94620  0.86610  0.71330  Biso   1.000  H
  C22      1.0000 0.87487  0.86800  0.78611  Biso   1.000  C
  C23      1.0000 0.89930  0.81146  0.81799  Biso   1.000  C
  H34      1.0000 0.93790  0.78980  0.80080  Biso   1.000  H
  C24      1.0000 0.97633  0.97171  0.80073  Biso   1.000  C
  H35      1.0000 0.00130  0.92990  0.80900  Biso   1.000  H
  H36      1.0000 0.94430  0.97780  0.83790  Biso   1.000  H
  O6       1.0000 0.02058  0.92064  0.61005  Biso   1.000  O
  N7       1.0000 0.44000  0.46527  0.73990  Biso   1.000  N
  H37      1.0000 0.39490  0.48910  0.74100  Biso   1.000  H
  C25      1.0000 0.41003  0.39700  0.72711  Biso   1.000  C
  H38      1.0000 0.37810  0.40030  0.68950  Biso   1.000  H
  H39      1.0000 0.44620  0.36610  0.71330  Biso   1.000  H
  C26      1.0000 0.37487  0.36800  0.78611  Biso   1.000  C
  C27      1.0000 0.39930  0.31146  0.81799  Biso   1.000  C
  H40      1.0000 0.43790  0.28980  0.80080  Biso   1.000  H
  C28      1.0000 0.47633  0.47171  0.80073  Biso   1.000  C
  H41      1.0000 0.50130  0.42990  0.80900  Biso   1.000  H
  H42      1.0000 0.44430  0.47780  0.83790  Biso   1.000  H
  O7       1.0000 0.52058  0.42064  0.61005  Biso   1.000  O
  N8       1.0000 0.44000  0.96527  0.23990  Biso   1.000  N
  H43      1.0000 0.39490  0.98910  0.24100  Biso   1.000  H
  C29      1.0000 0.41003  0.89700  0.22711  Biso   1.000  C
  H44      1.0000 0.37810  0.90030  0.18950  Biso   1.000  H
  H45      1.0000 0.44620  0.86610  0.21330  Biso   1.000  H
  C30      1.0000 0.37487  0.86800  0.28611  Biso   1.000  C
  C31      1.0000 0.39930  0.81146  0.31799  Biso   1.000  C
  H46      1.0000 0.43790  0.78980  0.30080  Biso   1.000  H
  C32      1.0000 0.47633  0.97171  0.30073  Biso   1.000  C
  H47      1.0000 0.50130  0.92990  0.30900  Biso   1.000  H
  H48      1.0000 0.44430  0.97780  0.33790  Biso   1.000  H
  O8       1.0000 0.52058  0.92064  0.11005  Biso   1.000  O
  N9       1.0000 0.94000  0.53473  0.76010  Biso   1.000  N
  H49      1.0000 0.89490  0.51090  0.75900  Biso   1.000  H
  C33      1.0000 0.91003  0.60300  0.77289  Biso   1.000  C
  H50      1.0000 0.87810  0.59970  0.81050  Biso   1.000  H
  H51      1.0000 0.94620  0.63390  0.78670  Biso   1.000  H
  C34      1.0000 0.87487  0.63200  0.71389  Biso   1.000  C
  C35      1.0000 0.89930  0.68854  0.68201  Biso   1.000  C
  H52      1.0000 0.93790  0.71020  0.69920  Biso   1.000  H
  C36      1.0000 0.97633  0.52829  0.69927  Biso   1.000  C
  H53      1.0000 0.00130  0.57010  0.69100  Biso   1.000  H
  H54      1.0000 0.94430  0.52220  0.66210  Biso   1.000  H
  O9       1.0000 0.02058  0.57936  0.88995  Biso   1.000  O
  N10      1.0000 0.94000  0.03473  0.26010  Biso   1.000  N
  H55      1.0000 0.89490  0.01090  0.25900  Biso   1.000  H
  C37      1.0000 0.91003  0.10300  0.27289  Biso   1.000  C
  H56      1.0000 0.87810  0.09970  0.31050  Biso   1.000  H
  H57      1.0000 0.94620  0.13390  0.28670  Biso   1.000  H
  C38      1.0000 0.87487  0.13200  0.21389  Biso   1.000  C
  C39      1.0000 0.89930  0.18854  0.18201  Biso   1.000  C
  H58      1.0000 0.93790  0.21020  0.19920  Biso   1.000  H
  C40      1.0000 0.97633  0.02829  0.19927  Biso   1.000  C
  H59      1.0000 0.00130  0.07010  0.19100  Biso   1.000  H
  H60      1.0000 0.94430  0.02220  0.16210  Biso   1.000  H
  O10      1.0000 0.02058  0.07936  0.38995  Biso   1.000  O
  N11      1.0000 0.44000  0.53473  0.26010  Biso   1.000  N
  H61      1.0000 0.39490  0.51090  0.25900  Biso   1.000  H
  C41      1.0000 0.41003  0.60300  0.27289  Biso   1.000  C
  H62      1.0000 0.37810  0.59970  0.31050  Biso   1.000  H
  H63      1.0000 0.44620  0.63390  0.28670  Biso   1.000  H
  C42      1.0000 0.37487  0.63200  0.21389  Biso   1.000  C
  C43      1.0000 0.39930  0.68854  0.18201  Biso   1.000  C
  H64      1.0000 0.43790  0.71020  0.19920  Biso   1.000  H
  C44      1.0000 0.47633  0.52829  0.19927  Biso   1.000  C
  H65      1.0000 0.50130  0.57010  0.19100  Biso   1.000  H
  H66      1.0000 0.44430  0.52220  0.16210  Biso   1.000  H
  O11      1.0000 0.52058  0.57936  0.38995  Biso   1.000  O
  N12      1.0000 0.44000  0.03473  0.76010  Biso   1.000  N
  H67      1.0000 0.39490  0.01090  0.75900  Biso   1.000  H
  C45      1.0000 0.41003  0.10300  0.77289  Biso   1.000  C
  H68      1.0000 0.37810  0.09970  0.81050  Biso   1.000  H
  H69      1.0000 0.44620  0.13390  0.78670  Biso   1.000  H
  C46      1.0000 0.37487  0.13200  0.71389  Biso   1.000  C
  C47      1.0000 0.39930  0.18854  0.68201  Biso   1.000  C
  H70      1.0000 0.43790  0.21020  0.69920  Biso   1.000  H
  C48      1.0000 0.47633  0.02829  0.69927  Biso   1.000  C
  H71      1.0000 0.50130  0.07010  0.69100  Biso   1.000  H
  H72      1.0000 0.44430  0.02220  0.66210  Biso   1.000  H
  O12      1.0000 0.52058  0.07936  0.88995  Biso   1.000  O
  N13      1.0000 0.06000  0.46527  0.76010  Biso   1.000  N
  H73      1.0000 0.10510  0.48910  0.75900  Biso   1.000  H
  C49      1.0000 0.08997  0.39700  0.77289  Biso   1.000  C
  H74      1.0000 0.12190  0.40030  0.81050  Biso   1.000  H
  H75      1.0000 0.05380  0.36610  0.78670  Biso   1.000  H
  C50      1.0000 0.12513  0.36800  0.71389  Biso   1.000  C
  C51      1.0000 0.10070  0.31146  0.68201  Biso   1.000  C
  H76      1.0000 0.06210  0.28980  0.69920  Biso   1.000  H
  C52      1.0000 0.02367  0.47171  0.69927  Biso   1.000  C
  H77      1.0000 0.99870  0.42990  0.69100  Biso   1.000  H
  H78      1.0000 0.05570  0.47780  0.66210  Biso   1.000  H
  O13      1.0000 0.97942  0.42064  0.88995  Biso   1.000  O
  N14      1.0000 0.06000  0.96527  0.26010  Biso   1.000  N
  H79      1.0000 0.10510  0.98910  0.25900  Biso   1.000  H
  C53      1.0000 0.08997  0.89700  0.27289  Biso   1.000  C
  H80      1.0000 0.12190  0.90030  0.31050  Biso   1.000  H
  H81      1.0000 0.05380  0.86610  0.28670  Biso   1.000  H
  C54      1.0000 0.12513  0.86800  0.21389  Biso   1.000  C
  C55      1.0000 0.10070  0.81146  0.18201  Biso   1.000  C
  H82      1.0000 0.06210  0.78980  0.19920  Biso   1.000  H
  C56      1.0000 0.02367  0.97171  0.19927  Biso   1.000  C
  H83      1.0000 0.99870  0.92990  0.19100  Biso   1.000  H
  H84      1.0000 0.05570  0.97780  0.16210  Biso   1.000  H
  O14      1.0000 0.97942  0.92064  0.38995  Biso   1.000  O
  N15      1.0000 0.56000  0.46527  0.26010  Biso   1.000  N
  H85      1.0000 0.60510  0.48910  0.25900  Biso   1.000  H
  C57      1.0000 0.58997  0.39700  0.27289  Biso   1.000  C
  H86      1.0000 0.62190  0.40030  0.31050  Biso   1.000  H
  H87      1.0000 0.55380  0.36610  0.28670  Biso   1.000  H
  C58      1.0000 0.62513  0.36800  0.21389  Biso   1.000  C
  C59      1.0000 0.60070  0.31146  0.18201  Biso   1.000  C
  H88      1.0000 0.56210  0.28980  0.19920  Biso   1.000  H
  C60      1.0000 0.52367  0.47171  0.19927  Biso   1.000  C
  H89      1.0000 0.49870  0.42990  0.19100  Biso   1.000  H
  H90      1.0000 0.55570  0.47780  0.16210  Biso   1.000  H
  O15      1.0000 0.47942  0.42064  0.38995  Biso   1.000  O
  N16      1.0000 0.56000  0.96527  0.76010  Biso   1.000  N
  H91      1.0000 0.60510  0.98910  0.75900  Biso   1.000  H
  C61      1.0000 0.58997  0.89700  0.77289  Biso   1.000  C
  H92      1.0000 0.62190  0.90030  0.81050  Biso   1.000  H
  H93      1.0000 0.55380  0.86610  0.78670  Biso   1.000  H
  C62      1.0000 0.62513  0.86800  0.71389  Biso   1.000  C
  C63      1.0000 0.60070  0.81146  0.68201  Biso   1.000  C
  H94      1.0000 0.56210  0.78980  0.69920  Biso   1.000  H
  C64      1.0000 0.52367  0.97171  0.69927  Biso   1.000  C
  H95      1.0000 0.49870  0.92990  0.69100  Biso   1.000  H
  H96      1.0000 0.55570  0.97780  0.66210  Biso   1.000  H
  O16      1.0000 0.47942  0.92064  0.88995  Biso   1.000  O
  N17      1.0000 0.23990  0.06000  0.53473  Biso   1.000  N
  H97      1.0000 0.24100  0.10510  0.51090  Biso   1.000  H
  C65      1.0000 0.22711  0.08997  0.60300  Biso   1.000  C
  H98      1.0000 0.18950  0.12190  0.59970  Biso   1.000  H
  H99      1.0000 0.21330  0.05380  0.63390  Biso   1.000  H
  C66      1.0000 0.28611  0.12513  0.63200  Biso   1.000  C
  C67      1.0000 0.31799  0.10070  0.68854  Biso   1.000  C
  H100     1.0000 0.30080  0.06210  0.71020  Biso   1.000  H
  C68      1.0000 0.30073  0.02367  0.52829  Biso   1.000  C
  H101     1.0000 0.30900  0.99870  0.57010  Biso   1.000  H
  H102     1.0000 0.33790  0.05570  0.52220  Biso   1.000  H
  O17      1.0000 0.11005  0.97942  0.57936  Biso   1.000  O
  N18      1.0000 0.23990  0.56000  0.03473  Biso   1.000  N
  H103     1.0000 0.24100  0.60510  0.01090  Biso   1.000  H
  C69      1.0000 0.22711  0.58997  0.10300  Biso   1.000  C
  H104     1.0000 0.18950  0.62190  0.09970  Biso   1.000  H
  H105     1.0000 0.21330  0.55380  0.13390  Biso   1.000  H
  C70      1.0000 0.28611  0.62513  0.13200  Biso   1.000  C
  C71      1.0000 0.31799  0.60070  0.18854  Biso   1.000  C
  H106     1.0000 0.30080  0.56210  0.21020  Biso   1.000  H
  C72      1.0000 0.30073  0.52367  0.02829  Biso   1.000  C
  H107     1.0000 0.30900  0.49870  0.07010  Biso   1.000  H
  H108     1.0000 0.33790  0.55570  0.02220  Biso   1.000  H
  O18      1.0000 0.11005  0.47942  0.07936  Biso   1.000  O
  N19      1.0000 0.73990  0.06000  0.03473  Biso   1.000  N
  H109     1.0000 0.74100  0.10510  0.01090  Biso   1.000  H
  C73      1.0000 0.72711  0.08997  0.10300  Biso   1.000  C
  H110     1.0000 0.68950  0.12190  0.09970  Biso   1.000  H
  H111     1.0000 0.71330  0.05380  0.13390  Biso   1.000  H
  C74      1.0000 0.78611  0.12513  0.13200  Biso   1.000  C
  C75      1.0000 0.81799  0.10070  0.18854  Biso   1.000  C
  H112     1.0000 0.80080  0.06210  0.21020  Biso   1.000  H
  C76      1.0000 0.80073  0.02367  0.02829  Biso   1.000  C
  H113     1.0000 0.80900  0.99870  0.07010  Biso   1.000  H
  H114     1.0000 0.83790  0.05570  0.02220  Biso   1.000  H
  O19      1.0000 0.61005  0.97942  0.07936  Biso   1.000  O
  N20      1.0000 0.73990  0.56000  0.53473  Biso   1.000  N
  H115     1.0000 0.74100  0.60510  0.51090  Biso   1.000  H
  C77      1.0000 0.72711  0.58997  0.60300  Biso   1.000  C
  H116     1.0000 0.68950  0.62190  0.59970  Biso   1.000  H
  H117     1.0000 0.71330  0.55380  0.63390  Biso   1.000  H
  C78      1.0000 0.78611  0.62513  0.63200  Biso   1.000  C
  C79      1.0000 0.81799  0.60070  0.68854  Biso   1.000  C
  H118     1.0000 0.80080  0.56210  0.71020  Biso   1.000  H
  C80      1.0000 0.80073  0.52367  0.52829  Biso   1.000  C
  H119     1.0000 0.80900  0.49870  0.57010  Biso   1.000  H
  H120     1.0000 0.83790  0.55570  0.52220  Biso   1.000  H
  O20      1.0000 0.61005  0.47942  0.57936  Biso   1.000  O
  N21      1.0000 0.23990  0.94000  0.46527  Biso   1.000  N
  H121     1.0000 0.24100  0.89490  0.48910  Biso   1.000  H
  C81      1.0000 0.22711  0.91003  0.39700  Biso   1.000  C
  H122     1.0000 0.18950  0.87810  0.40030  Biso   1.000  H
  H123     1.0000 0.21330  0.94620  0.36610  Biso   1.000  H
  C82      1.0000 0.28611  0.87487  0.36800  Biso   1.000  C
  C83      1.0000 0.31799  0.89930  0.31146  Biso   1.000  C
  H124     1.0000 0.30080  0.93790  0.28980  Biso   1.000  H
  C84      1.0000 0.30073  0.97633  0.47171  Biso   1.000  C
  H125     1.0000 0.30900  0.00130  0.42990  Biso   1.000  H
  H126     1.0000 0.33790  0.94430  0.47780  Biso   1.000  H
  O21      1.0000 0.11005  0.02058  0.42064  Biso   1.000  O
  N22      1.0000 0.23990  0.44000  0.96527  Biso   1.000  N
  H127     1.0000 0.24100  0.39490  0.98910  Biso   1.000  H
  C85      1.0000 0.22711  0.41003  0.89700  Biso   1.000  C
  H128     1.0000 0.18950  0.37810  0.90030  Biso   1.000  H
  H129     1.0000 0.21330  0.44620  0.86610  Biso   1.000  H
  C86      1.0000 0.28611  0.37487  0.86800  Biso   1.000  C
  C87      1.0000 0.31799  0.39930  0.81146  Biso   1.000  C
  H130     1.0000 0.30080  0.43790  0.78980  Biso   1.000  H
  C88      1.0000 0.30073  0.47633  0.97171  Biso   1.000  C
  H131     1.0000 0.30900  0.50130  0.92990  Biso   1.000  H
  H132     1.0000 0.33790  0.44430  0.97780  Biso   1.000  H
  O22      1.0000 0.11005  0.52058  0.92064  Biso   1.000  O
  N23      1.0000 0.73990  0.94000  0.96527  Biso   1.000  N
  H133     1.0000 0.74100  0.89490  0.98910  Biso   1.000  H
  C89      1.0000 0.72711  0.91003  0.89700  Biso   1.000  C
  H134     1.0000 0.68950  0.87810  0.90030  Biso   1.000  H
  H135     1.0000 0.71330  0.94620  0.86610  Biso   1.000  H
  C90      1.0000 0.78611  0.87487  0.86800  Biso   1.000  C
  C91      1.0000 0.81799  0.89930  0.81146  Biso   1.000  C
  H136     1.0000 0.80080  0.93790  0.78980  Biso   1.000  H
  C92      1.0000 0.80073  0.97633  0.97171  Biso   1.000  C
  H137     1.0000 0.80900  0.00130  0.92990  Biso   1.000  H
  H138     1.0000 0.83790  0.94430  0.97780  Biso   1.000  H
  O23      1.0000 0.61005  0.02058  0.92064  Biso   1.000  O
  N24      1.0000 0.73990  0.44000  0.46527  Biso   1.000  N
  H139     1.0000 0.74100  0.39490  0.48910  Biso   1.000  H
  C93      1.0000 0.72711  0.41003  0.39700  Biso   1.000  C
  H140     1.0000 0.68950  0.37810  0.40030  Biso   1.000  H
  H141     1.0000 0.71330  0.44620  0.36610  Biso   1.000  H
  C94      1.0000 0.78611  0.37487  0.36800  Biso   1.000  C
  C95      1.0000 0.81799  0.39930  0.31146  Biso   1.000  C
  H142     1.0000 0.80080  0.43790  0.28980  Biso   1.000  H
  C96      1.0000 0.80073  0.47633  0.47171  Biso   1.000  C
  H143     1.0000 0.80900  0.50130  0.42990  Biso   1.000  H
  H144     1.0000 0.83790  0.44430  0.47780  Biso   1.000  H
  O24      1.0000 0.61005  0.52058  0.42064  Biso   1.000  O
  N25      1.0000 0.76010  0.94000  0.53473  Biso   1.000  N
  H145     1.0000 0.75900  0.89490  0.51090  Biso   1.000  H
  C97      1.0000 0.77289  0.91003  0.60300  Biso   1.000  C
  H146     1.0000 0.81050  0.87810  0.59970  Biso   1.000  H
  H147     1.0000 0.78670  0.94620  0.63390  Biso   1.000  H
  C98      1.0000 0.71389  0.87487  0.63200  Biso   1.000  C
  C99      1.0000 0.68201  0.89930  0.68854  Biso   1.000  C
  H148     1.0000 0.69920  0.93790  0.71020  Biso   1.000  H
  C100     1.0000 0.69927  0.97633  0.52829  Biso   1.000  C
  H149     1.0000 0.69100  0.00130  0.57010  Biso   1.000  H
  H150     1.0000 0.66210  0.94430  0.52220  Biso   1.000  H
  O25      1.0000 0.88995  0.02058  0.57936  Biso   1.000  O
  N26      1.0000 0.76010  0.44000  0.03473  Biso   1.000  N
  H151     1.0000 0.75900  0.39490  0.01090  Biso   1.000  H
  C101     1.0000 0.77289  0.41003  0.10300  Biso   1.000  C
  H152     1.0000 0.81050  0.37810  0.09970  Biso   1.000  H
  H153     1.0000 0.78670  0.44620  0.13390  Biso   1.000  H
  C102     1.0000 0.71389  0.37487  0.13200  Biso   1.000  C
  C103     1.0000 0.68201  0.39930  0.18854  Biso   1.000  C
  H154     1.0000 0.69920  0.43790  0.21020  Biso   1.000  H
  C104     1.0000 0.69927  0.47633  0.02829  Biso   1.000  C
  H155     1.0000 0.69100  0.50130  0.07010  Biso   1.000  H
  H156     1.0000 0.66210  0.44430  0.02220  Biso   1.000  H
  O26      1.0000 0.88995  0.52058  0.07936  Biso   1.000  O
  N27      1.0000 0.26010  0.94000  0.03473  Biso   1.000  N
  H157     1.0000 0.25900  0.89490  0.01090  Biso   1.000  H
  C105     1.0000 0.27289  0.91003  0.10300  Biso   1.000  C
  H158     1.0000 0.31050  0.87810  0.09970  Biso   1.000  H
  H159     1.0000 0.28670  0.94620  0.13390  Biso   1.000  H
  C106     1.0000 0.21389  0.87487  0.13200  Biso   1.000  C
  C107     1.0000 0.18201  0.89930  0.18854  Biso   1.000  C
  H160     1.0000 0.19920  0.93790  0.21020  Biso   1.000  H
  C108     1.0000 0.19927  0.97633  0.02829  Biso   1.000  C
  H161     1.0000 0.19100  0.00130  0.07010  Biso   1.000  H
  H162     1.0000 0.16210  0.94430  0.02220  Biso   1.000  H
  O27      1.0000 0.38995  0.02058  0.07936  Biso   1.000  O
  N28      1.0000 0.26010  0.44000  0.53473  Biso   1.000  N
  H163     1.0000 0.25900  0.39490  0.51090  Biso   1.000  H
  C109     1.0000 0.27289  0.41003  0.60300  Biso   1.000  C
  H164     1.0000 0.31050  0.37810  0.59970  Biso   1.000  H
  H165     1.0000 0.28670  0.44620  0.63390  Biso   1.000  H
  C110     1.0000 0.21389  0.37487  0.63200  Biso   1.000  C
  C111     1.0000 0.18201  0.39930  0.68854  Biso   1.000  C
  H166     1.0000 0.19920  0.43790  0.71020  Biso   1.000  H
  C112     1.0000 0.19927  0.47633  0.52829  Biso   1.000  C
  H167     1.0000 0.19100  0.50130  0.57010  Biso   1.000  H
  H168     1.0000 0.16210  0.44430  0.52220  Biso   1.000  H
  O28      1.0000 0.38995  0.52058  0.57936  Biso   1.000  O
  N29      1.0000 0.76010  0.06000  0.46527  Biso   1.000  N
  H169     1.0000 0.75900  0.10510  0.48910  Biso   1.000  H
  C113     1.0000 0.77289  0.08997  0.39700  Biso   1.000  C
  H170     1.0000 0.81050  0.12190  0.40030  Biso   1.000  H
  H171     1.0000 0.78670  0.05380  0.36610  Biso   1.000  H
  C114     1.0000 0.71389  0.12513  0.36800  Biso   1.000  C
  C115     1.0000 0.68201  0.10070  0.31146  Biso   1.000  C
  H172     1.0000 0.69920  0.06210  0.28980  Biso   1.000  H
  C116     1.0000 0.69927  0.02367  0.47171  Biso   1.000  C
  H173     1.0000 0.69100  0.99870  0.42990  Biso   1.000  H
  H174     1.0000 0.66210  0.05570  0.47780  Biso   1.000  H
  O29      1.0000 0.88995  0.97942  0.42064  Biso   1.000  O
  N30      1.0000 0.76010  0.56000  0.96527  Biso   1.000  N
  H175     1.0000 0.75900  0.60510  0.98910  Biso   1.000  H
  C117     1.0000 0.77289  0.58997  0.89700  Biso   1.000  C
  H176     1.0000 0.81050  0.62190  0.90030  Biso   1.000  H
  H177     1.0000 0.78670  0.55380  0.86610  Biso   1.000  H
  C118     1.0000 0.71389  0.62513  0.86800  Biso   1.000  C
  C119     1.0000 0.68201  0.60070  0.81146  Biso   1.000  C
  H178     1.0000 0.69920  0.56210  0.78980  Biso   1.000  H
  C120     1.0000 0.69927  0.52367  0.97171  Biso   1.000  C
  H179     1.0000 0.69100  0.49870  0.92990  Biso   1.000  H
  H180     1.0000 0.66210  0.55570  0.97780  Biso   1.000  H
  O30      1.0000 0.88995  0.47942  0.92064  Biso   1.000  O
  N31      1.0000 0.26010  0.06000  0.96527  Biso   1.000  N
  H181     1.0000 0.25900  0.10510  0.98910  Biso   1.000  H
  C121     1.0000 0.27289  0.08997  0.89700  Biso   1.000  C
  H182     1.0000 0.31050  0.12190  0.90030  Biso   1.000  H
  H183     1.0000 0.28670  0.05380  0.86610  Biso   1.000  H
  C122     1.0000 0.21389  0.12513  0.86800  Biso   1.000  C
  C123     1.0000 0.18201  0.10070  0.81146  Biso   1.000  C
  H184     1.0000 0.19920  0.06210  0.78980  Biso   1.000  H
  C124     1.0000 0.19927  0.02367  0.97171  Biso   1.000  C
  H185     1.0000 0.19100  0.99870  0.92990  Biso   1.000  H
  H186     1.0000 0.16210  0.05570  0.97780  Biso   1.000  H
  O31      1.0000 0.38995  0.97942  0.92064  Biso   1.000  O
  N32      1.0000 0.26010  0.56000  0.46527  Biso   1.000  N
  H187     1.0000 0.25900  0.60510  0.48910  Biso   1.000  H
  C125     1.0000 0.27289  0.58997  0.39700  Biso   1.000  C
  H188     1.0000 0.31050  0.62190  0.40030  Biso   1.000  H
  H189     1.0000 0.28670  0.55380  0.36610  Biso   1.000  H
  C126     1.0000 0.21389  0.62513  0.36800  Biso   1.000  C
  C127     1.0000 0.18201  0.60070  0.31146  Biso   1.000  C
  H190     1.0000 0.19920  0.56210  0.28980  Biso   1.000  H
  C128     1.0000 0.19927  0.52367  0.47171  Biso   1.000  C
  H191     1.0000 0.19100  0.49870  0.42990  Biso   1.000  H
  H192     1.0000 0.16210  0.55570  0.47780  Biso   1.000  H
  O32      1.0000 0.38995  0.47942  0.42064  Biso   1.000  O
  N33      1.0000 0.53473  0.23990  0.06000  Biso   1.000  N
  H193     1.0000 0.51090  0.24100  0.10510  Biso   1.000  H
  C129     1.0000 0.60300  0.22711  0.08997  Biso   1.000  C
  H194     1.0000 0.59970  0.18950  0.12190  Biso   1.000  H
  H195     1.0000 0.63390  0.21330  0.05380  Biso   1.000  H
  C130     1.0000 0.63200  0.28611  0.12513  Biso   1.000  C
  C131     1.0000 0.68854  0.31799  0.10070  Biso   1.000  C
  H196     1.0000 0.71020  0.30080  0.06210  Biso   1.000  H
  C132     1.0000 0.52829  0.30073  0.02367  Biso   1.000  C
  H197     1.0000 0.57010  0.30900  0.99870  Biso   1.000  H
  H198     1.0000 0.52220  0.33790  0.05570  Biso   1.000  H
  O33      1.0000 0.57936  0.11005  0.97942  Biso   1.000  O
  N34      1.0000 0.53473  0.73990  0.56000  Biso   1.000  N
  H199     1.0000 0.51090  0.74100  0.60510  Biso   1.000  H
  C133     1.0000 0.60300  0.72711  0.58997  Biso   1.000  C
  H200     1.0000 0.59970  0.68950  0.62190  Biso   1.000  H
  H201     1.0000 0.63390  0.71330  0.55380  Biso   1.000  H
  C134     1.0000 0.63200  0.78611  0.62513  Biso   1.000  C
  C135     1.0000 0.68854  0.81799  0.60070  Biso   1.000  C
  H202     1.0000 0.71020  0.80080  0.56210  Biso   1.000  H
  C136     1.0000 0.52829  0.80073  0.52367  Biso   1.000  C
  H203     1.0000 0.57010  0.80900  0.49870  Biso   1.000  H
  H204     1.0000 0.52220  0.83790  0.55570  Biso   1.000  H
  O34      1.0000 0.57936  0.61005  0.47942  Biso   1.000  O
  N35      1.0000 0.03473  0.23990  0.56000  Biso   1.000  N
  H205     1.0000 0.01090  0.24100  0.60510  Biso   1.000  H
  C137     1.0000 0.10300  0.22711  0.58997  Biso   1.000  C
  H206     1.0000 0.09970  0.18950  0.62190  Biso   1.000  H
  H207     1.0000 0.13390  0.21330  0.55380  Biso   1.000  H
  C138     1.0000 0.13200  0.28611  0.62513  Biso   1.000  C
  C139     1.0000 0.18854  0.31799  0.60070  Biso   1.000  C
  H208     1.0000 0.21020  0.30080  0.56210  Biso   1.000  H
  C140     1.0000 0.02829  0.30073  0.52367  Biso   1.000  C
  H209     1.0000 0.07010  0.30900  0.49870  Biso   1.000  H
  H210     1.0000 0.02220  0.33790  0.55570  Biso   1.000  H
  O35      1.0000 0.07936  0.11005  0.47942  Biso   1.000  O
  N36      1.0000 0.03473  0.73990  0.06000  Biso   1.000  N
  H211     1.0000 0.01090  0.74100  0.10510  Biso   1.000  H
  C141     1.0000 0.10300  0.72711  0.08997  Biso   1.000  C
  H212     1.0000 0.09970  0.68950  0.12190  Biso   1.000  H
  H213     1.0000 0.13390  0.71330  0.05380  Biso   1.000  H
  C142     1.0000 0.13200  0.78611  0.12513  Biso   1.000  C
  C143     1.0000 0.18854  0.81799  0.10070  Biso   1.000  C
  H214     1.0000 0.21020  0.80080  0.06210  Biso   1.000  H
  C144     1.0000 0.02829  0.80073  0.02367  Biso   1.000  C
  H215     1.0000 0.07010  0.80900  0.99870  Biso   1.000  H
  H216     1.0000 0.02220  0.83790  0.05570  Biso   1.000  H
  O36      1.0000 0.07936  0.61005  0.97942  Biso   1.000  O
  N37      1.0000 0.46527  0.23990  0.94000  Biso   1.000  N
  H217     1.0000 0.48910  0.24100  0.89490  Biso   1.000  H
  C145     1.0000 0.39700  0.22711  0.91003  Biso   1.000  C
  H218     1.0000 0.40030  0.18950  0.87810  Biso   1.000  H
  H219     1.0000 0.36610  0.21330  0.94620  Biso   1.000  H
  C146     1.0000 0.36800  0.28611  0.87487  Biso   1.000  C
  C147     1.0000 0.31146  0.31799  0.89930  Biso   1.000  C
  H220     1.0000 0.28980  0.30080  0.93790  Biso   1.000  H
  C148     1.0000 0.47171  0.30073  0.97633  Biso   1.000  C
  H221     1.0000 0.42990  0.30900  0.00130  Biso   1.000  H
  H222     1.0000 0.47780  0.33790  0.94430  Biso   1.000  H
  O37      1.0000 0.42064  0.11005  0.02058  Biso   1.000  O
  N38      1.0000 0.46527  0.73990  0.44000  Biso   1.000  N
  H223     1.0000 0.48910  0.74100  0.39490  Biso   1.000  H
  C149     1.0000 0.39700  0.72711  0.41003  Biso   1.000  C
  H224     1.0000 0.40030  0.68950  0.37810  Biso   1.000  H
  H225     1.0000 0.36610  0.71330  0.44620  Biso   1.000  H
  C150     1.0000 0.36800  0.78611  0.37487  Biso   1.000  C
  C151     1.0000 0.31146  0.81799  0.39930  Biso   1.000  C
  H226     1.0000 0.28980  0.80080  0.43790  Biso   1.000  H
  C152     1.0000 0.47171  0.80073  0.47633  Biso   1.000  C
  H227     1.0000 0.42990  0.80900  0.50130  Biso   1.000  H
  H228     1.0000 0.47780  0.83790  0.44430  Biso   1.000  H
  O38      1.0000 0.42064  0.61005  0.52058  Biso   1.000  O
  N39      1.0000 0.96527  0.23990  0.44000  Biso   1.000  N
  H229     1.0000 0.98910  0.24100  0.39490  Biso   1.000  H
  C153     1.0000 0.89700  0.22711  0.41003  Biso   1.000  C
  H230     1.0000 0.90030  0.18950  0.37810  Biso   1.000  H
  H231     1.0000 0.86610  0.21330  0.44620  Biso   1.000  H
  C154     1.0000 0.86800  0.28611  0.37487  Biso   1.000  C
  C155     1.0000 0.81146  0.31799  0.39930  Biso   1.000  C
  H232     1.0000 0.78980  0.30080  0.43790  Biso   1.000  H
  C156     1.0000 0.97171  0.30073  0.47633  Biso   1.000  C
  H233     1.0000 0.92990  0.30900  0.50130  Biso   1.000  H
  H234     1.0000 0.97780  0.33790  0.44430  Biso   1.000  H
  O39      1.0000 0.92064  0.11005  0.52058  Biso   1.000  O
  N40      1.0000 0.96527  0.73990  0.94000  Biso   1.000  N
  H235     1.0000 0.98910  0.74100  0.89490  Biso   1.000  H
  C157     1.0000 0.89700  0.72711  0.91003  Biso   1.000  C
  H236     1.0000 0.90030  0.68950  0.87810  Biso   1.000  H
  H237     1.0000 0.86610  0.71330  0.94620  Biso   1.000  H
  C158     1.0000 0.86800  0.78611  0.87487  Biso   1.000  C
  C159     1.0000 0.81146  0.81799  0.89930  Biso   1.000  C
  H238     1.0000 0.78980  0.80080  0.93790  Biso   1.000  H
  C160     1.0000 0.97171  0.80073  0.97633  Biso   1.000  C
  H239     1.0000 0.92990  0.80900  0.00130  Biso   1.000  H
  H240     1.0000 0.97780  0.83790  0.94430  Biso   1.000  H
  O40      1.0000 0.92064  0.61005  0.02058  Biso   1.000  O
  N41      1.0000 0.53473  0.76010  0.94000  Biso   1.000  N
  H241     1.0000 0.51090  0.75900  0.89490  Biso   1.000  H
  C161     1.0000 0.60300  0.77289  0.91003  Biso   1.000  C
  H242     1.0000 0.59970  0.81050  0.87810  Biso   1.000  H
  H243     1.0000 0.63390  0.78670  0.94620  Biso   1.000  H
  C162     1.0000 0.63200  0.71389  0.87487  Biso   1.000  C
  C163     1.0000 0.68854  0.68201  0.89930  Biso   1.000  C
  H244     1.0000 0.71020  0.69920  0.93790  Biso   1.000  H
  C164     1.0000 0.52829  0.69927  0.97633  Biso   1.000  C
  H245     1.0000 0.57010  0.69100  0.00130  Biso   1.000  H
  H246     1.0000 0.52220  0.66210  0.94430  Biso   1.000  H
  O41      1.0000 0.57936  0.88995  0.02058  Biso   1.000  O
  N42      1.0000 0.53473  0.26010  0.44000  Biso   1.000  N
  H247     1.0000 0.51090  0.25900  0.39490  Biso   1.000  H
  C165     1.0000 0.60300  0.27289  0.41003  Biso   1.000  C
  H248     1.0000 0.59970  0.31050  0.37810  Biso   1.000  H
  H249     1.0000 0.63390  0.28670  0.44620  Biso   1.000  H
  C166     1.0000 0.63200  0.21389  0.37487  Biso   1.000  C
  C167     1.0000 0.68854  0.18201  0.39930  Biso   1.000  C
  H250     1.0000 0.71020  0.19920  0.43790  Biso   1.000  H
  C168     1.0000 0.52829  0.19927  0.47633  Biso   1.000  C
  H251     1.0000 0.57010  0.19100  0.50130  Biso   1.000  H
  H252     1.0000 0.52220  0.16210  0.44430  Biso   1.000  H
  O42      1.0000 0.57936  0.38995  0.52058  Biso   1.000  O
  N43      1.0000 0.03473  0.76010  0.44000  Biso   1.000  N
  H253     1.0000 0.01090  0.75900  0.39490  Biso   1.000  H
  C169     1.0000 0.10300  0.77289  0.41003  Biso   1.000  C
  H254     1.0000 0.09970  0.81050  0.37810  Biso   1.000  H
  H255     1.0000 0.13390  0.78670  0.44620  Biso   1.000  H
  C170     1.0000 0.13200  0.71389  0.37487  Biso   1.000  C
  C171     1.0000 0.18854  0.68201  0.39930  Biso   1.000  C
  H256     1.0000 0.21020  0.69920  0.43790  Biso   1.000  H
  C172     1.0000 0.02829  0.69927  0.47633  Biso   1.000  C
  H257     1.0000 0.07010  0.69100  0.50130  Biso   1.000  H
  H258     1.0000 0.02220  0.66210  0.44430  Biso   1.000  H
  O43      1.0000 0.07936  0.88995  0.52058  Biso   1.000  O
  N44      1.0000 0.03473  0.26010  0.94000  Biso   1.000  N
  H259     1.0000 0.01090  0.25900  0.89490  Biso   1.000  H
  C173     1.0000 0.10300  0.27289  0.91003  Biso   1.000  C
  H260     1.0000 0.09970  0.31050  0.87810  Biso   1.000  H
  H261     1.0000 0.13390  0.28670  0.94620  Biso   1.000  H
  C174     1.0000 0.13200  0.21389  0.87487  Biso   1.000  C
  C175     1.0000 0.18854  0.18201  0.89930  Biso   1.000  C
  H262     1.0000 0.21020  0.19920  0.93790  Biso   1.000  H
  C176     1.0000 0.02829  0.19927  0.97633  Biso   1.000  C
  H263     1.0000 0.07010  0.19100  0.00130  Biso   1.000  H
  H264     1.0000 0.02220  0.16210  0.94430  Biso   1.000  H
  O44      1.0000 0.07936  0.38995  0.02058  Biso   1.000  O
  N45      1.0000 0.46527  0.76010  0.06000  Biso   1.000  N
  H265     1.0000 0.48910  0.75900  0.10510  Biso   1.000  H
  C177     1.0000 0.39700  0.77289  0.08997  Biso   1.000  C
  H266     1.0000 0.40030  0.81050  0.12190  Biso   1.000  H
  H267     1.0000 0.36610  0.78670  0.05380  Biso   1.000  H
  C178     1.0000 0.36800  0.71389  0.12513  Biso   1.000  C
  C179     1.0000 0.31146  0.68201  0.10070  Biso   1.000  C
  H268     1.0000 0.28980  0.69920  0.06210  Biso   1.000  H
  C180     1.0000 0.47171  0.69927  0.02367  Biso   1.000  C
  H269     1.0000 0.42990  0.69100  0.99870  Biso   1.000  H
  H270     1.0000 0.47780  0.66210  0.05570  Biso   1.000  H
  O45      1.0000 0.42064  0.88995  0.97942  Biso   1.000  O
  N46      1.0000 0.46527  0.26010  0.56000  Biso   1.000  N
  H271     1.0000 0.48910  0.25900  0.60510  Biso   1.000  H
  C181     1.0000 0.39700  0.27289  0.58997  Biso   1.000  C
  H272     1.0000 0.40030  0.31050  0.62190  Biso   1.000  H
  H273     1.0000 0.36610  0.28670  0.55380  Biso   1.000  H
  C182     1.0000 0.36800  0.21389  0.62513  Biso   1.000  C
  C183     1.0000 0.31146  0.18201  0.60070  Biso   1.000  C
  H274     1.0000 0.28980  0.19920  0.56210  Biso   1.000  H
  C184     1.0000 0.47171  0.19927  0.52367  Biso   1.000  C
  H275     1.0000 0.42990  0.19100  0.49870  Biso   1.000  H
  H276     1.0000 0.47780  0.16210  0.55570  Biso   1.000  H
  O46      1.0000 0.42064  0.38995  0.47942  Biso   1.000  O
  N47      1.0000 0.96527  0.76010  0.56000  Biso   1.000  N
  H277     1.0000 0.98910  0.75900  0.60510  Biso   1.000  H
  C185     1.0000 0.89700  0.77289  0.58997  Biso   1.000  C
  H278     1.0000 0.90030  0.81050  0.62190  Biso   1.000  H
  H279     1.0000 0.86610  0.78670  0.55380  Biso   1.000  H
  C186     1.0000 0.86800  0.71389  0.62513  Biso   1.000  C
  C187     1.0000 0.81146  0.68201  0.60070  Biso   1.000  C
  H280     1.0000 0.78980  0.69920  0.56210  Biso   1.000  H
  C188     1.0000 0.97171  0.69927  0.52367  Biso   1.000  C
  H281     1.0000 0.92990  0.69100  0.49870  Biso   1.000  H
  H282     1.0000 0.97780  0.66210  0.55570  Biso   1.000  H
  O47      1.0000 0.92064  0.88995  0.47942  Biso   1.000  O
  N48      1.0000 0.96527  0.26010  0.06000  Biso   1.000  N
  H283     1.0000 0.98910  0.25900  0.10510  Biso   1.000  H
  C189     1.0000 0.89700  0.27289  0.08997  Biso   1.000  C
  H284     1.0000 0.90030  0.31050  0.12190  Biso   1.000  H
  H285     1.0000 0.86610  0.28670  0.05380  Biso   1.000  H
  C190     1.0000 0.86800  0.21389  0.12513  Biso   1.000  C
  C191     1.0000 0.81146  0.18201  0.10070  Biso   1.000  C
  H286     1.0000 0.78980  0.19920  0.06210  Biso   1.000  H
  C192     1.0000 0.97171  0.19927  0.02367  Biso   1.000  C
  H287     1.0000 0.92990  0.19100  0.99870  Biso   1.000  H
  H288     1.0000 0.97780  0.16210  0.05570  Biso   1.000  H
  O48      1.0000 0.92064  0.38995  0.97942  Biso   1.000  O
  Zn1      1.0000 0.00000  0.50000  0.16343  Biso   1.000  Zn
  Zn2      1.0000 0.00000  0.00000  0.66343  Biso   1.000  Zn
  Zn3      1.0000 0.50000  0.50000  0.66343  Biso   1.000  Zn
  Zn4      1.0000 0.50000  0.00000  0.16343  Biso   1.000  Zn
  Zn5      1.0000 0.00000  0.50000  0.83657  Biso   1.000  Zn
  Zn6      1.0000 0.00000  0.00000  0.33657  Biso   1.000  Zn
  Zn7      1.0000 0.50000  0.50000  0.33657  Biso   1.000  Zn
  Zn8      1.0000 0.50000  0.00000  0.83657  Biso   1.000  Zn
  Zn9      1.0000 0.16343  0.00000  0.50000  Biso   1.000  Zn
  Zn10     1.0000 0.16343  0.50000  0.00000  Biso   1.000  Zn
  Zn11     1.0000 0.66343  0.00000  0.00000  Biso   1.000  Zn
  Zn12     1.0000 0.66343  0.50000  0.50000  Biso   1.000  Zn
  Zn13     1.0000 0.83657  0.00000  0.50000  Biso   1.000  Zn
  Zn14     1.0000 0.83657  0.50000  0.00000  Biso   1.000  Zn
  Zn15     1.0000 0.33657  0.00000  0.00000  Biso   1.000  Zn
  Zn16     1.0000 0.33657  0.50000  0.50000  Biso   1.000  Zn
  Zn17     1.0000 0.50000  0.16343  0.00000  Biso   1.000  Zn
  Zn18     1.0000 0.50000  0.66343  0.50000  Biso   1.000  Zn
  Zn19     1.0000 0.00000  0.16343  0.50000  Biso   1.000  Zn
  Zn20     1.0000 0.00000  0.66343  0.00000  Biso   1.000  Zn
  Zn21     1.0000 0.50000  0.83657  0.00000  Biso   1.000  Zn
  Zn22     1.0000 0.50000  0.33657  0.50000  Biso   1.000  Zn
  Zn23     1.0000 0.00000  0.83657  0.50000  Biso   1.000  Zn
  Zn24     1.0000 0.00000  0.33657  0.00000  Biso   1.000  Zn
  C193     1.0000 0.92998  0.57002  0.07002  Biso   1.000  C
  C194     1.0000 0.07002  0.42998  0.07002  Biso   1.000  C
  C195     1.0000 0.07002  0.57002  0.92998  Biso   1.000  C
  C196     1.0000 0.92998  0.42998  0.92998  Biso   1.000  C
  C197     1.0000 0.07002  0.92998  0.57002  Biso   1.000  C
  C198     1.0000 0.07002  0.07002  0.42998  Biso   1.000  C
  C199     1.0000 0.92998  0.07002  0.57002  Biso   1.000  C
  C200     1.0000 0.92998  0.92998  0.42998  Biso   1.000  C
  C201     1.0000 0.57002  0.07002  0.92998  Biso   1.000  C
  C202     1.0000 0.57002  0.57002  0.42998  Biso   1.000  C
  C203     1.0000 0.42998  0.07002  0.07002  Biso   1.000  C
  C204     1.0000 0.42998  0.57002  0.57002  Biso   1.000  C
  C205     1.0000 0.57002  0.92998  0.07002  Biso   1.000  C
  C206     1.0000 0.57002  0.42998  0.57002  Biso   1.000  C
  C207     1.0000 0.42998  0.92998  0.92998  Biso   1.000  C
  C208     1.0000 0.42998  0.42998  0.42998  Biso   1.000  C
