data_image0
_cell_length_a       9.116
_cell_length_b       15.128
_cell_length_c       18.517
_cell_angle_alpha    102.48
_cell_angle_beta     99.371
_cell_angle_gamma    106.819

_symmetry_space_group_name_H-M    "P 1"
_symmetry_int_tables_number       1

loop_
  _symmetry_equiv_pos_as_xyz
  'x, y, z'

loop_
  _atom_site_label
  _atom_site_occupancy
  _atom_site_fract_x
  _atom_site_fract_y
  _atom_site_fract_z
  _atom_site_thermal_displace_type
  _atom_site_B_iso_or_equiv
  _atom_site_type_symbol
  C1       1.0000 0.16240  0.65260  0.62850  Biso   1.000  C
  C2       1.0000 0.23700  0.72660  0.70480  Biso   1.000  C
  C3       1.0000 0.39550  0.74750  0.74290  Biso   1.000  C
  H1       1.0000 0.45930  0.71640  0.71920  Biso   1.000  H
  C4       1.0000 0.45920  0.81310  0.81460  Biso   1.000  C
  H2       1.0000 0.56710  0.82880  0.83920  Biso   1.000  H
  C5       1.0000 0.36370  0.85550  0.85000  Biso   1.000  C
  C6       1.0000 0.20600  0.83670  0.81290  Biso   1.000  C
  H3       1.0000 0.14120  0.86670  0.83680  Biso   1.000  H
  C7       1.0000 0.14800  0.77320  0.74050  Biso   1.000  C
  H4       1.0000 0.04240  0.76130  0.71440  Biso   1.000  H
  C8       1.0000 0.57490  0.00100  0.94070  Biso   1.000  C
  H5       1.0000 0.62830  0.00170  0.90080  Biso   1.000  H
  C9       1.0000 0.42930  0.92700  0.92780  Biso   1.000  C
  C10      1.0000 0.35560  0.92670  0.99020  Biso   1.000  C
  C11      1.0000 0.21880  0.81030  0.07660  Biso   1.000  C
  H6       1.0000 0.32720  0.80980  0.08900  Biso   1.000  H
  H7       1.0000 0.14490  0.74820  0.07570  Biso   1.000  H
  H8       1.0000 0.20680  0.86170  0.11510  Biso   1.000  H
  C12      1.0000 0.56250  0.54810  0.62130  Biso   1.000  C
  C13      1.0000 0.60440  0.56600  0.70660  Biso   1.000  C
  C14      1.0000 0.51340  0.50440  0.73980  Biso   1.000  C
  H9       1.0000 0.42160  0.45370  0.70840  Biso   1.000  H
  C15      1.0000 0.55170  0.51390  0.81920  Biso   1.000  C
  H10      1.0000 0.48980  0.46980  0.84110  Biso   1.000  H
  C16      1.0000 0.68550  0.59150  0.86370  Biso   1.000  C
  C17      1.0000 0.77520  0.65350  0.83000  Biso   1.000  C
  H11      1.0000 0.86510  0.70560  0.86120  Biso   1.000  H
  C18      1.0000 0.73820  0.64200  0.75160  Biso   1.000  C
  H12      1.0000 0.80230  0.68470  0.72950  Biso   1.000  H
  C19      1.0000 0.73770  0.59820  0.94790  Biso   1.000  C
  C20      1.0000 0.75470  0.51870  0.96870  Biso   1.000  C
  H13      1.0000 0.72250  0.45950  0.93010  Biso   1.000  H
  C21      1.0000 0.81710  0.52060  0.04410  Biso   1.000  C
  C22      1.0000 0.86070  0.60890  0.10300  Biso   1.000  C
  C23      1.0000 0.83140  0.68730  0.08360  Biso   1.000  C
  H14      1.0000 0.85190  0.74440  0.12290  Biso   1.000  H
  C24      1.0000 0.77190  0.68470  0.00710  Biso   1.000  C
  C25      1.0000 0.73740  0.38550  0.12880  Biso   1.000  C
  H15      1.0000 0.77460  0.44160  0.17360  Biso   1.000  H
  H16      1.0000 0.75620  0.33060  0.14360  Biso   1.000  H
  H17      1.0000 0.62410  0.36990  0.10800  Biso   1.000  H
  C26      1.0000 0.66520  0.83470  0.06660  Biso   1.000  C
  H18      1.0000 0.57220  0.78500  0.07030  Biso   1.000  H
  H19      1.0000 0.63670  0.89070  0.06010  Biso   1.000  H
  H20      1.0000 0.74870  0.85390  0.11330  Biso   1.000  H
  C27      1.0000 0.93840  0.61540  0.18210  Biso   1.000  C
  C28      1.0000 0.07440  0.59270  0.19730  Biso   1.000  C
  H21      1.0000 0.12530  0.57930  0.15740  Biso   1.000  H
  C29      1.0000 0.13900  0.58910  0.27010  Biso   1.000  C
  H22      1.0000 0.23470  0.57570  0.28010  Biso   1.000  H
  C30      1.0000 0.06040  0.60530  0.32780  Biso   1.000  C
  C31      1.0000 0.92900  0.63390  0.31410  Biso   1.000  C
  H23      1.0000 0.87990  0.64920  0.35430  Biso   1.000  H
  C32      1.0000 0.86860  0.64050  0.24190  Biso   1.000  C
  H24      1.0000 0.78060  0.66180  0.23340  Biso   1.000  H
  C33      1.0000 0.11340  0.58320  0.40070  Biso   1.000  C
  O1       1.0000 0.25090  0.61310  0.59370  Biso   1.000  O
  O2       1.0000 0.01660  0.63490  0.60170  Biso   1.000  O
  O3       1.0000 0.43080  0.48880  0.58400  Biso   1.000  O
  O4       1.0000 0.66510  0.59490  0.59160  Biso   1.000  O
  O5       1.0000 0.24990  0.57440  0.41840  Biso   1.000  O
  O6       1.0000 0.01730  0.56560  0.44340  Biso   1.000  O
  S1       1.0000 0.17700  0.83120  0.98355  Biso   1.000  S
  S2       1.0000 0.84450  0.41270  0.05616  Biso   1.000  S
  S3       1.0000 0.73600  0.78700  0.98473  Biso   1.000  S
  Cu1      1.0000 0.97885  0.90229  0.99124  Biso   1.000  Cu
  I1       1.0000 0.93109  0.97145  0.87279  Biso   1.000  I
  Eu1      1.0000 0.19898  0.46633  0.49847  Biso   1.000  Eu
  C34      1.0000 0.83760  0.34740  0.37150  Biso   1.000  C
  C35      1.0000 0.76300  0.27340  0.29520  Biso   1.000  C
  C36      1.0000 0.60450  0.25250  0.25710  Biso   1.000  C
  H25      1.0000 0.54070  0.28360  0.28080  Biso   1.000  H
  C37      1.0000 0.54080  0.18690  0.18540  Biso   1.000  C
  H26      1.0000 0.43290  0.17120  0.16080  Biso   1.000  H
  C38      1.0000 0.63630  0.14450  0.15000  Biso   1.000  C
  C39      1.0000 0.79400  0.16330  0.18710  Biso   1.000  C
  H27      1.0000 0.85880  0.13330  0.16320  Biso   1.000  H
  C40      1.0000 0.85200  0.22680  0.25950  Biso   1.000  C
  H28      1.0000 0.95760  0.23870  0.28560  Biso   1.000  H
  C41      1.0000 0.42510  0.99900  0.05930  Biso   1.000  C
  H29      1.0000 0.37170  0.99830  0.09920  Biso   1.000  H
  C42      1.0000 0.57070  0.07300  0.07220  Biso   1.000  C
  C43      1.0000 0.64440  0.07330  0.00980  Biso   1.000  C
  C44      1.0000 0.78120  0.18970  0.92340  Biso   1.000  C
  H30      1.0000 0.67280  0.19020  0.91100  Biso   1.000  H
  H31      1.0000 0.85510  0.25180  0.92430  Biso   1.000  H
  H32      1.0000 0.79320  0.13830  0.88490  Biso   1.000  H
  C45      1.0000 0.43750  0.45190  0.37870  Biso   1.000  C
  C46      1.0000 0.39560  0.43400  0.29340  Biso   1.000  C
  C47      1.0000 0.48660  0.49560  0.26020  Biso   1.000  C
  H33      1.0000 0.57840  0.54630  0.29160  Biso   1.000  H
  C48      1.0000 0.44830  0.48610  0.18080  Biso   1.000  C
  H34      1.0000 0.51020  0.53020  0.15890  Biso   1.000  H
  C49      1.0000 0.31450  0.40850  0.13630  Biso   1.000  C
  C50      1.0000 0.22480  0.34650  0.17000  Biso   1.000  C
  H35      1.0000 0.13490  0.29440  0.13880  Biso   1.000  H
  C51      1.0000 0.26180  0.35800  0.24840  Biso   1.000  C
  H36      1.0000 0.19770  0.31530  0.27050  Biso   1.000  H
  C52      1.0000 0.26230  0.40180  0.05210  Biso   1.000  C
  C53      1.0000 0.24530  0.48130  0.03130  Biso   1.000  C
  H37      1.0000 0.27750  0.54050  0.06990  Biso   1.000  H
  C54      1.0000 0.18290  0.47940  0.95590  Biso   1.000  C
  C55      1.0000 0.13930  0.39110  0.89700  Biso   1.000  C
  C56      1.0000 0.16860  0.31270  0.91640  Biso   1.000  C
  H38      1.0000 0.14810  0.25560  0.87710  Biso   1.000  H
  C57      1.0000 0.22810  0.31530  0.99290  Biso   1.000  C
  C58      1.0000 0.26260  0.61450  0.87120  Biso   1.000  C
  H39      1.0000 0.22540  0.55840  0.82640  Biso   1.000  H
  H40      1.0000 0.24380  0.66940  0.85640  Biso   1.000  H
  H41      1.0000 0.37590  0.63010  0.89200  Biso   1.000  H
  C59      1.0000 0.33480  0.16530  0.93340  Biso   1.000  C
  H42      1.0000 0.42780  0.21500  0.92970  Biso   1.000  H
  H43      1.0000 0.36330  0.10930  0.93990  Biso   1.000  H
  H44      1.0000 0.25130  0.14610  0.88670  Biso   1.000  H
  C60      1.0000 0.06160  0.38460  0.81790  Biso   1.000  C
  C61      1.0000 0.92560  0.40730  0.80270  Biso   1.000  C
  H45      1.0000 0.87470  0.42070  0.84260  Biso   1.000  H
  C62      1.0000 0.86100  0.41090  0.72990  Biso   1.000  C
  H46      1.0000 0.76530  0.42430  0.71990  Biso   1.000  H
  C63      1.0000 0.93960  0.39470  0.67220  Biso   1.000  C
  C64      1.0000 0.07100  0.36610  0.68590  Biso   1.000  C
  H47      1.0000 0.12010  0.35080  0.64570  Biso   1.000  H
  C65      1.0000 0.13140  0.35950  0.75810  Biso   1.000  C
  H48      1.0000 0.21940  0.33820  0.76660  Biso   1.000  H
  C66      1.0000 0.88660  0.41680  0.59930  Biso   1.000  C
  O7       1.0000 0.74910  0.38690  0.40630  Biso   1.000  O
  O8       1.0000 0.98340  0.36510  0.39830  Biso   1.000  O
  O9       1.0000 0.56920  0.51120  0.41600  Biso   1.000  O
  O10      1.0000 0.33490  0.40510  0.40840  Biso   1.000  O
  O11      1.0000 0.75010  0.42560  0.58160  Biso   1.000  O
  O12      1.0000 0.98270  0.43440  0.55660  Biso   1.000  O
  S4       1.0000 0.82300  0.16880  0.01645  Biso   1.000  S
  S5       1.0000 0.15550  0.58730  0.94384  Biso   1.000  S
  S6       1.0000 0.26400  0.21300  0.01527  Biso   1.000  S
  Cu2      1.0000 0.02115  0.09771  0.00876  Biso   1.000  Cu
  I2       1.0000 0.06891  0.02855  0.12721  Biso   1.000  I
  Eu2      1.0000 0.80102  0.53367  0.50153  Biso   1.000  Eu
