data_UBACOR_clean
_audit_creation_date              2014-07-02
_audit_creation_method            'Materials Studio'
_symmetry_space_group_name_H-M    'P1'
_symmetry_Int_Tables_number       1
_symmetry_cell_setting            triclinic
loop_
_symmetry_equiv_pos_as_xyz
  x,y,z
_cell_length_a                    13.9960
_cell_length_b                    14.6219
_cell_length_c                    18.5851
_cell_angle_alpha                 69.1245
_cell_angle_beta                  67.8805
_cell_angle_gamma                 61.4061
loop_
_atom_site_label
_atom_site_type_symbol
_atom_site_fract_x
_atom_site_fract_y
_atom_site_fract_z
_atom_site_U_iso_or_equiv
_atom_site_adp_type
_atom_site_occupancy
Zn1    Zn    0.38087   0.43628   0.10158   0.01267  Uiso   1.00
Zn2    Zn    0.56718   0.23608   0.31568   0.01267  Uiso   1.00
Zn3    Zn    0.91873   0.06372   0.39842   0.01267  Uiso   1.00
Zn4    Zn    0.11894   0.26392   0.18432   0.01267  Uiso   1.00
Zn5    Zn    0.61913   0.56372   0.89842   0.01267  Uiso   1.00
Zn6    Zn    0.43282   0.76392   0.68432   0.01267  Uiso   1.00
Zn7    Zn    0.08127   0.93628   0.60158   0.01267  Uiso   1.00
Zn8    Zn    0.88106   0.73608   0.81568   0.01267  Uiso   1.00
H1     H     0.49090   0.58920   0.20900   0.01267  Uiso   1.00
H2     H     0.59440   0.64300   0.24540   0.01267  Uiso   1.00
H3     H     0.78320   0.53650   0.23870   0.01267  Uiso   1.00
H4     H     0.89770   0.03100   0.17700   0.01267  Uiso   1.00
H5     H     0.90650   0.05640   0.04500   0.01267  Uiso   1.00
H6     H     0.83490   0.22770   0.97150   0.01267  Uiso   1.00
H7     H     0.38960   0.36310   0.96850   0.01267  Uiso   1.00
H8     H     0.48030   0.21650   0.91250   0.01267  Uiso   1.00
H9     H     0.66760   0.07390   0.07070   0.01267  Uiso   1.00
H10    H     0.56680   0.22450   0.12330   0.01267  Uiso   1.00
H11    H     0.90950   0.86680   0.89120   0.01267  Uiso   1.00
H12    H     0.80790   0.00870   0.95130   0.01267  Uiso   1.00
H13    H     0.52980   0.03250   0.91870   0.01267  Uiso   1.00
H14    H     0.63730   0.88020   0.86900   0.01267  Uiso   1.00
H15    H     0.28910   0.91080   0.29100   0.01267  Uiso   1.00
H16    H     0.48280   0.85700   0.25460   0.01267  Uiso   1.00
H17    H     0.55840   0.96350   0.26130   0.01267  Uiso   1.00
H18    H     0.10570   0.46900   0.32300   0.01267  Uiso   1.00
H19    H     0.00790   0.44360   0.45500   0.01267  Uiso   1.00
H20    H     0.03410   0.27230   0.52850   0.01267  Uiso   1.00
H21    H     0.72120   0.13690   0.53150   0.01267  Uiso   1.00
H22    H     0.60930   0.28350   0.58750   0.01267  Uiso   1.00
H23    H     0.81220   0.42610   0.42930   0.01267  Uiso   1.00
H24    H     0.91460   0.27550   0.37670   0.01267  Uiso   1.00
H25    H     0.66750   0.63320   0.60880   0.01267  Uiso   1.00
H26    H     0.76790   0.49130   0.54870   0.01267  Uiso   1.00
H27    H     0.48100   0.46750   0.58130   0.01267  Uiso   1.00
H28    H     0.38650   0.61980   0.63100   0.01267  Uiso   1.00
H29    H     0.50910   0.41080   0.79100   0.01267  Uiso   1.00
H30    H     0.40560   0.35700   0.75460   0.01267  Uiso   1.00
H31    H     0.21680   0.46350   0.76130   0.01267  Uiso   1.00
H32    H     0.10230   0.96900   0.82300   0.01267  Uiso   1.00
H33    H     0.09350   0.94360   0.95500   0.01267  Uiso   1.00
H34    H     0.16510   0.77230   0.02850   0.01267  Uiso   1.00
H35    H     0.61040   0.63690   0.03150   0.01267  Uiso   1.00
H36    H     0.51970   0.78350   0.08750   0.01267  Uiso   1.00
H37    H     0.33240   0.92610   0.92930   0.01267  Uiso   1.00
H38    H     0.43320   0.77550   0.87670   0.01267  Uiso   1.00
H39    H     0.09050   0.13320   0.10880   0.01267  Uiso   1.00
H40    H     0.19210   0.99130   0.04870   0.01267  Uiso   1.00
H41    H     0.47020   0.96750   0.08130   0.01267  Uiso   1.00
H42    H     0.36270   0.11980   0.13100   0.01267  Uiso   1.00
H43    H     0.71090   0.08920   0.70900   0.01267  Uiso   1.00
H44    H     0.51720   0.14300   0.74540   0.01267  Uiso   1.00
H45    H     0.44160   0.03650   0.73870   0.01267  Uiso   1.00
H46    H     0.89430   0.53100   0.67700   0.01267  Uiso   1.00
H47    H     0.99210   0.55640   0.54500   0.01267  Uiso   1.00
H48    H     0.96590   0.72770   0.47150   0.01267  Uiso   1.00
H49    H     0.27880   0.86310   0.46850   0.01267  Uiso   1.00
H50    H     0.39070   0.71650   0.41250   0.01267  Uiso   1.00
H51    H     0.18780   0.57390   0.57070   0.01267  Uiso   1.00
H52    H     0.08540   0.72450   0.62330   0.01267  Uiso   1.00
H53    H     0.33250   0.36680   0.39120   0.01267  Uiso   1.00
H54    H     0.23210   0.50870   0.45130   0.01267  Uiso   1.00
H55    H     0.51900   0.53250   0.41870   0.01267  Uiso   1.00
H56    H     0.61350   0.38020   0.36900   0.01267  Uiso   1.00
C1     C     0.54320   0.41520   0.16780   0.01267  Uiso   1.00
C2     C     0.61770   0.45100   0.18180   0.01267  Uiso   1.00
C3     C     0.56670   0.54700   0.20660   0.01267  Uiso   1.00
C4     C     0.62840   0.57980   0.22780   0.01267  Uiso   1.00
C5     C     0.74190   0.51680   0.22240   0.01267  Uiso   1.00
C6     C     0.79490   0.42440   0.19280   0.01267  Uiso   1.00
C7     C     0.73250   0.38870   0.17250   0.01267  Uiso   1.00
C8     C     0.92000   0.36620   0.18480   0.01267  Uiso   1.00
C9     C     0.81370   0.16310   0.26910   0.01267  Uiso   1.00
C10    C     0.82200   0.18730   0.18190   0.01267  Uiso   1.00
C11    C     0.86960   0.09970   0.14690   0.01267  Uiso   1.00
C12    C     0.87530   0.11460   0.06820   0.01267  Uiso   1.00
C13    C     0.83380   0.21750   0.02410   0.01267  Uiso   1.00
C14    C     0.79040   0.30630   0.05690   0.01267  Uiso   1.00
C15    C     0.78370   0.29210   0.13710   0.01267  Uiso   1.00
C16    C     0.75190   0.41610   0.00290   0.01267  Uiso   1.00
C17    C     0.44680   0.30400   0.98920   0.01267  Uiso   1.00
C18    C     0.50240   0.21690   0.95370   0.01267  Uiso   1.00
C19    C     0.59070   0.13120   0.98080   0.01267  Uiso   1.00
C20    C     0.61260   0.13260   0.04780   0.01267  Uiso   1.00
C21    C     0.55080   0.22330   0.07950   0.01267  Uiso   1.00
C22    C     0.83200   0.89910   0.89810   0.01267  Uiso   1.00
C23    C     0.77130   0.98520   0.93360   0.01267  Uiso   1.00
C24    C     0.65510   0.03760   0.94340   0.01267  Uiso   1.00
C25    C     0.60640   0.99850   0.91590   0.01267  Uiso   1.00
C26    C     0.67240   0.90840   0.88380   0.01267  Uiso   1.00
C27    C     0.12620   0.08480   0.33220   0.01267  Uiso   1.00
C28    C     0.25050   0.04900   0.31820   0.01267  Uiso   1.00
C29    C     0.32030   0.95300   0.29340   0.01267  Uiso   1.00
C30    C     0.43600   0.92020   0.27220   0.01267  Uiso   1.00
C31    C     0.48110   0.98320   0.27760   0.01267  Uiso   1.00
C32    C     0.41210   0.07560   0.30720   0.01267  Uiso   1.00
C33    C     0.29370   0.11130   0.32750   0.01267  Uiso   1.00
C34    C     0.47100   0.13380   0.31520   0.01267  Uiso   1.00
C35    C     0.24590   0.33690   0.23090   0.01267  Uiso   1.00
C36    C     0.19120   0.31270   0.31810   0.01267  Uiso   1.00
C37    C     0.11620   0.40030   0.35310   0.01267  Uiso   1.00
C38    C     0.05810   0.38540   0.43180   0.01267  Uiso   1.00
C39    C     0.07540   0.28250   0.47590   0.01267  Uiso   1.00
C40    C     0.15360   0.19370   0.44310   0.01267  Uiso   1.00
C41    C     0.21290   0.20790   0.36290   0.01267  Uiso   1.00
C42    C     0.17090   0.08390   0.49710   0.01267  Uiso   1.00
C43    C     0.74000   0.19600   0.51080   0.01267  Uiso   1.00
C44    C     0.67300   0.28310   0.54630   0.01267  Uiso   1.00
C45    C     0.70270   0.36880   0.51920   0.01267  Uiso   1.00
C46    C     0.79300   0.36740   0.45220   0.01267  Uiso   1.00
C47    C     0.85360   0.27670   0.42050   0.01267  Uiso   1.00
C48    C     0.62920   0.60090   0.60190   0.01267  Uiso   1.00
C49    C     0.69010   0.51480   0.56640   0.01267  Uiso   1.00
C50    C     0.63610   0.46240   0.55660   0.01267  Uiso   1.00
C51    C     0.52080   0.50150   0.58410   0.01267  Uiso   1.00
C52    C     0.46460   0.59160   0.61620   0.01267  Uiso   1.00
C53    C     0.45680   0.58480   0.83220   0.01267  Uiso   1.00
C54    C     0.38230   0.54900   0.81820   0.01267  Uiso   1.00
C55    C     0.43330   0.45300   0.79340   0.01267  Uiso   1.00
C56    C     0.37160   0.42020   0.77220   0.01267  Uiso   1.00
C57    C     0.25810   0.48320   0.77760   0.01267  Uiso   1.00
C58    C     0.20510   0.57560   0.80720   0.01267  Uiso   1.00
C59    C     0.26750   0.61130   0.82750   0.01267  Uiso   1.00
C60    C     0.08000   0.63380   0.81520   0.01267  Uiso   1.00
C61    C     0.18630   0.83690   0.73090   0.01267  Uiso   1.00
C62    C     0.17800   0.81270   0.81810   0.01267  Uiso   1.00
C63    C     0.13040   0.90030   0.85310   0.01267  Uiso   1.00
C64    C     0.12470   0.88540   0.93180   0.01267  Uiso   1.00
C65    C     0.16620   0.78250   0.97590   0.01267  Uiso   1.00
C66    C     0.20960   0.69370   0.94310   0.01267  Uiso   1.00
C67    C     0.21630   0.70790   0.86290   0.01267  Uiso   1.00
C68    C     0.24810   0.58390   0.99710   0.01267  Uiso   1.00
C69    C     0.55320   0.69600   0.01080   0.01267  Uiso   1.00
C70    C     0.49760   0.78310   0.04630   0.01267  Uiso   1.00
C71    C     0.40930   0.86880   0.01920   0.01267  Uiso   1.00
C72    C     0.38740   0.86740   0.95220   0.01267  Uiso   1.00
C73    C     0.44920   0.77670   0.92050   0.01267  Uiso   1.00
C74    C     0.16800   0.10090   0.10190   0.01267  Uiso   1.00
C75    C     0.22870   0.01480   0.06640   0.01267  Uiso   1.00
C76    C     0.34490   0.96240   0.05660   0.01267  Uiso   1.00
C77    C     0.39360   0.00150   0.08410   0.01267  Uiso   1.00
C78    C     0.32760   0.09160   0.11620   0.01267  Uiso   1.00
C79    C     0.87380   0.91520   0.66780   0.01267  Uiso   1.00
C80    C     0.74950   0.95100   0.68180   0.01267  Uiso   1.00
C81    C     0.67970   0.04700   0.70660   0.01267  Uiso   1.00
C82    C     0.56400   0.07980   0.72780   0.01267  Uiso   1.00
C83    C     0.51890   0.01680   0.72240   0.01267  Uiso   1.00
C84    C     0.58790   0.92440   0.69280   0.01267  Uiso   1.00
C85    C     0.70630   0.88870   0.67250   0.01267  Uiso   1.00
C86    C     0.52900   0.86620   0.68480   0.01267  Uiso   1.00
C87    C     0.75410   0.66310   0.76910   0.01267  Uiso   1.00
C88    C     0.80880   0.68730   0.68190   0.01267  Uiso   1.00
C89    C     0.88380   0.59970   0.64690   0.01267  Uiso   1.00
C90    C     0.94190   0.61460   0.56820   0.01267  Uiso   1.00
C91    C     0.92460   0.71750   0.52410   0.01267  Uiso   1.00
C92    C     0.84640   0.80630   0.55690   0.01267  Uiso   1.00
C93    C     0.78710   0.79210   0.63710   0.01267  Uiso   1.00
C94    C     0.82910   0.91610   0.50290   0.01267  Uiso   1.00
C95    C     0.26000   0.80400   0.48920   0.01267  Uiso   1.00
C96    C     0.32700   0.71690   0.45370   0.01267  Uiso   1.00
C97    C     0.29730   0.63120   0.48080   0.01267  Uiso   1.00
C98    C     0.20700   0.63260   0.54780   0.01267  Uiso   1.00
C99    C     0.14640   0.72330   0.57950   0.01267  Uiso   1.00
C100   C     0.37080   0.39910   0.39810   0.01267  Uiso   1.00
C101   C     0.30990   0.48520   0.43360   0.01267  Uiso   1.00
C102   C     0.36390   0.53760   0.44340   0.01267  Uiso   1.00
C103   C     0.47920   0.49850   0.41590   0.01267  Uiso   1.00
C104   C     0.53540   0.40840   0.38380   0.01267  Uiso   1.00
N1     N     0.46910   0.30910   0.04990   0.01267  Uiso   1.00
N2     N     0.78400   0.86040   0.87300   0.01267  Uiso   1.00
N3     N     0.82810   0.19090   0.45010   0.01267  Uiso   1.00
N4     N     0.51740   0.63960   0.62700   0.01267  Uiso   1.00
N5     N     0.53090   0.69090   0.95010   0.01267  Uiso   1.00
N6     N     0.21600   0.13960   0.12700   0.01267  Uiso   1.00
N7     N     0.17190   0.80910   0.54990   0.01267  Uiso   1.00
N8     N     0.48260   0.36040   0.37300   0.01267  Uiso   1.00
O1     O     0.48490   0.47880   0.11880   0.01267  Uiso   1.00
O2     O     0.54119   0.32592   0.20430   0.01267  Uiso   1.00
O3     O     0.72227   0.20726   0.31620   0.01267  Uiso   1.00
O4     O     0.90204   0.09462   0.29090   0.01267  Uiso   1.00
O5     O     0.96500   0.39070   0.21730   0.01267  Uiso   1.00
O6     O     0.97520   0.29650   0.14510   0.01267  Uiso   1.00
O7     O     0.77060   0.48790   0.00610   0.01267  Uiso   1.00
O8     O     0.69800   0.42320   0.95700   0.01267  Uiso   1.00
O9     O     0.08250   0.02120   0.38120   0.01267  Uiso   1.00
O10    O     0.07141   0.17408   0.29570   0.01267  Uiso   1.00
O11    O     0.24573   0.29274   0.18380   0.01267  Uiso   1.00
O12    O     0.28756   0.40538   0.20910   0.01267  Uiso   1.00
O13    O     0.57300   0.10930   0.28270   0.01267  Uiso   1.00
O14    O     0.41680   0.20350   0.35490   0.01267  Uiso   1.00
O15    O     0.26460   0.01210   0.49390   0.01267  Uiso   1.00
O16    O     0.07820   0.07680   0.54300   0.01267  Uiso   1.00
O17    O     0.51510   0.52120   0.88120   0.01267  Uiso   1.00
O18    O     0.45881   0.67408   0.79570   0.01267  Uiso   1.00
O19    O     0.27773   0.79274   0.68380   0.01267  Uiso   1.00
O20    O     0.09796   0.90538   0.70910   0.01267  Uiso   1.00
O21    O     0.03500   0.60930   0.78270   0.01267  Uiso   1.00
O22    O     0.02480   0.70350   0.85490   0.01267  Uiso   1.00
O23    O     0.22940   0.51210   0.99390   0.01267  Uiso   1.00
O24    O     0.30200   0.57680   0.04300   0.01267  Uiso   1.00
O25    O     0.91750   0.97880   0.61880   0.01267  Uiso   1.00
O26    O     0.92859   0.82592   0.70430   0.01267  Uiso   1.00
O27    O     0.75427   0.70726   0.81620   0.01267  Uiso   1.00
O28    O     0.71244   0.59462   0.79090   0.01267  Uiso   1.00
O29    O     0.42700   0.89070   0.71730   0.01267  Uiso   1.00
O30    O     0.58320   0.79650   0.64510   0.01267  Uiso   1.00
O31    O     0.73540   0.98790   0.50610   0.01267  Uiso   1.00
O32    O     0.92180   0.92320   0.45700   0.01267  Uiso   1.00
