data_image0
_cell_length_a       7.7389
_cell_length_b       7.7389
_cell_length_c       27.1545
_cell_angle_alpha    90
_cell_angle_beta     90
_cell_angle_gamma    120

_symmetry_space_group_name_H-M    "P 1"
_symmetry_int_tables_number       1

loop_
  _symmetry_equiv_pos_as_xyz
  'x, y, z'

loop_
  _atom_site_label
  _atom_site_occupancy
  _atom_site_fract_x
  _atom_site_fract_y
  _atom_site_fract_z
  _atom_site_thermal_displace_type
  _atom_site_B_iso_or_equiv
  _atom_site_type_symbol
  O1       1.0000 0.57310  0.37500  0.36702  Biso   1.000  O
  O2       1.0000 0.68000  0.18630  0.33289  Biso   1.000  O
  H1       1.0000 0.88600  0.31400  0.40900  Biso   1.000  H
  C1       1.0000 0.65840  0.27400  0.36937  Biso   1.000  C
  O3       1.0000 0.62500  0.19810  0.70035  Biso   1.000  O
  O4       1.0000 0.81370  0.49370  0.66622  Biso   1.000  O
  H2       1.0000 0.68600  0.57200  0.74233  Biso   1.000  H
  C2       1.0000 0.72600  0.38440  0.70270  Biso   1.000  C
  O5       1.0000 0.80190  0.42690  0.03369  Biso   1.000  O
  O6       1.0000 0.50630  0.32000  0.99956  Biso   1.000  O
  H3       1.0000 0.42800  0.11400  0.07567  Biso   1.000  H
  C3       1.0000 0.61560  0.34160  0.03604  Biso   1.000  C
  O7       1.0000 0.42690  0.62500  0.86702  Biso   1.000  O
  O8       1.0000 0.32000  0.81370  0.83289  Biso   1.000  O
  H4       1.0000 0.11400  0.68600  0.90900  Biso   1.000  H
  C4       1.0000 0.34160  0.72600  0.86937  Biso   1.000  C
  O9       1.0000 0.37500  0.80190  0.20035  Biso   1.000  O
  O10      1.0000 0.18630  0.50630  0.16622  Biso   1.000  O
  H5       1.0000 0.31400  0.42800  0.24233  Biso   1.000  H
  C5       1.0000 0.27400  0.61560  0.20270  Biso   1.000  C
  O11      1.0000 0.19810  0.57310  0.53369  Biso   1.000  O
  O12      1.0000 0.49370  0.68000  0.49956  Biso   1.000  O
  H6       1.0000 0.57200  0.88600  0.57567  Biso   1.000  H
  C6       1.0000 0.38440  0.65840  0.53604  Biso   1.000  C
  O13      1.0000 0.37500  0.57310  0.96631  Biso   1.000  O
  O14      1.0000 0.18630  0.68000  0.00044  Biso   1.000  O
  H7       1.0000 0.31400  0.88600  0.92433  Biso   1.000  H
  C7       1.0000 0.27400  0.65840  0.96396  Biso   1.000  C
  O15      1.0000 0.19810  0.62500  0.63298  Biso   1.000  O
  O16      1.0000 0.49370  0.81370  0.66711  Biso   1.000  O
  H8       1.0000 0.57200  0.68600  0.59100  Biso   1.000  H
  C8       1.0000 0.38440  0.72600  0.63063  Biso   1.000  C
  O17      1.0000 0.42690  0.80190  0.29965  Biso   1.000  O
  O18      1.0000 0.32000  0.50630  0.33378  Biso   1.000  O
  H9       1.0000 0.11400  0.42800  0.25767  Biso   1.000  H
  C9       1.0000 0.34160  0.61560  0.29730  Biso   1.000  C
  O19      1.0000 0.62500  0.42690  0.46631  Biso   1.000  O
  O20      1.0000 0.81370  0.32000  0.50044  Biso   1.000  O
  H10      1.0000 0.68600  0.11400  0.42433  Biso   1.000  H
  C10      1.0000 0.72600  0.34160  0.46396  Biso   1.000  C
  O21      1.0000 0.80190  0.37500  0.13298  Biso   1.000  O
  O22      1.0000 0.50630  0.18630  0.16711  Biso   1.000  O
  H11      1.0000 0.42800  0.31400  0.09100  Biso   1.000  H
  C11      1.0000 0.61560  0.27400  0.13063  Biso   1.000  C
  O23      1.0000 0.57310  0.19810  0.79965  Biso   1.000  O
  O24      1.0000 0.68000  0.49370  0.83378  Biso   1.000  O
  H12      1.0000 0.88600  0.57200  0.75767  Biso   1.000  H
  C12      1.0000 0.65840  0.38440  0.79730  Biso   1.000  C
  U1       1.0000 0.45237  0.54762  0.41667  Biso   1.000  U
  C13      1.0000 0.74760  0.25240  0.41667  Biso   1.000  C
  U2       1.0000 0.45237  0.90475  0.75000  Biso   1.000  U
  C14      1.0000 0.74760  0.49520  0.75000  Biso   1.000  C
  U3       1.0000 0.09525  0.54762  0.08333  Biso   1.000  U
  C15      1.0000 0.50480  0.25240  0.08333  Biso   1.000  C
  U4       1.0000 0.54762  0.45237  0.91667  Biso   1.000  U
  C16      1.0000 0.25240  0.74760  0.91667  Biso   1.000  C
  U5       1.0000 0.54762  0.09525  0.25000  Biso   1.000  U
  C17      1.0000 0.25240  0.50480  0.25000  Biso   1.000  C
  U6       1.0000 0.90475  0.45237  0.58333  Biso   1.000  U
  C18      1.0000 0.49520  0.74760  0.58333  Biso   1.000  C
