data_image0
_cell_length_a       23.0687
_cell_length_b       23.0687
_cell_length_c       20.7587
_cell_angle_alpha    90
_cell_angle_beta     90
_cell_angle_gamma    120

_symmetry_space_group_name_H-M    "P 1"
_symmetry_int_tables_number       1

loop_
  _symmetry_equiv_pos_as_xyz
  'x, y, z'

loop_
  _atom_site_label
  _atom_site_occupancy
  _atom_site_fract_x
  _atom_site_fract_y
  _atom_site_fract_z
  _atom_site_thermal_displace_type
  _atom_site_B_iso_or_equiv
  _atom_site_type_symbol
  Zn1      1.0000 0.18444  0.40745  0.18072  Biso   1.000  Zn
  Zn2      1.0000 0.11137  0.25928  0.15279  Biso   1.000  Zn
  Zn3      1.0000 0.07413  0.53033  0.48560  Biso   1.000  Zn
  C1       1.0000 0.00140  0.30360  0.29690  Biso   1.000  C
  C2       1.0000 0.01280  0.35510  0.33240  Biso   1.000  C
  H1       1.0000 0.05470  0.39550  0.33140  Biso   1.000  H
  C3       1.0000 0.96180  0.35070  0.37580  Biso   1.000  C
  C4       1.0000 0.89920  0.28770  0.37640  Biso   1.000  C
  H2       1.0000 0.86480  0.28190  0.40530  Biso   1.000  H
  C5       1.0000 0.88920  0.23900  0.33800  Biso   1.000  C
  C6       1.0000 0.93830  0.24000  0.29270  Biso   1.000  C
  H3       1.0000 0.93040  0.20440  0.26440  Biso   1.000  H
  C7       1.0000 0.05620  0.30880  0.24460  Biso   1.000  C
  C8       1.0000 0.67570  0.95350  0.29190  Biso   1.000  C
  C9       1.0000 0.73840  0.01750  0.28780  Biso   1.000  C
  H4       1.0000 0.77330  0.02360  0.25940  Biso   1.000  H
  C10      1.0000 0.74470  0.06940  0.32790  Biso   1.000  C
  C11      1.0000 0.70000  0.06480  0.36470  Biso   1.000  C
  H5       1.0000 0.70900  0.10180  0.39140  Biso   1.000  H
  C12      1.0000 0.63410  0.00430  0.36850  Biso   1.000  C
  C13      1.0000 0.62330  0.95140  0.32810  Biso   1.000  C
  H6       1.0000 0.57970  0.91340  0.32510  Biso   1.000  H
  C14      1.0000 0.67170  0.89990  0.25140  Biso   1.000  C
  C15      1.0000 0.57960  0.00150  0.40490  Biso   1.000  C
  C16      1.0000 0.30140  0.36670  0.04490  Biso   1.000  C
  C17      1.0000 0.36060  0.42380  0.04860  Biso   1.000  C
  H7       1.0000 0.36570  0.45750  0.07800  Biso   1.000  H
  C18      1.0000 0.41580  0.43480  0.00950  Biso   1.000  C
  C19      1.0000 0.41150  0.38180  0.97230  Biso   1.000  C
  H8       1.0000 0.45000  0.38540  0.95180  Biso   1.000  H
  C20      1.0000 0.35070  0.32500  0.96650  Biso   1.000  C
  C21      1.0000 0.29400  0.31480  0.00530  Biso   1.000  C
  H9       1.0000 0.25280  0.27370  0.00360  Biso   1.000  H
  C22      1.0000 0.33220  0.26230  0.91790  Biso   1.000  C
  C23      1.0000 0.23820  0.34940  0.08980  Biso   1.000  C
  C24      1.0000 0.96730  0.40320  0.41670  Biso   1.000  C
  O1       1.0000 0.10620  0.37130  0.24260  Biso   1.000  O
  O2       1.0000 0.05260  0.25980  0.22480  Biso   1.000  O
  O3       1.0000 0.02870  0.45090  0.42450  Biso   1.000  O
  O4       1.0000 0.91940  0.39970  0.45010  Biso   1.000  O
  O5       1.0000 0.58550  0.04780  0.44450  Biso   1.000  O
  O6       1.0000 0.52520  0.94000  0.41570  Biso   1.000  O
  O7       1.0000 0.61070  0.84800  0.24650  Biso   1.000  O
  O8       1.0000 0.71900  0.90610  0.22340  Biso   1.000  O
  O9       1.0000 0.19190  0.29410  0.09160  Biso   1.000  O
  O10      1.0000 0.24710  0.40520  0.11600  Biso   1.000  O
  O11      1.0000 0.39270  0.27700  0.89300  Biso   1.000  O
  O12      1.0000 0.27920  0.21580  0.91310  Biso   1.000  O
  N1       1.0000 0.81980  0.17640  0.34710  Biso   1.000  N
  N2       1.0000 0.82020  0.13560  0.31740  Biso   1.000  N
  N3       1.0000 0.47610  0.49460  0.02110  Biso   1.000  N
  Zn4      1.0000 0.59255  0.77699  0.18072  Biso   1.000  Zn
  Zn5      1.0000 0.74072  0.85209  0.15279  Biso   1.000  Zn
  Zn6      1.0000 0.46967  0.54380  0.48560  Biso   1.000  Zn
  C25      1.0000 0.69640  0.69780  0.29690  Biso   1.000  C
  C26      1.0000 0.64490  0.65770  0.33240  Biso   1.000  C
  H10      1.0000 0.60450  0.65920  0.33140  Biso   1.000  H
  C27      1.0000 0.64930  0.61110  0.37580  Biso   1.000  C
  C28      1.0000 0.71230  0.61150  0.37640  Biso   1.000  C
  H11      1.0000 0.71810  0.58290  0.40530  Biso   1.000  H
  C29      1.0000 0.76100  0.65020  0.33800  Biso   1.000  C
  C30      1.0000 0.76000  0.69830  0.29270  Biso   1.000  C
  H12      1.0000 0.79560  0.72600  0.26440  Biso   1.000  H
  C31      1.0000 0.69120  0.74740  0.24460  Biso   1.000  C
  C32      1.0000 0.04650  0.72220  0.29190  Biso   1.000  C
  C33      1.0000 0.98250  0.72090  0.28780  Biso   1.000  C
  H13      1.0000 0.97640  0.74970  0.25940  Biso   1.000  H
  C34      1.0000 0.93060  0.67530  0.32790  Biso   1.000  C
  C35      1.0000 0.93520  0.63520  0.36470  Biso   1.000  C
  H14      1.0000 0.89820  0.60720  0.39140  Biso   1.000  H
  C36      1.0000 0.99570  0.62980  0.36850  Biso   1.000  C
  C37      1.0000 0.04860  0.67190  0.32810  Biso   1.000  C
  H15      1.0000 0.08660  0.66630  0.32510  Biso   1.000  H
  C38      1.0000 0.10010  0.77180  0.25140  Biso   1.000  C
  C39      1.0000 0.99850  0.57810  0.40490  Biso   1.000  C
  C40      1.0000 0.63330  0.93470  0.04490  Biso   1.000  C
  C41      1.0000 0.57620  0.93680  0.04860  Biso   1.000  C
  H16      1.0000 0.54250  0.90820  0.07800  Biso   1.000  H
  C42      1.0000 0.56520  0.98100  0.00950  Biso   1.000  C
  C43      1.0000 0.61820  0.02970  0.97230  Biso   1.000  C
  H17      1.0000 0.61460  0.06460  0.95180  Biso   1.000  H
  C44      1.0000 0.67500  0.02570  0.96650  Biso   1.000  C
  C45      1.0000 0.68520  0.97920  0.00530  Biso   1.000  C
  H18      1.0000 0.72630  0.97910  0.00360  Biso   1.000  H
  C46      1.0000 0.73770  0.06990  0.91790  Biso   1.000  C
  C47      1.0000 0.65060  0.88880  0.08980  Biso   1.000  C
  C48      1.0000 0.59680  0.56410  0.41670  Biso   1.000  C
  O13      1.0000 0.62870  0.73490  0.24260  Biso   1.000  O
  O14      1.0000 0.74020  0.79280  0.22480  Biso   1.000  O
  O15      1.0000 0.54910  0.57780  0.42450  Biso   1.000  O
  O16      1.0000 0.60030  0.51970  0.45010  Biso   1.000  O
  O17      1.0000 0.95220  0.53770  0.44450  Biso   1.000  O
  O18      1.0000 0.06000  0.58520  0.41570  Biso   1.000  O
  O19      1.0000 0.15200  0.76270  0.24650  Biso   1.000  O
  O20      1.0000 0.09390  0.81290  0.22340  Biso   1.000  O
  O21      1.0000 0.70590  0.89780  0.09160  Biso   1.000  O
  O22      1.0000 0.59480  0.84190  0.11600  Biso   1.000  O
  O23      1.0000 0.72300  0.11570  0.89300  Biso   1.000  O
  O24      1.0000 0.78420  0.06340  0.91310  Biso   1.000  O
  N4       1.0000 0.82360  0.64340  0.34710  Biso   1.000  N
  N5       1.0000 0.86440  0.68460  0.31740  Biso   1.000  N
  N6       1.0000 0.50540  0.98150  0.02110  Biso   1.000  N
  Zn7      1.0000 0.22301  0.81556  0.18072  Biso   1.000  Zn
  Zn8      1.0000 0.14791  0.88863  0.15279  Biso   1.000  Zn
  Zn9      1.0000 0.45620  0.92587  0.48560  Biso   1.000  Zn
  C49      1.0000 0.30220  0.99860  0.29690  Biso   1.000  C
  C50      1.0000 0.34230  0.98720  0.33240  Biso   1.000  C
  H19      1.0000 0.34080  0.94530  0.33140  Biso   1.000  H
  C51      1.0000 0.38890  0.03820  0.37580  Biso   1.000  C
  C52      1.0000 0.38850  0.10080  0.37640  Biso   1.000  C
  H20      1.0000 0.41710  0.13520  0.40530  Biso   1.000  H
  C53      1.0000 0.34980  0.11080  0.33800  Biso   1.000  C
  C54      1.0000 0.30170  0.06170  0.29270  Biso   1.000  C
  H21      1.0000 0.27400  0.06960  0.26440  Biso   1.000  H
  C55      1.0000 0.25260  0.94380  0.24460  Biso   1.000  C
  C56      1.0000 0.27780  0.32430  0.29190  Biso   1.000  C
  C57      1.0000 0.27910  0.26160  0.28780  Biso   1.000  C
  H22      1.0000 0.25030  0.22670  0.25940  Biso   1.000  H
  C58      1.0000 0.32470  0.25530  0.32790  Biso   1.000  C
  C59      1.0000 0.36480  0.30000  0.36470  Biso   1.000  C
  H23      1.0000 0.39280  0.29100  0.39140  Biso   1.000  H
  C60      1.0000 0.37020  0.36590  0.36850  Biso   1.000  C
  C61      1.0000 0.32810  0.37670  0.32810  Biso   1.000  C
  H24      1.0000 0.33370  0.42030  0.32510  Biso   1.000  H
  C62      1.0000 0.22820  0.32830  0.25140  Biso   1.000  C
  C63      1.0000 0.42190  0.42040  0.40490  Biso   1.000  C
  C64      1.0000 0.06530  0.69860  0.04490  Biso   1.000  C
  C65      1.0000 0.06320  0.63940  0.04860  Biso   1.000  C
  H25      1.0000 0.09180  0.63430  0.07800  Biso   1.000  H
  C66      1.0000 0.01900  0.58420  0.00950  Biso   1.000  C
  C67      1.0000 0.97030  0.58850  0.97230  Biso   1.000  C
  H26      1.0000 0.93540  0.55000  0.95180  Biso   1.000  H
  C68      1.0000 0.97430  0.64930  0.96650  Biso   1.000  C
  C69      1.0000 0.02080  0.70600  0.00530  Biso   1.000  C
  H27      1.0000 0.02090  0.74720  0.00360  Biso   1.000  H
  C70      1.0000 0.93010  0.66780  0.91790  Biso   1.000  C
  C71      1.0000 0.11120  0.76180  0.08980  Biso   1.000  C
  C72      1.0000 0.43590  0.03270  0.41670  Biso   1.000  C
  O25      1.0000 0.26510  0.89380  0.24260  Biso   1.000  O
  O26      1.0000 0.20720  0.94740  0.22480  Biso   1.000  O
  O27      1.0000 0.42220  0.97130  0.42450  Biso   1.000  O
  O28      1.0000 0.48030  0.08060  0.45010  Biso   1.000  O
  O29      1.0000 0.46230  0.41450  0.44450  Biso   1.000  O
  O30      1.0000 0.41480  0.47480  0.41570  Biso   1.000  O
  O31      1.0000 0.23730  0.38930  0.24650  Biso   1.000  O
  O32      1.0000 0.18710  0.28100  0.22340  Biso   1.000  O
  O33      1.0000 0.10220  0.80810  0.09160  Biso   1.000  O
  O34      1.0000 0.15810  0.75290  0.11600  Biso   1.000  O
  O35      1.0000 0.88430  0.60730  0.89300  Biso   1.000  O
  O36      1.0000 0.93660  0.72080  0.91310  Biso   1.000  O
  N7       1.0000 0.35660  0.18020  0.34710  Biso   1.000  N
  N8       1.0000 0.31540  0.17980  0.31740  Biso   1.000  N
  N9       1.0000 0.01850  0.52390  0.02110  Biso   1.000  N
  Zn10     1.0000 0.81556  0.59255  0.81928  Biso   1.000  Zn
  Zn11     1.0000 0.88863  0.74072  0.84721  Biso   1.000  Zn
  Zn12     1.0000 0.92587  0.46967  0.51440  Biso   1.000  Zn
  C73      1.0000 0.99860  0.69640  0.70310  Biso   1.000  C
  C74      1.0000 0.98720  0.64490  0.66760  Biso   1.000  C
  H28      1.0000 0.94530  0.60450  0.66860  Biso   1.000  H
  C75      1.0000 0.03820  0.64930  0.62420  Biso   1.000  C
  C76      1.0000 0.10080  0.71230  0.62360  Biso   1.000  C
  H29      1.0000 0.13520  0.71810  0.59470  Biso   1.000  H
  C77      1.0000 0.11080  0.76100  0.66200  Biso   1.000  C
  C78      1.0000 0.06170  0.76000  0.70730  Biso   1.000  C
  H30      1.0000 0.06960  0.79560  0.73560  Biso   1.000  H
  C79      1.0000 0.94380  0.69120  0.75540  Biso   1.000  C
  C80      1.0000 0.32430  0.04650  0.70810  Biso   1.000  C
  C81      1.0000 0.26160  0.98250  0.71220  Biso   1.000  C
  H31      1.0000 0.22670  0.97640  0.74060  Biso   1.000  H
  C82      1.0000 0.25530  0.93060  0.67210  Biso   1.000  C
  C83      1.0000 0.30000  0.93520  0.63530  Biso   1.000  C
  H32      1.0000 0.29100  0.89820  0.60860  Biso   1.000  H
  C84      1.0000 0.36590  0.99570  0.63150  Biso   1.000  C
  C85      1.0000 0.37670  0.04860  0.67190  Biso   1.000  C
  H33      1.0000 0.42030  0.08660  0.67490  Biso   1.000  H
  C86      1.0000 0.32830  0.10010  0.74860  Biso   1.000  C
  C87      1.0000 0.42040  0.99850  0.59510  Biso   1.000  C
  C88      1.0000 0.69860  0.63330  0.95510  Biso   1.000  C
  C89      1.0000 0.63940  0.57620  0.95140  Biso   1.000  C
  H34      1.0000 0.63430  0.54250  0.92200  Biso   1.000  H
  C90      1.0000 0.58420  0.56520  0.99050  Biso   1.000  C
  C91      1.0000 0.58850  0.61820  0.02770  Biso   1.000  C
  H35      1.0000 0.55000  0.61460  0.04820  Biso   1.000  H
  C92      1.0000 0.64930  0.67500  0.03350  Biso   1.000  C
  C93      1.0000 0.70600  0.68520  0.99470  Biso   1.000  C
  H36      1.0000 0.74720  0.72630  0.99640  Biso   1.000  H
  C94      1.0000 0.66780  0.73770  0.08210  Biso   1.000  C
  C95      1.0000 0.76180  0.65060  0.91020  Biso   1.000  C
  C96      1.0000 0.03270  0.59680  0.58330  Biso   1.000  C
  O37      1.0000 0.89380  0.62870  0.75740  Biso   1.000  O
  O38      1.0000 0.94740  0.74020  0.77520  Biso   1.000  O
  O39      1.0000 0.97130  0.54910  0.57550  Biso   1.000  O
  O40      1.0000 0.08060  0.60030  0.54990  Biso   1.000  O
  O41      1.0000 0.41450  0.95220  0.55550  Biso   1.000  O
  O42      1.0000 0.47480  0.06000  0.58430  Biso   1.000  O
  O43      1.0000 0.38930  0.15200  0.75350  Biso   1.000  O
  O44      1.0000 0.28100  0.09390  0.77660  Biso   1.000  O
  O45      1.0000 0.80810  0.70590  0.90840  Biso   1.000  O
  O46      1.0000 0.75290  0.59480  0.88400  Biso   1.000  O
  O47      1.0000 0.60730  0.72300  0.10700  Biso   1.000  O
  O48      1.0000 0.72080  0.78420  0.08690  Biso   1.000  O
  N10      1.0000 0.18020  0.82360  0.65290  Biso   1.000  N
  N11      1.0000 0.17980  0.86440  0.68260  Biso   1.000  N
  N12      1.0000 0.52390  0.50540  0.97890  Biso   1.000  N
  Zn13     1.0000 0.40745  0.22301  0.81928  Biso   1.000  Zn
  Zn14     1.0000 0.25928  0.14791  0.84721  Biso   1.000  Zn
  Zn15     1.0000 0.53033  0.45620  0.51440  Biso   1.000  Zn
  C97      1.0000 0.30360  0.30220  0.70310  Biso   1.000  C
  C98      1.0000 0.35510  0.34230  0.66760  Biso   1.000  C
  H37      1.0000 0.39550  0.34080  0.66860  Biso   1.000  H
  C99      1.0000 0.35070  0.38890  0.62420  Biso   1.000  C
  C100     1.0000 0.28770  0.38850  0.62360  Biso   1.000  C
  H38      1.0000 0.28190  0.41710  0.59470  Biso   1.000  H
  C101     1.0000 0.23900  0.34980  0.66200  Biso   1.000  C
  C102     1.0000 0.24000  0.30170  0.70730  Biso   1.000  C
  H39      1.0000 0.20440  0.27400  0.73560  Biso   1.000  H
  C103     1.0000 0.30880  0.25260  0.75540  Biso   1.000  C
  C104     1.0000 0.95350  0.27780  0.70810  Biso   1.000  C
  C105     1.0000 0.01750  0.27910  0.71220  Biso   1.000  C
  H40      1.0000 0.02360  0.25030  0.74060  Biso   1.000  H
  C106     1.0000 0.06940  0.32470  0.67210  Biso   1.000  C
  C107     1.0000 0.06480  0.36480  0.63530  Biso   1.000  C
  H41      1.0000 0.10180  0.39280  0.60860  Biso   1.000  H
  C108     1.0000 0.00430  0.37020  0.63150  Biso   1.000  C
  C109     1.0000 0.95140  0.32810  0.67190  Biso   1.000  C
  H42      1.0000 0.91340  0.33370  0.67490  Biso   1.000  H
  C110     1.0000 0.89990  0.22820  0.74860  Biso   1.000  C
  C111     1.0000 0.00150  0.42190  0.59510  Biso   1.000  C
  C112     1.0000 0.36670  0.06530  0.95510  Biso   1.000  C
  C113     1.0000 0.42380  0.06320  0.95140  Biso   1.000  C
  H43      1.0000 0.45750  0.09180  0.92200  Biso   1.000  H
  C114     1.0000 0.43480  0.01900  0.99050  Biso   1.000  C
  C115     1.0000 0.38180  0.97030  0.02770  Biso   1.000  C
  H44      1.0000 0.38540  0.93540  0.04820  Biso   1.000  H
  C116     1.0000 0.32500  0.97430  0.03350  Biso   1.000  C
  C117     1.0000 0.31480  0.02080  0.99470  Biso   1.000  C
  H45      1.0000 0.27370  0.02090  0.99640  Biso   1.000  H
  C118     1.0000 0.26230  0.93010  0.08210  Biso   1.000  C
  C119     1.0000 0.34940  0.11120  0.91020  Biso   1.000  C
  C120     1.0000 0.40320  0.43590  0.58330  Biso   1.000  C
  O49      1.0000 0.37130  0.26510  0.75740  Biso   1.000  O
  O50      1.0000 0.25980  0.20720  0.77520  Biso   1.000  O
  O51      1.0000 0.45090  0.42220  0.57550  Biso   1.000  O
  O52      1.0000 0.39970  0.48030  0.54990  Biso   1.000  O
  O53      1.0000 0.04780  0.46230  0.55550  Biso   1.000  O
  O54      1.0000 0.94000  0.41480  0.58430  Biso   1.000  O
  O55      1.0000 0.84800  0.23730  0.75350  Biso   1.000  O
  O56      1.0000 0.90610  0.18710  0.77660  Biso   1.000  O
  O57      1.0000 0.29410  0.10220  0.90840  Biso   1.000  O
  O58      1.0000 0.40520  0.15810  0.88400  Biso   1.000  O
  O59      1.0000 0.27700  0.88430  0.10700  Biso   1.000  O
  O60      1.0000 0.21580  0.93660  0.08690  Biso   1.000  O
  N13      1.0000 0.17640  0.35660  0.65290  Biso   1.000  N
  N14      1.0000 0.13560  0.31540  0.68260  Biso   1.000  N
  N15      1.0000 0.49460  0.01850  0.97890  Biso   1.000  N
  Zn16     1.0000 0.77699  0.18444  0.81928  Biso   1.000  Zn
  Zn17     1.0000 0.85209  0.11137  0.84721  Biso   1.000  Zn
  Zn18     1.0000 0.54380  0.07413  0.51440  Biso   1.000  Zn
  C121     1.0000 0.69780  0.00140  0.70310  Biso   1.000  C
  C122     1.0000 0.65770  0.01280  0.66760  Biso   1.000  C
  H46      1.0000 0.65920  0.05470  0.66860  Biso   1.000  H
  C123     1.0000 0.61110  0.96180  0.62420  Biso   1.000  C
  C124     1.0000 0.61150  0.89920  0.62360  Biso   1.000  C
  H47      1.0000 0.58290  0.86480  0.59470  Biso   1.000  H
  C125     1.0000 0.65020  0.88920  0.66200  Biso   1.000  C
  C126     1.0000 0.69830  0.93830  0.70730  Biso   1.000  C
  H48      1.0000 0.72600  0.93040  0.73560  Biso   1.000  H
  C127     1.0000 0.74740  0.05620  0.75540  Biso   1.000  C
  C128     1.0000 0.72220  0.67570  0.70810  Biso   1.000  C
  C129     1.0000 0.72090  0.73840  0.71220  Biso   1.000  C
  H49      1.0000 0.74970  0.77330  0.74060  Biso   1.000  H
  C130     1.0000 0.67530  0.74470  0.67210  Biso   1.000  C
  C131     1.0000 0.63520  0.70000  0.63530  Biso   1.000  C
  H50      1.0000 0.60720  0.70900  0.60860  Biso   1.000  H
  C132     1.0000 0.62980  0.63410  0.63150  Biso   1.000  C
  C133     1.0000 0.67190  0.62330  0.67190  Biso   1.000  C
  H51      1.0000 0.66630  0.57970  0.67490  Biso   1.000  H
  C134     1.0000 0.77180  0.67170  0.74860  Biso   1.000  C
  C135     1.0000 0.57810  0.57960  0.59510  Biso   1.000  C
  C136     1.0000 0.93470  0.30140  0.95510  Biso   1.000  C
  C137     1.0000 0.93680  0.36060  0.95140  Biso   1.000  C
  H52      1.0000 0.90820  0.36570  0.92200  Biso   1.000  H
  C138     1.0000 0.98100  0.41580  0.99050  Biso   1.000  C
  C139     1.0000 0.02970  0.41150  0.02770  Biso   1.000  C
  H53      1.0000 0.06460  0.45000  0.04820  Biso   1.000  H
  C140     1.0000 0.02570  0.35070  0.03350  Biso   1.000  C
  C141     1.0000 0.97920  0.29400  0.99470  Biso   1.000  C
  H54      1.0000 0.97910  0.25280  0.99640  Biso   1.000  H
  C142     1.0000 0.06990  0.33220  0.08210  Biso   1.000  C
  C143     1.0000 0.88880  0.23820  0.91020  Biso   1.000  C
  C144     1.0000 0.56410  0.96730  0.58330  Biso   1.000  C
  O61      1.0000 0.73490  0.10620  0.75740  Biso   1.000  O
  O62      1.0000 0.79280  0.05260  0.77520  Biso   1.000  O
  O63      1.0000 0.57780  0.02870  0.57550  Biso   1.000  O
  O64      1.0000 0.51970  0.91940  0.54990  Biso   1.000  O
  O65      1.0000 0.53770  0.58550  0.55550  Biso   1.000  O
  O66      1.0000 0.58520  0.52520  0.58430  Biso   1.000  O
  O67      1.0000 0.76270  0.61070  0.75350  Biso   1.000  O
  O68      1.0000 0.81290  0.71900  0.77660  Biso   1.000  O
  O69      1.0000 0.89780  0.19190  0.90840  Biso   1.000  O
  O70      1.0000 0.84190  0.24710  0.88400  Biso   1.000  O
  O71      1.0000 0.11570  0.39270  0.10700  Biso   1.000  O
  O72      1.0000 0.06340  0.27920  0.08690  Biso   1.000  O
  N16      1.0000 0.64340  0.81980  0.65290  Biso   1.000  N
  N17      1.0000 0.68460  0.82020  0.68260  Biso   1.000  N
  N18      1.0000 0.98150  0.47610  0.97890  Biso   1.000  N
