data_UBIPAY_clean
_audit_creation_date              2014-07-02
_audit_creation_method            'Materials Studio'
_symmetry_space_group_name_H-M    'P1'
_symmetry_Int_Tables_number       1
_symmetry_cell_setting            triclinic
loop_
_symmetry_equiv_pos_as_xyz
  x,y,z
_cell_length_a                    7.8494
_cell_length_b                    9.9876
_cell_length_c                    12.6067
_cell_angle_alpha                 104.1310
_cell_angle_beta                  91.0940
_cell_angle_gamma                 111.8820
loop_
_atom_site_label
_atom_site_type_symbol
_atom_site_fract_x
_atom_site_fract_y
_atom_site_fract_z
_atom_site_U_iso_or_equiv
_atom_site_adp_type
_atom_site_occupancy
Mn1    Mn    0.98193   0.27892   0.46437   0.01267  Uiso   1.00
Mn2    Mn    0.01807   0.72108   0.53563   0.01267  Uiso   1.00
H1     H     0.46530   0.80640   0.45820   0.01267  Uiso   1.00
H2     H     0.62820   0.87060   0.16790   0.01267  Uiso   1.00
H3     H     0.25090   0.47660   0.18220   0.01267  Uiso   1.00
H4     H     0.47990   0.67090   0.99360   0.01267  Uiso   1.00
H5     H     0.26820   0.38660   0.01890   0.01267  Uiso   1.00
H6     H     0.90670   0.16940   0.68240   0.01267  Uiso   1.00
H7     H     0.02970   0.22640   0.86360   0.01267  Uiso   1.00
H8     H     0.41420   0.59830   0.82210   0.01267  Uiso   1.00
H9     H     0.27980   0.52940   0.64430   0.01267  Uiso   1.00
H10    H     0.53470   0.19360   0.54180   0.01267  Uiso   1.00
H11    H     0.37180   0.12940   0.83210   0.01267  Uiso   1.00
H12    H     0.74910   0.52340   0.81780   0.01267  Uiso   1.00
H13    H     0.52010   0.32910   0.00640   0.01267  Uiso   1.00
H14    H     0.73180   0.61340   0.98110   0.01267  Uiso   1.00
H15    H     0.09330   0.83060   0.31760   0.01267  Uiso   1.00
H16    H     0.97030   0.77360   0.13640   0.01267  Uiso   1.00
H17    H     0.58580   0.40170   0.17790   0.01267  Uiso   1.00
H18    H     0.72020   0.47060   0.35570   0.01267  Uiso   1.00
C1     C     0.21140   0.53840   0.39540   0.01267  Uiso   1.00
C2     C     0.33280   0.63160   0.32990   0.01267  Uiso   1.00
C3     C     0.45580   0.77180   0.38190   0.01267  Uiso   1.00
C4     C     0.56950   0.86600   0.32200   0.01267  Uiso   1.00
C5     C     0.71200   0.01710   0.37970   0.01267  Uiso   1.00
C6     C     0.55780   0.80920   0.20900   0.01267  Uiso   1.00
C7     C     0.44280   0.66240   0.15620   0.01267  Uiso   1.00
C8     C     0.32990   0.57480   0.21710   0.01267  Uiso   1.00
C9     C     0.47460   0.60070   0.03710   0.01267  Uiso   1.00
C10    C     0.35050   0.43910   0.97180   0.01267  Uiso   1.00
C11    C     0.01170   0.25650   0.71030   0.01267  Uiso   1.00
C12    C     0.08600   0.28930   0.81990   0.01267  Uiso   1.00
C13    C     0.24390   0.41630   0.86200   0.01267  Uiso   1.00
C14    C     0.31250   0.50830   0.79570   0.01267  Uiso   1.00
C15    C     0.22920   0.46610   0.68870   0.01267  Uiso   1.00
C16    C     0.78860   0.46160   0.60460   0.01267  Uiso   1.00
C17    C     0.66720   0.36840   0.67010   0.01267  Uiso   1.00
C18    C     0.54420   0.22820   0.61810   0.01267  Uiso   1.00
C19    C     0.43050   0.13400   0.67800   0.01267  Uiso   1.00
C20    C     0.28800   0.98290   0.62030   0.01267  Uiso   1.00
C21    C     0.44220   0.19080   0.79100   0.01267  Uiso   1.00
C22    C     0.55720   0.33760   0.84380   0.01267  Uiso   1.00
C23    C     0.67010   0.42520   0.78290   0.01267  Uiso   1.00
C24    C     0.52540   0.39930   0.96290   0.01267  Uiso   1.00
C25    C     0.64950   0.56090   0.02820   0.01267  Uiso   1.00
C26    C     0.98830   0.74350   0.28970   0.01267  Uiso   1.00
C27    C     0.91400   0.71070   0.18010   0.01267  Uiso   1.00
C28    C     0.75610   0.58370   0.13800   0.01267  Uiso   1.00
C29    C     0.68750   0.49170   0.20430   0.01267  Uiso   1.00
C30    C     0.77080   0.53390   0.31130   0.01267  Uiso   1.00
N1     N     0.08170   0.34130   0.64500   0.01267  Uiso   1.00
N2     N     0.91830   0.65870   0.35500   0.01267  Uiso   1.00
O1     O     0.12870   0.40030   0.35220   0.01267  Uiso   1.00
O2     O     0.19670   0.60010   0.49290   0.01267  Uiso   1.00
O3     O     0.77810   0.04310   0.47530   0.01267  Uiso   1.00
O4     O     0.76300   0.11440   0.32670   0.01267  Uiso   1.00
O5     O     0.87130   0.59970   0.64780   0.01267  Uiso   1.00
O6     O     0.80330   0.39990   0.50710   0.01267  Uiso   1.00
O7     O     0.22190   0.95690   0.52470   0.01267  Uiso   1.00
O8     O     0.23700   0.88560   0.67330   0.01267  Uiso   1.00
