data_UBOGAV_clean
_audit_creation_date              2014-07-02
_audit_creation_method            'Materials Studio'
_symmetry_space_group_name_H-M    'P1'
_symmetry_Int_Tables_number       1
_symmetry_cell_setting            triclinic
loop_
_symmetry_equiv_pos_as_xyz
  x,y,z
_cell_length_a                    9.5950
_cell_length_b                    10.3300
_cell_length_c                    13.6700
_cell_angle_alpha                 75.7020
_cell_angle_beta                  88.8540
_cell_angle_gamma                 65.3450
loop_
_atom_site_label
_atom_site_type_symbol
_atom_site_fract_x
_atom_site_fract_y
_atom_site_fract_z
_atom_site_U_iso_or_equiv
_atom_site_adp_type
_atom_site_occupancy
U1     U     0.76581   0.55021   0.99948   0.01267  Uiso   1.00
U2     U     0.23419   0.44979   0.00052   0.01267  Uiso   1.00
U3     U     0.00000   0.00000   0.00000   0.01267  Uiso   1.00
Cu1    Cu    0.90208   0.03481   0.42043   0.01267  Uiso   1.00
Cu2    Cu    0.09792   0.96519   0.57957   0.01267  Uiso   1.00
P1     P     0.62560   0.31710   0.91340   0.01267  Uiso   1.00
P2     P     0.91020   0.68860   0.12475   0.01267  Uiso   1.00
P3     P     0.37440   0.68290   0.08660   0.01267  Uiso   1.00
P4     P     0.08980   0.31140   0.87525   0.01267  Uiso   1.00
H1     H     0.76830   0.14830   0.77260   0.01267  Uiso   1.00
H2     H     0.47980   0.34570   0.51480   0.01267  Uiso   1.00
H3     H     0.30350   0.51630   0.59660   0.01267  Uiso   1.00
H4     H     0.36860   0.50620   0.76180   0.01267  Uiso   1.00
H5     H     0.93940   0.41600   0.25560   0.01267  Uiso   1.00
H6     H     0.19970   0.35420   0.50560   0.01267  Uiso   1.00
H7     H     0.20160   0.58380   0.43780   0.01267  Uiso   1.00
H8     H     0.07450   0.73090   0.28080   0.01267  Uiso   1.00
H9     H     0.23170   0.85170   0.22740   0.01267  Uiso   1.00
H10    H     0.52020   0.65430   0.48520   0.01267  Uiso   1.00
H11    H     0.69650   0.48370   0.40340   0.01267  Uiso   1.00
H12    H     0.63140   0.49380   0.23820   0.01267  Uiso   1.00
H13    H     0.06060   0.58400   0.74440   0.01267  Uiso   1.00
H14    H     0.80030   0.64580   0.49440   0.01267  Uiso   1.00
H15    H     0.79840   0.41620   0.56220   0.01267  Uiso   1.00
H16    H     0.92550   0.26910   0.71920   0.01267  Uiso   1.00
C1     C     0.57260   0.32290   0.78600   0.01267  Uiso   1.00
C2     C     0.67470   0.22420   0.73680   0.01267  Uiso   1.00
C3     C     0.64110   0.23540   0.63450   0.01267  Uiso   1.00
C4     C     0.50420   0.34090   0.58300   0.01267  Uiso   1.00
C5     C     0.39900   0.44280   0.63170   0.01267  Uiso   1.00
C6     C     0.43680   0.43430   0.73050   0.01267  Uiso   1.00
C7     C     0.76470   0.14370   0.58180   0.01267  Uiso   1.00
C8     C     0.99160   0.58710   0.25280   0.01267  Uiso   1.00
C9     C     0.99030   0.45170   0.29380   0.01267  Uiso   1.00
C10    C     0.06110   0.36690   0.38920   0.01267  Uiso   1.00
C11    C     0.14450   0.41440   0.44180   0.01267  Uiso   1.00
C12    C     0.14680   0.55050   0.40060   0.01267  Uiso   1.00
C13    C     0.07220   0.63790   0.30780   0.01267  Uiso   1.00
C14    C     0.04130   0.22820   0.43470   0.01267  Uiso   1.00
C15    C     0.42740   0.67710   0.21400   0.01267  Uiso   1.00
C16    C     0.32530   0.77580   0.26320   0.01267  Uiso   1.00
C17    C     0.35890   0.76460   0.36550   0.01267  Uiso   1.00
C18    C     0.49580   0.65910   0.41700   0.01267  Uiso   1.00
C19    C     0.60100   0.55720   0.36830   0.01267  Uiso   1.00
C20    C     0.56320   0.56570   0.26950   0.01267  Uiso   1.00
C21    C     0.23530   0.85630   0.41820   0.01267  Uiso   1.00
C22    C     0.00840   0.41290   0.74720   0.01267  Uiso   1.00
C23    C     0.00970   0.54830   0.70620   0.01267  Uiso   1.00
C24    C     0.93890   0.63310   0.61080   0.01267  Uiso   1.00
C25    C     0.85550   0.58560   0.55820   0.01267  Uiso   1.00
C26    C     0.85320   0.44950   0.59940   0.01267  Uiso   1.00
C27    C     0.92780   0.36210   0.69220   0.01267  Uiso   1.00
C28    C     0.95870   0.77180   0.56530   0.01267  Uiso   1.00
O1     O     0.68720   0.43390   0.90340   0.01267  Uiso   1.00
O2     O     0.74730   0.16070   0.95860   0.01267  Uiso   1.00
O3     O     0.48840   0.34590   0.97490   0.01267  Uiso   1.00
O4     O     0.74390   0.71130   0.11100   0.01267  Uiso   1.00
O5     O     0.99390   0.58790   0.05420   0.01267  Uiso   1.00
O6     O     0.92870   0.83260   0.10270   0.01267  Uiso   1.00
O7     O     0.72970   0.13680   0.49380   0.01267  Uiso   1.00
O8     O     0.90120   0.07900   0.62650   0.01267  Uiso   1.00
O9     O     0.12250   0.14600   0.51730   0.01267  Uiso   1.00
O10    O     0.94630   0.20650   0.38830   0.01267  Uiso   1.00
O11    O     0.31280   0.56610   0.09660   0.01267  Uiso   1.00
O12    O     0.25270   0.83930   0.04140   0.01267  Uiso   1.00
O13    O     0.51160   0.65410   0.02510   0.01267  Uiso   1.00
O14    O     0.25610   0.28870   0.88900   0.01267  Uiso   1.00
O15    O     0.00610   0.41210   0.94580   0.01267  Uiso   1.00
O16    O     0.07130   0.16740   0.89730   0.01267  Uiso   1.00
O17    O     0.27030   0.86320   0.50620   0.01267  Uiso   1.00
O18    O     0.09880   0.92100   0.37350   0.01267  Uiso   1.00
O19    O     0.87750   0.85400   0.48270   0.01267  Uiso   1.00
O20    O     0.05370   0.79350   0.61170   0.01267  Uiso   1.00
