data_image0
_cell_length_a       12.1538
_cell_length_b       12.1574
_cell_length_c       16.1536
_cell_angle_alpha    77.045
_cell_angle_beta     82.55
_cell_angle_gamma    83.527

_symmetry_space_group_name_H-M    "P 1"
_symmetry_int_tables_number       1

loop_
  _symmetry_equiv_pos_as_xyz
  'x, y, z'

loop_
  _atom_site_label
  _atom_site_occupancy
  _atom_site_fract_x
  _atom_site_fract_y
  _atom_site_fract_z
  _atom_site_thermal_displace_type
  _atom_site_B_iso_or_equiv
  _atom_site_type_symbol
  N1       1.0000 0.11210  0.37910  0.59777  Biso   1.000  N
  C1       1.0000 0.13530  0.26530  0.61340  Biso   1.000  C
  C2       1.0000 0.16150  0.40980  0.65670  Biso   1.000  C
  N2       1.0000 0.19440  0.22360  0.67730  Biso   1.000  N
  N3       1.0000 0.21080  0.31920  0.70510  Biso   1.000  N
  N4       1.0000 0.87210  0.98090  0.61930  Biso   1.000  N
  C3       1.0000 0.81010  0.89350  0.65750  Biso   1.000  C
  C4       1.0000 0.83950  0.05830  0.66570  Biso   1.000  C
  H1       1.0000 0.86650  0.12920  0.65590  Biso   1.000  H
  N5       1.0000 0.74200  0.91240  0.72420  Biso   1.000  N
  N6       1.0000 0.76240  0.01920  0.72834  Biso   1.000  N
  C5       1.0000 0.71270  0.07040  0.79710  Biso   1.000  C
  C6       1.0000 0.67680  0.18530  0.77950  Biso   1.000  C
  N7       1.0000 0.25270  0.46790  0.27615  Biso   1.000  N
  C7       1.0000 0.54980  0.21600  0.00160  Biso   1.000  C
  C8       1.0000 0.45210  0.28080  0.99220  Biso   1.000  C
  N8       1.0000 0.14550  0.49740  0.38938  Biso   1.000  N
  C9       1.0000 0.61200  0.16760  0.93040  Biso   1.000  C
  C10      1.0000 0.15800  0.44330  0.32580  Biso   1.000  C
  H2       1.0000 0.10830  0.39530  0.31700  Biso   1.000  H
  C11      1.0000 0.30050  0.42770  0.20120  Biso   1.000  C
  C12      1.0000 0.38990  0.29350  0.91660  Biso   1.000  C
  C13      1.0000 0.59810  0.18080  0.08450  Biso   1.000  C
  C14      1.0000 0.83980  0.05060  0.33580  Biso   1.000  C
  H3       1.0000 0.90090  0.05390  0.29440  Biso   1.000  H
  H4       1.0000 0.16200  0.47800  0.66000  Biso   1.000  H
  O1       1.0000 0.08400  0.63150  0.54422  Biso   1.000  O
  N9       1.0000 0.84550  0.02180  0.41897  Biso   1.000  N
  O2       1.0000 0.01050  0.80880  0.50396  Biso   1.000  O
  N10      1.0000 0.73420  0.07440  0.31942  Biso   1.000  N
  C15      1.0000 0.75690  0.15180  0.16580  Biso   1.000  C
  H5       1.0000 0.83220  0.15700  0.16790  Biso   1.000  H
  C16      1.0000 0.27490  0.40440  0.81170  Biso   1.000  C
  H6       1.0000 0.23900  0.47390  0.78820  Biso   1.000  H
  N11      1.0000 0.66620  0.06550  0.39440  Biso   1.000  N
  C17      1.0000 0.53250  0.13620  0.15950  Biso   1.000  C
  H7       1.0000 0.45750  0.12970  0.15740  Biso   1.000  H
  C18      1.0000 0.68870  0.10950  0.23960  Biso   1.000  C
  C19      1.0000 0.45860  0.39840  0.10150  Biso   1.000  C
  H8       1.0000 0.53240  0.40940  0.08060  Biso   1.000  H
  C20      1.0000 0.33250  0.39310  0.88130  Biso   1.000  C
  H9       1.0000 0.33260  0.45570  0.90550  Biso   1.000  H
  C21      1.0000 0.23590  0.37470  0.15990  Biso   1.000  C
  H10      1.0000 0.16080  0.36860  0.17870  Biso   1.000  H
  C22      1.0000 0.57660  0.10150  0.23640  Biso   1.000  C
  H11      1.0000 0.53150  0.07290  0.28590  Biso   1.000  H
  C23      1.0000 0.32110  0.20620  0.81330  Biso   1.000  C
  H12      1.0000 0.31550  0.14270  0.79140  Biso   1.000  H
  C24      1.0000 0.65910  0.05760  0.94510  Biso   1.000  C
  H13      1.0000 0.65780  0.01580  0.00100  Biso   1.000  H
  C25      1.0000 0.28450  0.33070  0.09040  Biso   1.000  C
  H14      1.0000 0.24100  0.29560  0.06230  Biso   1.000  H
  C26      1.0000 0.07920  0.73620  0.53780  Biso   1.000  C
  H15      1.0000 0.13430  0.76240  0.56150  Biso   1.000  H
  C27      1.0000 0.41150  0.44150  0.17140  Biso   1.000  C
  H16      1.0000 0.45370  0.47940  0.19820  Biso   1.000  H
  N12      1.0000 0.30660  0.53890  0.30860  Biso   1.000  N
  C28      1.0000 0.37970  0.19730  0.88270  Biso   1.000  C
  H17      1.0000 0.41310  0.12710  0.90770  Biso   1.000  H
  C29      1.0000 0.27110  0.31020  0.77690  Biso   1.000  C
  C30      1.0000 0.62760  0.23380  0.84690  Biso   1.000  C
  H18      1.0000 0.60470  0.31080  0.83680  Biso   1.000  H
  H19      1.0000 0.68300  0.23400  0.71800  Biso   1.000  H
  C31      1.0000 0.71090  0.18580  0.08940  Biso   1.000  C
  H20      1.0000 0.75660  0.21290  0.03990  Biso   1.000  H
  C32      1.0000 0.70860  0.00750  0.87880  Biso   1.000  C
  H21      1.0000 0.73840  0.93240  0.88970  Biso   1.000  H
  C33      1.0000 0.23850  0.55410  0.37620  Biso   1.000  C
  H22      1.0000 0.25300  0.59980  0.41190  Biso   1.000  H
  C34      1.0000 0.73700  0.03430  0.45140  Biso   1.000  C
  H23      1.0000 0.71480  0.02160  0.50980  Biso   1.000  H
  H24      1.0000 0.81700  0.83100  0.64300  Biso   1.000  H
  H25      1.0000 0.11200  0.22100  0.58100  Biso   1.000  H
  C35      1.0000 0.39740  0.33820  0.06160  Biso   1.000  C
  N13      1.0000 0.88790  0.62090  0.40223  Biso   1.000  N
  C36      1.0000 0.86470  0.73470  0.38660  Biso   1.000  C
  C37      1.0000 0.83850  0.59020  0.34330  Biso   1.000  C
  N14      1.0000 0.80560  0.77640  0.32270  Biso   1.000  N
  N15      1.0000 0.78920  0.68080  0.29490  Biso   1.000  N
  N16      1.0000 0.12790  0.01910  0.38070  Biso   1.000  N
  C38      1.0000 0.18990  0.10650  0.34250  Biso   1.000  C
  C39      1.0000 0.16050  0.94170  0.33430  Biso   1.000  C
  H26      1.0000 0.13350  0.87080  0.34410  Biso   1.000  H
  N17      1.0000 0.25800  0.08760  0.27580  Biso   1.000  N
  N18      1.0000 0.23760  0.98080  0.27166  Biso   1.000  N
  C40      1.0000 0.28730  0.92960  0.20290  Biso   1.000  C
  C41      1.0000 0.32320  0.81470  0.22050  Biso   1.000  C
  N19      1.0000 0.74730  0.53210  0.72385  Biso   1.000  N
  C42      1.0000 0.45020  0.78400  0.99840  Biso   1.000  C
  C43      1.0000 0.54790  0.71920  0.00780  Biso   1.000  C
  N20      1.0000 0.85450  0.50260  0.61062  Biso   1.000  N
  C44      1.0000 0.38800  0.83240  0.06960  Biso   1.000  C
  C45      1.0000 0.84200  0.55670  0.67420  Biso   1.000  C
  H27      1.0000 0.89170  0.60470  0.68300  Biso   1.000  H
  C46      1.0000 0.69950  0.57230  0.79880  Biso   1.000  C
  C47      1.0000 0.61010  0.70650  0.08340  Biso   1.000  C
  C48      1.0000 0.40190  0.81920  0.91550  Biso   1.000  C
  C49      1.0000 0.16020  0.94940  0.66420  Biso   1.000  C
  H28      1.0000 0.09910  0.94610  0.70560  Biso   1.000  H
  H29      1.0000 0.83800  0.52200  0.34000  Biso   1.000  H
  O3       1.0000 0.91600  0.36850  0.45578  Biso   1.000  O
  N21      1.0000 0.15450  0.97820  0.58103  Biso   1.000  N
  O4       1.0000 0.98950  0.19120  0.49604  Biso   1.000  O
  N22      1.0000 0.26580  0.92560  0.68058  Biso   1.000  N
  C50      1.0000 0.24310  0.84820  0.83420  Biso   1.000  C
  H30      1.0000 0.16780  0.84300  0.83210  Biso   1.000  H
  C51      1.0000 0.72510  0.59560  0.18830  Biso   1.000  C
  H31      1.0000 0.76100  0.52610  0.21180  Biso   1.000  H
  N23      1.0000 0.33380  0.93450  0.60560  Biso   1.000  N
  C52      1.0000 0.46750  0.86380  0.84050  Biso   1.000  C
  H32      1.0000 0.54250  0.87030  0.84260  Biso   1.000  H
  C53      1.0000 0.31130  0.89050  0.76040  Biso   1.000  C
  C54      1.0000 0.54140  0.60160  0.89850  Biso   1.000  C
  H33      1.0000 0.46760  0.59060  0.91940  Biso   1.000  H
  C55      1.0000 0.66750  0.60690  0.11870  Biso   1.000  C
  H34      1.0000 0.66740  0.54430  0.09450  Biso   1.000  H
  C56      1.0000 0.76410  0.62530  0.84010  Biso   1.000  C
  H35      1.0000 0.83920  0.63140  0.82130  Biso   1.000  H
  C57      1.0000 0.42340  0.89850  0.76360  Biso   1.000  C
  H36      1.0000 0.46850  0.92710  0.71410  Biso   1.000  H
  C58      1.0000 0.67890  0.79380  0.18670  Biso   1.000  C
  H37      1.0000 0.68450  0.85730  0.20860  Biso   1.000  H
  C59      1.0000 0.34090  0.94240  0.05490  Biso   1.000  C
  H38      1.0000 0.34220  0.98420  0.99900  Biso   1.000  H
  C60      1.0000 0.71550  0.66930  0.90960  Biso   1.000  C
  H39      1.0000 0.75900  0.70440  0.93770  Biso   1.000  H
  C61      1.0000 0.92080  0.26380  0.46220  Biso   1.000  C
  H40      1.0000 0.86570  0.23760  0.43850  Biso   1.000  H
  C62      1.0000 0.58850  0.55850  0.82860  Biso   1.000  C
  H41      1.0000 0.54630  0.52060  0.80180  Biso   1.000  H
  N24      1.0000 0.69340  0.46110  0.69140  Biso   1.000  N
  C63      1.0000 0.62030  0.80270  0.11730  Biso   1.000  C
  H42      1.0000 0.58690  0.87290  0.09230  Biso   1.000  H
  C64      1.0000 0.72890  0.68980  0.22310  Biso   1.000  C
  C65      1.0000 0.37240  0.76620  0.15310  Biso   1.000  C
  H43      1.0000 0.39530  0.68920  0.16320  Biso   1.000  H
  H44      1.0000 0.31700  0.76600  0.28200  Biso   1.000  H
  C66      1.0000 0.28910  0.81420  0.91060  Biso   1.000  C
  H45      1.0000 0.24340  0.78710  0.96010  Biso   1.000  H
  C67      1.0000 0.29140  0.99250  0.12120  Biso   1.000  C
  H46      1.0000 0.26160  0.06760  0.11030  Biso   1.000  H
  C68      1.0000 0.76150  0.44590  0.62380  Biso   1.000  C
  H47      1.0000 0.74700  0.40020  0.58810  Biso   1.000  H
  C69      1.0000 0.26300  0.96570  0.54860  Biso   1.000  C
  H48      1.0000 0.28520  0.97840  0.49020  Biso   1.000  H
  H49      1.0000 0.18300  0.16900  0.35700  Biso   1.000  H
  H50      1.0000 0.88800  0.77900  0.41900  Biso   1.000  H
  C70      1.0000 0.60260  0.66180  0.93840  Biso   1.000  C
  Cd1      1.0000 0.00000  0.50000  0.50000  Biso   1.000  Cd
  Cd2      1.0000 0.00000  0.00000  0.50000  Biso   1.000  Cd
