data_image0
_cell_length_a       16.746
_cell_length_b       14.223
_cell_length_c       12.321
_cell_angle_alpha    90
_cell_angle_beta     113.653
_cell_angle_gamma    90

_symmetry_space_group_name_H-M    "P 1"
_symmetry_int_tables_number       1

loop_
  _symmetry_equiv_pos_as_xyz
  'x, y, z'

loop_
  _atom_site_label
  _atom_site_occupancy
  _atom_site_fract_x
  _atom_site_fract_y
  _atom_site_fract_z
  _atom_site_thermal_displace_type
  _atom_site_B_iso_or_equiv
  _atom_site_type_symbol
  N1       1.0000 0.91880  0.32970  0.78240  Biso   1.000  N
  C1       1.0000 0.89190  0.25690  0.70730  Biso   1.000  C
  C2       1.0000 0.89310  0.32970  0.87360  Biso   1.000  C
  C3       1.0000 0.84280  0.18480  0.72170  Biso   1.000  C
  H1       1.0000 0.90730  0.25520  0.64270  Biso   1.000  H
  C4       1.0000 0.84130  0.26240  0.89310  Biso   1.000  C
  H2       1.0000 0.91190  0.37910  0.92730  Biso   1.000  H
  C5       1.0000 0.81650  0.18660  0.81480  Biso   1.000  C
  H3       1.0000 0.82720  0.13460  0.66890  Biso   1.000  H
  C6       1.0000 0.80840  0.27750  0.98870  Biso   1.000  C
  H4       1.0000 0.78280  0.13810  0.82490  Biso   1.000  H
  C7       1.0000 0.79200  0.19310  0.05520  Biso   1.000  C
  H5       1.0000 0.84500  0.32390  0.04570  Biso   1.000  H
  H6       1.0000 0.79910  0.13310  0.02110  Biso   1.000  H
  C8       1.0000 0.84150  0.19510  0.18780  Biso   1.000  C
  N2       1.0000 0.82550  0.12390  0.24630  Biso   1.000  N
  O1       1.0000 0.89010  0.26050  0.23940  Biso   1.000  O
  C9       1.0000 0.85260  0.12290  0.37470  Biso   1.000  C
  H7       1.0000 0.79770  0.07590  0.20640  Biso   1.000  H
  C10      1.0000 0.92900  0.05930  0.43910  Biso   1.000  C
  H8       1.0000 0.80370  0.10310  0.39240  Biso   1.000  H
  H9       1.0000 0.86790  0.18640  0.40450  Biso   1.000  H
  C11      1.0000 0.93060  0.00480  0.53240  Biso   1.000  C
  C12      1.0000 0.00010  0.05350  0.40770  Biso   1.000  C
  H10      1.0000 0.88410  0.00760  0.55530  Biso   1.000  H
  H11      1.0000 0.00070  0.08960  0.34510  Biso   1.000  H
  N3       1.0000 0.41880  0.82970  0.78240  Biso   1.000  N
  C13      1.0000 0.39190  0.75690  0.70730  Biso   1.000  C
  C14      1.0000 0.39310  0.82970  0.87360  Biso   1.000  C
  C15      1.0000 0.34280  0.68480  0.72170  Biso   1.000  C
  H12      1.0000 0.40730  0.75520  0.64270  Biso   1.000  H
  C16      1.0000 0.34130  0.76240  0.89310  Biso   1.000  C
  H13      1.0000 0.41190  0.87910  0.92730  Biso   1.000  H
  C17      1.0000 0.31650  0.68660  0.81480  Biso   1.000  C
  H14      1.0000 0.32720  0.63460  0.66890  Biso   1.000  H
  C18      1.0000 0.30840  0.77750  0.98870  Biso   1.000  C
  H15      1.0000 0.28280  0.63810  0.82490  Biso   1.000  H
  C19      1.0000 0.29200  0.69310  0.05520  Biso   1.000  C
  H16      1.0000 0.34500  0.82390  0.04570  Biso   1.000  H
  H17      1.0000 0.29910  0.63310  0.02110  Biso   1.000  H
  C20      1.0000 0.34150  0.69510  0.18780  Biso   1.000  C
  N4       1.0000 0.32550  0.62390  0.24630  Biso   1.000  N
  O2       1.0000 0.39010  0.76050  0.23940  Biso   1.000  O
  C21      1.0000 0.35260  0.62290  0.37470  Biso   1.000  C
  H18      1.0000 0.29770  0.57590  0.20640  Biso   1.000  H
  C22      1.0000 0.42900  0.55930  0.43910  Biso   1.000  C
  H19      1.0000 0.30370  0.60310  0.39240  Biso   1.000  H
  H20      1.0000 0.36790  0.68640  0.40450  Biso   1.000  H
  C23      1.0000 0.43060  0.50480  0.53240  Biso   1.000  C
  C24      1.0000 0.50010  0.55350  0.40770  Biso   1.000  C
  H21      1.0000 0.38410  0.50760  0.55530  Biso   1.000  H
  H22      1.0000 0.50070  0.58960  0.34510  Biso   1.000  H
  N5       1.0000 0.08120  0.32970  0.71760  Biso   1.000  N
  C25      1.0000 0.10810  0.25690  0.79270  Biso   1.000  C
  C26      1.0000 0.10690  0.32970  0.62640  Biso   1.000  C
  C27      1.0000 0.15720  0.18480  0.77830  Biso   1.000  C
  H23      1.0000 0.09270  0.25520  0.85730  Biso   1.000  H
  C28      1.0000 0.15870  0.26240  0.60690  Biso   1.000  C
  H24      1.0000 0.08810  0.37910  0.57270  Biso   1.000  H
  C29      1.0000 0.18350  0.18660  0.68520  Biso   1.000  C
  H25      1.0000 0.17280  0.13460  0.83110  Biso   1.000  H
  C30      1.0000 0.19160  0.27750  0.51130  Biso   1.000  C
  H26      1.0000 0.21720  0.13810  0.67510  Biso   1.000  H
  C31      1.0000 0.20800  0.19310  0.44480  Biso   1.000  C
  H27      1.0000 0.15500  0.32390  0.45430  Biso   1.000  H
  H28      1.0000 0.20090  0.13310  0.47890  Biso   1.000  H
  C32      1.0000 0.15850  0.19510  0.31220  Biso   1.000  C
  N6       1.0000 0.17450  0.12390  0.25370  Biso   1.000  N
  O3       1.0000 0.10990  0.26050  0.26060  Biso   1.000  O
  C33      1.0000 0.14740  0.12290  0.12530  Biso   1.000  C
  H29      1.0000 0.20230  0.07590  0.29360  Biso   1.000  H
  C34      1.0000 0.07100  0.05930  0.06090  Biso   1.000  C
  H30      1.0000 0.19630  0.10310  0.10760  Biso   1.000  H
  H31      1.0000 0.13210  0.18640  0.09550  Biso   1.000  H
  C35      1.0000 0.06940  0.00480  0.96760  Biso   1.000  C
  C36      1.0000 0.99990  0.05350  0.09230  Biso   1.000  C
  H32      1.0000 0.11590  0.00760  0.94470  Biso   1.000  H
  H33      1.0000 0.99930  0.08960  0.15490  Biso   1.000  H
  N7       1.0000 0.58120  0.82970  0.71760  Biso   1.000  N
  C37      1.0000 0.60810  0.75690  0.79270  Biso   1.000  C
  C38      1.0000 0.60690  0.82970  0.62640  Biso   1.000  C
  C39      1.0000 0.65720  0.68480  0.77830  Biso   1.000  C
  H34      1.0000 0.59270  0.75520  0.85730  Biso   1.000  H
  C40      1.0000 0.65870  0.76240  0.60690  Biso   1.000  C
  H35      1.0000 0.58810  0.87910  0.57270  Biso   1.000  H
  C41      1.0000 0.68350  0.68660  0.68520  Biso   1.000  C
  H36      1.0000 0.67280  0.63460  0.83110  Biso   1.000  H
  C42      1.0000 0.69160  0.77750  0.51130  Biso   1.000  C
  H37      1.0000 0.71720  0.63810  0.67510  Biso   1.000  H
  C43      1.0000 0.70800  0.69310  0.44480  Biso   1.000  C
  H38      1.0000 0.65500  0.82390  0.45430  Biso   1.000  H
  H39      1.0000 0.70090  0.63310  0.47890  Biso   1.000  H
  C44      1.0000 0.65850  0.69510  0.31220  Biso   1.000  C
  N8       1.0000 0.67450  0.62390  0.25370  Biso   1.000  N
  O4       1.0000 0.60990  0.76050  0.26060  Biso   1.000  O
  C45      1.0000 0.64740  0.62290  0.12530  Biso   1.000  C
  H40      1.0000 0.70230  0.57590  0.29360  Biso   1.000  H
  C46      1.0000 0.57100  0.55930  0.06090  Biso   1.000  C
  H41      1.0000 0.69630  0.60310  0.10760  Biso   1.000  H
  H42      1.0000 0.63210  0.68640  0.09550  Biso   1.000  H
  C47      1.0000 0.56940  0.50480  0.96760  Biso   1.000  C
  C48      1.0000 0.49990  0.55350  0.09230  Biso   1.000  C
  H43      1.0000 0.61590  0.50760  0.94470  Biso   1.000  H
  H44      1.0000 0.49930  0.58960  0.15490  Biso   1.000  H
  N9       1.0000 0.08120  0.67030  0.21760  Biso   1.000  N
  C49      1.0000 0.10810  0.74310  0.29270  Biso   1.000  C
  C50      1.0000 0.10690  0.67030  0.12640  Biso   1.000  C
  C51      1.0000 0.15720  0.81520  0.27830  Biso   1.000  C
  H45      1.0000 0.09270  0.74480  0.35730  Biso   1.000  H
  C52      1.0000 0.15870  0.73760  0.10690  Biso   1.000  C
  H46      1.0000 0.08810  0.62090  0.07270  Biso   1.000  H
  C53      1.0000 0.18350  0.81340  0.18520  Biso   1.000  C
  H47      1.0000 0.17280  0.86540  0.33110  Biso   1.000  H
  C54      1.0000 0.19160  0.72250  0.01130  Biso   1.000  C
  H48      1.0000 0.21720  0.86190  0.17510  Biso   1.000  H
  C55      1.0000 0.20800  0.80690  0.94480  Biso   1.000  C
  H49      1.0000 0.15500  0.67610  0.95430  Biso   1.000  H
  H50      1.0000 0.20090  0.86690  0.97890  Biso   1.000  H
  C56      1.0000 0.15850  0.80490  0.81220  Biso   1.000  C
  N10      1.0000 0.17450  0.87610  0.75370  Biso   1.000  N
  O5       1.0000 0.10990  0.73950  0.76060  Biso   1.000  O
  C57      1.0000 0.14740  0.87710  0.62530  Biso   1.000  C
  H51      1.0000 0.20230  0.92410  0.79360  Biso   1.000  H
  C58      1.0000 0.07100  0.94070  0.56090  Biso   1.000  C
  H52      1.0000 0.19630  0.89690  0.60760  Biso   1.000  H
  H53      1.0000 0.13210  0.81360  0.59550  Biso   1.000  H
  C59      1.0000 0.06940  0.99520  0.46760  Biso   1.000  C
  C60      1.0000 0.99990  0.94650  0.59230  Biso   1.000  C
  H54      1.0000 0.11590  0.99240  0.44470  Biso   1.000  H
  H55      1.0000 0.99930  0.91040  0.65490  Biso   1.000  H
  N11      1.0000 0.58120  0.17030  0.21760  Biso   1.000  N
  C61      1.0000 0.60810  0.24310  0.29270  Biso   1.000  C
  C62      1.0000 0.60690  0.17030  0.12640  Biso   1.000  C
  C63      1.0000 0.65720  0.31520  0.27830  Biso   1.000  C
  H56      1.0000 0.59270  0.24480  0.35730  Biso   1.000  H
  C64      1.0000 0.65870  0.23760  0.10690  Biso   1.000  C
  H57      1.0000 0.58810  0.12090  0.07270  Biso   1.000  H
  C65      1.0000 0.68350  0.31340  0.18520  Biso   1.000  C
  H58      1.0000 0.67280  0.36540  0.33110  Biso   1.000  H
  C66      1.0000 0.69160  0.22250  0.01130  Biso   1.000  C
  H59      1.0000 0.71720  0.36190  0.17510  Biso   1.000  H
  C67      1.0000 0.70800  0.30690  0.94480  Biso   1.000  C
  H60      1.0000 0.65500  0.17610  0.95430  Biso   1.000  H
  H61      1.0000 0.70090  0.36690  0.97890  Biso   1.000  H
  C68      1.0000 0.65850  0.30490  0.81220  Biso   1.000  C
  N12      1.0000 0.67450  0.37610  0.75370  Biso   1.000  N
  O6       1.0000 0.60990  0.23950  0.76060  Biso   1.000  O
  C69      1.0000 0.64740  0.37710  0.62530  Biso   1.000  C
  H62      1.0000 0.70230  0.42410  0.79360  Biso   1.000  H
  C70      1.0000 0.57100  0.44070  0.56090  Biso   1.000  C
  H63      1.0000 0.69630  0.39690  0.60760  Biso   1.000  H
  H64      1.0000 0.63210  0.31360  0.59550  Biso   1.000  H
  C71      1.0000 0.56940  0.49520  0.46760  Biso   1.000  C
  C72      1.0000 0.49990  0.44650  0.59230  Biso   1.000  C
  H65      1.0000 0.61590  0.49240  0.44470  Biso   1.000  H
  H66      1.0000 0.49930  0.41040  0.65490  Biso   1.000  H
  N13      1.0000 0.91880  0.67030  0.28240  Biso   1.000  N
  C73      1.0000 0.89190  0.74310  0.20730  Biso   1.000  C
  C74      1.0000 0.89310  0.67030  0.37360  Biso   1.000  C
  C75      1.0000 0.84280  0.81520  0.22170  Biso   1.000  C
  H67      1.0000 0.90730  0.74480  0.14270  Biso   1.000  H
  C76      1.0000 0.84130  0.73760  0.39310  Biso   1.000  C
  H68      1.0000 0.91190  0.62090  0.42730  Biso   1.000  H
  C77      1.0000 0.81650  0.81340  0.31480  Biso   1.000  C
  H69      1.0000 0.82720  0.86540  0.16890  Biso   1.000  H
  C78      1.0000 0.80840  0.72250  0.48870  Biso   1.000  C
  H70      1.0000 0.78280  0.86190  0.32490  Biso   1.000  H
  C79      1.0000 0.79200  0.80690  0.55520  Biso   1.000  C
  H71      1.0000 0.84500  0.67610  0.54570  Biso   1.000  H
  H72      1.0000 0.79910  0.86690  0.52110  Biso   1.000  H
  C80      1.0000 0.84150  0.80490  0.68780  Biso   1.000  C
  N14      1.0000 0.82550  0.87610  0.74630  Biso   1.000  N
  O7       1.0000 0.89010  0.73950  0.73940  Biso   1.000  O
  C81      1.0000 0.85260  0.87710  0.87470  Biso   1.000  C
  H73      1.0000 0.79770  0.92410  0.70640  Biso   1.000  H
  C82      1.0000 0.92900  0.94070  0.93910  Biso   1.000  C
  H74      1.0000 0.80370  0.89690  0.89240  Biso   1.000  H
  H75      1.0000 0.86790  0.81360  0.90450  Biso   1.000  H
  C83      1.0000 0.93060  0.99520  0.03240  Biso   1.000  C
  C84      1.0000 0.00010  0.94650  0.90770  Biso   1.000  C
  H76      1.0000 0.88410  0.99240  0.05530  Biso   1.000  H
  H77      1.0000 0.00070  0.91040  0.84510  Biso   1.000  H
  N15      1.0000 0.41880  0.17030  0.28240  Biso   1.000  N
  C85      1.0000 0.39190  0.24310  0.20730  Biso   1.000  C
  C86      1.0000 0.39310  0.17030  0.37360  Biso   1.000  C
  C87      1.0000 0.34280  0.31520  0.22170  Biso   1.000  C
  H78      1.0000 0.40730  0.24480  0.14270  Biso   1.000  H
  C88      1.0000 0.34130  0.23760  0.39310  Biso   1.000  C
  H79      1.0000 0.41190  0.12090  0.42730  Biso   1.000  H
  C89      1.0000 0.31650  0.31340  0.31480  Biso   1.000  C
  H80      1.0000 0.32720  0.36540  0.16890  Biso   1.000  H
  C90      1.0000 0.30840  0.22250  0.48870  Biso   1.000  C
  H81      1.0000 0.28280  0.36190  0.32490  Biso   1.000  H
  C91      1.0000 0.29200  0.30690  0.55520  Biso   1.000  C
  H82      1.0000 0.34500  0.17610  0.54570  Biso   1.000  H
  H83      1.0000 0.29910  0.36690  0.52110  Biso   1.000  H
  C92      1.0000 0.34150  0.30490  0.68780  Biso   1.000  C
  N16      1.0000 0.32550  0.37610  0.74630  Biso   1.000  N
  O8       1.0000 0.39010  0.23950  0.73940  Biso   1.000  O
  C93      1.0000 0.35260  0.37710  0.87470  Biso   1.000  C
  H84      1.0000 0.29770  0.42410  0.70640  Biso   1.000  H
  C94      1.0000 0.42900  0.44070  0.93910  Biso   1.000  C
  H85      1.0000 0.30370  0.39690  0.89240  Biso   1.000  H
  H86      1.0000 0.36790  0.31360  0.90450  Biso   1.000  H
  C95      1.0000 0.43060  0.49520  0.03240  Biso   1.000  C
  C96      1.0000 0.50010  0.44650  0.90770  Biso   1.000  C
  H87      1.0000 0.38410  0.49240  0.05530  Biso   1.000  H
  H88      1.0000 0.50070  0.41040  0.84510  Biso   1.000  H
  Cd1      1.0000 0.00000  0.45114  0.75000  Biso   1.000  Cd
  Cd2      1.0000 0.50000  0.95114  0.75000  Biso   1.000  Cd
  Cd3      1.0000 0.00000  0.54886  0.25000  Biso   1.000  Cd
  Cd4      1.0000 0.50000  0.04886  0.25000  Biso   1.000  Cd
