data_image0
_cell_length_a       9.909
_cell_length_b       10.337
_cell_length_c       13.558
_cell_angle_alpha    81.95
_cell_angle_beta     86.55
_cell_angle_gamma    65.69

_symmetry_space_group_name_H-M    "P 1"
_symmetry_int_tables_number       1

loop_
  _symmetry_equiv_pos_as_xyz
  'x, y, z'

loop_
  _atom_site_label
  _atom_site_occupancy
  _atom_site_fract_x
  _atom_site_fract_y
  _atom_site_fract_z
  _atom_site_thermal_displace_type
  _atom_site_B_iso_or_equiv
  _atom_site_type_symbol
  Eu1      1.0000 0.33358  0.21705  0.18363  Biso   1.000  Eu
  Mo1      1.0000 0.74388  0.62387  0.24067  Biso   1.000  Mo
  O1       1.0000 0.35160  0.44760  0.18450  Biso   1.000  O
  H1       1.0000 0.45420  0.42590  0.20130  Biso   1.000  H
  N1       1.0000 0.90490  0.33960  0.40530  Biso   1.000  N
  N2       1.0000 0.75010  0.73690  0.45710  Biso   1.000  N
  N3       1.0000 0.43350  0.60940  0.33190  Biso   1.000  N
  N4       1.0000 0.48480  0.95430  0.20800  Biso   1.000  N
  N5       1.0000 0.67820  0.37370  0.14900  Biso   1.000  N
  N6       1.0000 0.29320  0.27990  0.00230  Biso   1.000  N
  N7       1.0000 0.08030  0.41550  0.17040  Biso   1.000  N
  N8       1.0000 0.94560  0.81580  0.20220  Biso   1.000  N
  C1       1.0000 0.84320  0.43860  0.35010  Biso   1.000  C
  C2       1.0000 0.74590  0.70010  0.38090  Biso   1.000  C
  C3       1.0000 0.54290  0.61620  0.30330  Biso   1.000  C
  C4       1.0000 0.57260  0.84080  0.21960  Biso   1.000  C
  C5       1.0000 0.70380  0.46150  0.17790  Biso   1.000  C
  C6       1.0000 0.28170  0.31300  0.91870  Biso   1.000  C
  C7       1.0000 0.96220  0.49080  0.18960  Biso   1.000  C
  C8       1.0000 0.87230  0.75290  0.21350  Biso   1.000  C
  C9       1.0000 0.30710  0.56550  0.10310  Biso   1.000  C
  H2       1.0000 0.37330  0.53830  0.04770  Biso   1.000  H
  H3       1.0000 0.31080  0.64830  0.12520  Biso   1.000  H
  H4       1.0000 0.20800  0.58750  0.08300  Biso   1.000  H
  Cs1      1.0000 0.14858  0.55056  0.38407  Biso   1.000  Cs
  Eu2      1.0000 0.66642  0.78295  0.81637  Biso   1.000  Eu
  Mo2      1.0000 0.25612  0.37613  0.75933  Biso   1.000  Mo
  O2       1.0000 0.64840  0.55240  0.81550  Biso   1.000  O
  H5       1.0000 0.54580  0.57410  0.79870  Biso   1.000  H
  N9       1.0000 0.09510  0.66040  0.59470  Biso   1.000  N
  N10      1.0000 0.24990  0.26310  0.54290  Biso   1.000  N
  N11      1.0000 0.56650  0.39060  0.66810  Biso   1.000  N
  N12      1.0000 0.51520  0.04570  0.79200  Biso   1.000  N
  N13      1.0000 0.32180  0.62630  0.85100  Biso   1.000  N
  N14      1.0000 0.70680  0.72010  0.99770  Biso   1.000  N
  N15      1.0000 0.91970  0.58450  0.82960  Biso   1.000  N
  N16      1.0000 0.05440  0.18420  0.79780  Biso   1.000  N
  C10      1.0000 0.15680  0.56140  0.64990  Biso   1.000  C
  C11      1.0000 0.25410  0.29990  0.61910  Biso   1.000  C
  C12      1.0000 0.45710  0.38380  0.69670  Biso   1.000  C
  C13      1.0000 0.42740  0.15920  0.78040  Biso   1.000  C
  C14      1.0000 0.29620  0.53850  0.82210  Biso   1.000  C
  C15      1.0000 0.71830  0.68700  0.08130  Biso   1.000  C
  C16      1.0000 0.03780  0.50920  0.81040  Biso   1.000  C
  C17      1.0000 0.12770  0.24710  0.78650  Biso   1.000  C
  C18      1.0000 0.69290  0.43450  0.89690  Biso   1.000  C
  H6       1.0000 0.62670  0.46170  0.95230  Biso   1.000  H
  H7       1.0000 0.68920  0.35170  0.87480  Biso   1.000  H
  H8       1.0000 0.79200  0.41250  0.91700  Biso   1.000  H
  Cs2      1.0000 0.85142  0.44944  0.61593  Biso   1.000  Cs
