data_image0
_cell_length_a       9.889
_cell_length_b       10.293
_cell_length_c       13.518
_cell_angle_alpha    82.04
_cell_angle_beta     86.67
_cell_angle_gamma    65.58

_symmetry_space_group_name_H-M    "P 1"
_symmetry_int_tables_number       1

loop_
  _symmetry_equiv_pos_as_xyz
  'x, y, z'

loop_
  _atom_site_label
  _atom_site_occupancy
  _atom_site_fract_x
  _atom_site_fract_y
  _atom_site_fract_z
  _atom_site_thermal_displace_type
  _atom_site_B_iso_or_equiv
  _atom_site_type_symbol
  Tb1      1.0000 0.33381  0.21745  0.18326  Biso   1.000  Tb
  Mo1      1.0000 0.74454  0.62429  0.24011  Biso   1.000  Mo
  O1       1.0000 0.35140  0.44620  0.18560  Biso   1.000  O
  H1       1.0000 0.45430  0.42420  0.20260  Biso   1.000  H
  N1       1.0000 0.90460  0.33960  0.40690  Biso   1.000  N
  N2       1.0000 0.74920  0.73660  0.45850  Biso   1.000  N
  N3       1.0000 0.43390  0.61130  0.33270  Biso   1.000  N
  N4       1.0000 0.48250  0.95600  0.21020  Biso   1.000  N
  N5       1.0000 0.67800  0.37280  0.15020  Biso   1.000  N
  N6       1.0000 0.29290  0.28100  0.00380  Biso   1.000  N
  N7       1.0000 0.08180  0.41290  0.17280  Biso   1.000  N
  N8       1.0000 0.94620  0.81640  0.20370  Biso   1.000  N
  C1       1.0000 0.84320  0.43710  0.35090  Biso   1.000  C
  C2       1.0000 0.74540  0.70120  0.38160  Biso   1.000  C
  C3       1.0000 0.54210  0.61500  0.30430  Biso   1.000  C
  C4       1.0000 0.57290  0.84150  0.22010  Biso   1.000  C
  C5       1.0000 0.70330  0.46030  0.17960  Biso   1.000  C
  C6       1.0000 0.28150  0.31240  0.91840  Biso   1.000  C
  C7       1.0000 0.96330  0.49020  0.19080  Biso   1.000  C
  C8       1.0000 0.87350  0.75300  0.21550  Biso   1.000  C
  C9       1.0000 0.30680  0.56480  0.10590  Biso   1.000  C
  H2       1.0000 0.38620  0.54970  0.05840  Biso   1.000  H
  H3       1.0000 0.28410  0.65290  0.13310  Biso   1.000  H
  H4       1.0000 0.22040  0.57040  0.07340  Biso   1.000  H
  Cs1      1.0000 0.14923  0.55003  0.38406  Biso   1.000  Cs
  Tb2      1.0000 0.66619  0.78255  0.81674  Biso   1.000  Tb
  Mo2      1.0000 0.25546  0.37571  0.75989  Biso   1.000  Mo
  O2       1.0000 0.64860  0.55380  0.81440  Biso   1.000  O
  H5       1.0000 0.54570  0.57580  0.79740  Biso   1.000  H
  N9       1.0000 0.09540  0.66040  0.59310  Biso   1.000  N
  N10      1.0000 0.25080  0.26340  0.54150  Biso   1.000  N
  N11      1.0000 0.56610  0.38870  0.66730  Biso   1.000  N
  N12      1.0000 0.51750  0.04400  0.78980  Biso   1.000  N
  N13      1.0000 0.32200  0.62720  0.84980  Biso   1.000  N
  N14      1.0000 0.70710  0.71900  0.99620  Biso   1.000  N
  N15      1.0000 0.91820  0.58710  0.82720  Biso   1.000  N
  N16      1.0000 0.05380  0.18360  0.79630  Biso   1.000  N
  C10      1.0000 0.15680  0.56290  0.64910  Biso   1.000  C
  C11      1.0000 0.25460  0.29880  0.61840  Biso   1.000  C
  C12      1.0000 0.45790  0.38500  0.69570  Biso   1.000  C
  C13      1.0000 0.42710  0.15850  0.77990  Biso   1.000  C
  C14      1.0000 0.29670  0.53970  0.82040  Biso   1.000  C
  C15      1.0000 0.71850  0.68760  0.08160  Biso   1.000  C
  C16      1.0000 0.03670  0.50980  0.80920  Biso   1.000  C
  C17      1.0000 0.12650  0.24700  0.78450  Biso   1.000  C
  C18      1.0000 0.69320  0.43520  0.89410  Biso   1.000  C
  H6       1.0000 0.61380  0.45030  0.94160  Biso   1.000  H
  H7       1.0000 0.71590  0.34710  0.86690  Biso   1.000  H
  H8       1.0000 0.77960  0.42960  0.92660  Biso   1.000  H
  Cs2      1.0000 0.85077  0.44997  0.61594  Biso   1.000  Cs
