data_UCEXIK_clean
_audit_creation_date              2014-07-02
_audit_creation_method            'Materials Studio'
_symmetry_space_group_name_H-M    'P1'
_symmetry_Int_Tables_number       1
_symmetry_cell_setting            triclinic
loop_
_symmetry_equiv_pos_as_xyz
  x,y,z
_cell_length_a                    10.7410
_cell_length_b                    11.2840
_cell_length_c                    26.1520
_cell_angle_alpha                 84.9700
_cell_angle_beta                  87.9630
_cell_angle_gamma                 62.5680
loop_
_atom_site_label
_atom_site_type_symbol
_atom_site_fract_x
_atom_site_fract_y
_atom_site_fract_z
_atom_site_U_iso_or_equiv
_atom_site_adp_type
_atom_site_occupancy
Ho1    Ho    0.38087   0.03533   0.56029   0.01267  Uiso   1.00
Ho2    Ho    0.34418   0.84616   0.74180   0.01267  Uiso   1.00
Ho3    Ho    0.41140   0.61727   0.89967   0.01267  Uiso   1.00
Ho4    Ho    0.61913   0.96467   0.43971   0.01267  Uiso   1.00
Ho5    Ho    0.65582   0.15384   0.25820   0.01267  Uiso   1.00
Ho6    Ho    0.58860   0.38273   0.10033   0.01267  Uiso   1.00
H1     H     0.45340   0.40810   0.57570   0.01267  Uiso   1.00
H2     H     0.54430   0.38750   0.42610   0.01267  Uiso   1.00
H3     H     0.33890   0.35550   0.64650   0.01267  Uiso   1.00
H4     H     0.36490   0.51980   0.68710   0.01267  Uiso   1.00
H5     H     0.43890   0.11830   0.77700   0.01267  Uiso   1.00
H6     H     0.45440   0.28630   0.81870   0.01267  Uiso   1.00
H7     H     0.03610   0.00610   0.54890   0.01267  Uiso   1.00
H8     H     0.82400   0.01810   0.52760   0.01267  Uiso   1.00
H9     H     0.85310   0.76870   0.65130   0.01267  Uiso   1.00
H10    H     0.07250   0.75010   0.67010   0.01267  Uiso   1.00
H11    H     0.71090   0.82420   0.75830   0.01267  Uiso   1.00
H12    H     0.92240   0.83360   0.75040   0.01267  Uiso   1.00
H13    H     0.01830   0.68650   0.89580   0.01267  Uiso   1.00
H14    H     0.81610   0.66310   0.90240   0.01267  Uiso   1.00
H15    H     0.36220   0.06470   0.92710   0.01267  Uiso   1.00
H16    H     0.59490   0.78050   0.03480   0.01267  Uiso   1.00
H17    H     0.13040   0.37400   0.93530   0.01267  Uiso   1.00
H18    H     0.05180   0.65780   0.03130   0.01267  Uiso   1.00
H19    H     0.54660   0.59190   0.42430   0.01267  Uiso   1.00
H20    H     0.45570   0.61250   0.57390   0.01267  Uiso   1.00
H21    H     0.66110   0.64450   0.35350   0.01267  Uiso   1.00
H22    H     0.63510   0.48020   0.31290   0.01267  Uiso   1.00
H23    H     0.56110   0.88170   0.22300   0.01267  Uiso   1.00
H24    H     0.54560   0.71370   0.18130   0.01267  Uiso   1.00
H25    H     0.96390   0.99390   0.45110   0.01267  Uiso   1.00
H26    H     0.17600   0.98190   0.47240   0.01267  Uiso   1.00
H27    H     0.14690   0.23130   0.34870   0.01267  Uiso   1.00
H28    H     0.92750   0.24990   0.32990   0.01267  Uiso   1.00
H29    H     0.28910   0.17580   0.24170   0.01267  Uiso   1.00
H30    H     0.07760   0.16640   0.24960   0.01267  Uiso   1.00
H31    H     0.98170   0.31350   0.10420   0.01267  Uiso   1.00
H32    H     0.18390   0.33690   0.09760   0.01267  Uiso   1.00
H33    H     0.63780   0.93530   0.07290   0.01267  Uiso   1.00
H34    H     0.40510   0.21950   0.96520   0.01267  Uiso   1.00
H35    H     0.86960   0.62600   0.06470   0.01267  Uiso   1.00
H36    H     0.94820   0.34220   0.96870   0.01267  Uiso   1.00
C1     C     0.48870   0.24710   0.50066   0.01267  Uiso   1.00
C2     C     0.49480   0.37900   0.50065   0.01267  Uiso   1.00
C3     C     0.47140   0.44570   0.54499   0.01267  Uiso   1.00
C4     C     0.52560   0.43250   0.45576   0.01267  Uiso   1.00
C5     C     0.67510   0.91530   0.57548   0.01267  Uiso   1.00
C6     C     0.36990   0.11600   0.68064   0.01267  Uiso   1.00
C7     C     0.38220   0.22500   0.70760   0.01267  Uiso   1.00
C8     C     0.36330   0.34100   0.68111   0.01267  Uiso   1.00
C9     C     0.38010   0.43930   0.70502   0.01267  Uiso   1.00
C10    C     0.42180   0.19940   0.75923   0.01267  Uiso   1.00
C11    C     0.43520   0.29860   0.78369   0.01267  Uiso   1.00
C12    C     0.21130   0.87750   0.62640   0.01267  Uiso   1.00
C13    C     0.07520   0.87850   0.61147   0.01267  Uiso   1.00
C14    C     0.00020   0.95740   0.56928   0.01267  Uiso   1.00
C15    C     0.87290   0.96580   0.55665   0.01267  Uiso   1.00
C16    C     0.81860   0.89500   0.58790   0.01267  Uiso   1.00
C17    C     0.89070   0.81530   0.63049   0.01267  Uiso   1.00
C18    C     0.02140   0.80550   0.64197   0.01267  Uiso   1.00
C19    C     0.42020   0.41240   0.75659   0.01267  Uiso   1.00
C20    C     0.44010   0.51870   0.78275   0.01267  Uiso   1.00
C21    C     0.12960   0.76620   0.81665   0.01267  Uiso   1.00
C22    C     0.99300   0.75900   0.82226   0.01267  Uiso   1.00
C23    C     0.61270   0.72350   0.83556   0.01267  Uiso   1.00
C24    C     0.74130   0.74050   0.83132   0.01267  Uiso   1.00
C25    C     0.77350   0.79350   0.78582   0.01267  Uiso   1.00
C26    C     0.90020   0.80060   0.78132   0.01267  Uiso   1.00
C27    C     0.95870   0.71130   0.86754   0.01267  Uiso   1.00
C28    C     0.83560   0.69940   0.87172   0.01267  Uiso   1.00
C29    C     0.43760   0.80800   0.95274   0.01267  Uiso   1.00
C30    C     0.46980   0.90780   0.97729   0.01267  Uiso   1.00
C31    C     0.41710   0.03820   0.95669   0.01267  Uiso   1.00
C32    C     0.55580   0.86890   0.02084   0.01267  Uiso   1.00
C33    C     0.23030   0.53950   0.95666   0.01267  Uiso   1.00
C34    C     0.11600   0.51350   0.97993   0.01267  Uiso   1.00
C35    C     0.07850   0.42440   0.96184   0.01267  Uiso   1.00
C36    C     0.03180   0.59360   0.01894   0.01267  Uiso   1.00
C37    C     0.51130   0.75290   0.49934   0.01267  Uiso   1.00
C38    C     0.50520   0.62100   0.49935   0.01267  Uiso   1.00
C39    C     0.52860   0.55430   0.45501   0.01267  Uiso   1.00
C40    C     0.47440   0.56750   0.54424   0.01267  Uiso   1.00
C41    C     0.32490   0.08470   0.42452   0.01267  Uiso   1.00
C42    C     0.63010   0.88400   0.31936   0.01267  Uiso   1.00
C43    C     0.61780   0.77500   0.29240   0.01267  Uiso   1.00
C44    C     0.63670   0.65900   0.31889   0.01267  Uiso   1.00
C45    C     0.61990   0.56070   0.29498   0.01267  Uiso   1.00
C46    C     0.57820   0.80060   0.24077   0.01267  Uiso   1.00
C47    C     0.56480   0.70140   0.21631   0.01267  Uiso   1.00
C48    C     0.78870   0.12250   0.37360   0.01267  Uiso   1.00
C49    C     0.92480   0.12150   0.38853   0.01267  Uiso   1.00
C50    C     0.99980   0.04260   0.43072   0.01267  Uiso   1.00
C51    C     0.12710   0.03420   0.44335   0.01267  Uiso   1.00
C52    C     0.18140   0.10500   0.41210   0.01267  Uiso   1.00
C53    C     0.10930   0.18470   0.36951   0.01267  Uiso   1.00
C54    C     0.97860   0.19450   0.35803   0.01267  Uiso   1.00
C55    C     0.57980   0.58760   0.24341   0.01267  Uiso   1.00
C56    C     0.55990   0.48130   0.21725   0.01267  Uiso   1.00
C57    C     0.87040   0.23380   0.18335   0.01267  Uiso   1.00
C58    C     0.00700   0.24100   0.17774   0.01267  Uiso   1.00
C59    C     0.38730   0.27650   0.16444   0.01267  Uiso   1.00
C60    C     0.25870   0.25950   0.16868   0.01267  Uiso   1.00
C61    C     0.22650   0.20650   0.21418   0.01267  Uiso   1.00
C62    C     0.09980   0.19940   0.21868   0.01267  Uiso   1.00
C63    C     0.04130   0.28870   0.13246   0.01267  Uiso   1.00
C64    C     0.16440   0.30060   0.12828   0.01267  Uiso   1.00
C65    C     0.56240   0.19200   0.04726   0.01267  Uiso   1.00
C66    C     0.53020   0.09220   0.02271   0.01267  Uiso   1.00
C67    C     0.58290   0.96180   0.04331   0.01267  Uiso   1.00
C68    C     0.44420   0.13110   0.97916   0.01267  Uiso   1.00
C69    C     0.76970   0.46050   0.04334   0.01267  Uiso   1.00
C70    C     0.88400   0.48650   0.02007   0.01267  Uiso   1.00
C71    C     0.92150   0.57560   0.03816   0.01267  Uiso   1.00
C72    C     0.96820   0.40640   0.98106   0.01267  Uiso   1.00
O1     O     0.42640   0.21840   0.53809   0.01267  Uiso   1.00
O2     O     0.54350   0.17950   0.46429   0.01267  Uiso   1.00
O3     O     0.63050   0.95110   0.52948   0.01267  Uiso   1.00
O4     O     0.59380   0.91160   0.61058   0.01267  Uiso   1.00
O5     O     0.24520   0.95350   0.60001   0.01267  Uiso   1.00
O6     O     0.33470   0.14420   0.63319   0.01267  Uiso   1.00
O7     O     0.15910   0.80310   0.77403   0.01267  Uiso   1.00
O8     O     0.39420   0.00910   0.70516   0.01267  Uiso   1.00
O9     O     0.27300   0.80570   0.66583   0.01267  Uiso   1.00
O10    O     0.43690   0.61730   0.75471   0.01267  Uiso   1.00
O11    O     0.51220   0.79410   0.80409   0.01267  Uiso   1.00
O12    O     0.60530   0.64470   0.87004   0.01267  Uiso   1.00
O13    O     0.20720   0.73400   0.85617   0.01267  Uiso   1.00
O14    O     0.35560   0.84600   0.91573   0.01267  Uiso   1.00
O15    O     0.49450   0.69020   0.97164   0.01267  Uiso   1.00
O16    O     0.25615   0.62820   0.97186   0.01267  Uiso   1.00
O17    O     0.30240   0.46820   0.92137   0.01267  Uiso   1.00
O18    O     0.46330   0.49770   0.83008   0.01267  Uiso   1.00
O19    O     0.57360   0.78160   0.46191   0.01267  Uiso   1.00
O20    O     0.45650   0.82050   0.53571   0.01267  Uiso   1.00
O21    O     0.36950   0.04890   0.47052   0.01267  Uiso   1.00
O22    O     0.40620   0.08840   0.38942   0.01267  Uiso   1.00
O23    O     0.75480   0.04650   0.39999   0.01267  Uiso   1.00
O24    O     0.66530   0.85580   0.36681   0.01267  Uiso   1.00
O25    O     0.84090   0.19690   0.22597   0.01267  Uiso   1.00
O26    O     0.60580   0.99090   0.29484   0.01267  Uiso   1.00
O27    O     0.72700   0.19430   0.33417   0.01267  Uiso   1.00
O28    O     0.56310   0.38270   0.24529   0.01267  Uiso   1.00
O29    O     0.48780   0.20590   0.19591   0.01267  Uiso   1.00
O30    O     0.39470   0.35530   0.12996   0.01267  Uiso   1.00
O31    O     0.79280   0.26600   0.14383   0.01267  Uiso   1.00
O32    O     0.64440   0.15400   0.08427   0.01267  Uiso   1.00
O33    O     0.50550   0.30980   0.02836   0.01267  Uiso   1.00
O34    O     0.74385   0.37180   0.02814   0.01267  Uiso   1.00
O35    O     0.69760   0.53180   0.07863   0.01267  Uiso   1.00
O36    O     0.53670   0.50230   0.16992   0.01267  Uiso   1.00
