data_UCEXAC_clean
_audit_creation_date              2014-07-02
_audit_creation_method            'Materials Studio'
_symmetry_space_group_name_H-M    'P1'
_symmetry_Int_Tables_number       1
_symmetry_cell_setting            triclinic
loop_
_symmetry_equiv_pos_as_xyz
  x,y,z
_cell_length_a                    10.7622
_cell_length_b                    11.3038
_cell_length_c                    26.2240
_cell_angle_alpha                 85.0860
_cell_angle_beta                  88.0920
_cell_angle_gamma                 62.2250
loop_
_atom_site_label
_atom_site_type_symbol
_atom_site_fract_x
_atom_site_fract_y
_atom_site_fract_z
_atom_site_U_iso_or_equiv
_atom_site_adp_type
_atom_site_occupancy
Tb1    Tb    0.41127   0.61743   0.39962   0.01267  Uiso   1.00
Tb2    Tb    0.34386   0.84636   0.24189   0.01267  Uiso   1.00
Tb3    Tb    0.37952   0.03628   0.06044   0.01267  Uiso   1.00
Tb4    Tb    0.58873   0.38257   0.60038   0.01267  Uiso   1.00
Tb5    Tb    0.65614   0.15364   0.75811   0.01267  Uiso   1.00
Tb6    Tb    0.62048   0.96372   0.93956   0.01267  Uiso   1.00
H1     H     0.54520   0.38790   0.92670   0.01267  Uiso   1.00
H2     H     0.44770   0.41100   0.07570   0.01267  Uiso   1.00
H3     H     0.43250   0.12130   0.27770   0.01267  Uiso   1.00
H4     H     0.46110   0.27700   0.31770   0.01267  Uiso   1.00
H5     H     0.33310   0.35810   0.14750   0.01267  Uiso   1.00
H6     H     0.36970   0.51520   0.18780   0.01267  Uiso   1.00
H7     H     0.03860   0.00350   0.04990   0.01267  Uiso   1.00
H8     H     0.82870   0.01430   0.02730   0.01267  Uiso   1.00
H9     H     0.07180   0.75330   0.17130   0.01267  Uiso   1.00
H10    H     0.85460   0.77220   0.15340   0.01267  Uiso   1.00
H11    H     0.81610   0.66750   0.40310   0.01267  Uiso   1.00
H12    H     0.01730   0.69110   0.39490   0.01267  Uiso   1.00
H13    H     0.70750   0.82810   0.25990   0.01267  Uiso   1.00
H14    H     0.91440   0.84230   0.25160   0.01267  Uiso   1.00
H15    H     0.59390   0.77980   0.53410   0.01267  Uiso   1.00
H16    H     0.36190   0.06520   0.42700   0.01267  Uiso   1.00
H17    H     0.06050   0.64780   0.53250   0.01267  Uiso   1.00
H18    H     0.13270   0.37400   0.43640   0.01267  Uiso   1.00
H19    H     0.45480   0.61210   0.07330   0.01267  Uiso   1.00
H20    H     0.55230   0.58900   0.92430   0.01267  Uiso   1.00
H21    H     0.56750   0.87870   0.72230   0.01267  Uiso   1.00
H22    H     0.53890   0.72300   0.68230   0.01267  Uiso   1.00
H23    H     0.66690   0.64190   0.85250   0.01267  Uiso   1.00
H24    H     0.63030   0.48480   0.81220   0.01267  Uiso   1.00
H25    H     0.96140   0.99650   0.95010   0.01267  Uiso   1.00
H26    H     0.17130   0.98570   0.97270   0.01267  Uiso   1.00
H27    H     0.92820   0.24670   0.82870   0.01267  Uiso   1.00
H28    H     0.14540   0.22780   0.84660   0.01267  Uiso   1.00
H29    H     0.18390   0.33250   0.59690   0.01267  Uiso   1.00
H30    H     0.98270   0.30890   0.60510   0.01267  Uiso   1.00
H31    H     0.29250   0.17190   0.74010   0.01267  Uiso   1.00
H32    H     0.08560   0.15770   0.74840   0.01267  Uiso   1.00
H33    H     0.40610   0.22020   0.46590   0.01267  Uiso   1.00
H34    H     0.63810   0.93480   0.57300   0.01267  Uiso   1.00
H35    H     0.93950   0.35220   0.46750   0.01267  Uiso   1.00
H36    H     0.86730   0.62600   0.56360   0.01267  Uiso   1.00
C1     C     0.48800   0.24700   0.00130   0.01267  Uiso   1.00
C2     C     0.49480   0.38050   0.00240   0.01267  Uiso   1.00
C3     C     0.52700   0.43380   0.95610   0.01267  Uiso   1.00
C4     C     0.46860   0.44660   0.04530   0.01267  Uiso   1.00
C5     C     0.37090   0.11790   0.18180   0.01267  Uiso   1.00
C6     C     0.38800   0.22250   0.20810   0.01267  Uiso   1.00
C7     C     0.42130   0.20000   0.25950   0.01267  Uiso   1.00
C8     C     0.43800   0.29320   0.28310   0.01267  Uiso   1.00
C9     C     0.36300   0.34100   0.18150   0.01267  Uiso   1.00
C10    C     0.38240   0.43610   0.20610   0.01267  Uiso   1.00
C11    C     0.42050   0.41420   0.25720   0.01267  Uiso   1.00
C12    C     0.44250   0.51790   0.28140   0.01267  Uiso   1.00
C13    C     0.20980   0.87720   0.12800   0.01267  Uiso   1.00
C14    C     0.07670   0.87720   0.11250   0.01267  Uiso   1.00
C15    C     0.00240   0.95540   0.07010   0.01267  Uiso   1.00
C16    C     0.87600   0.96400   0.05700   0.01267  Uiso   1.00
C17    C     0.02110   0.80770   0.14290   0.01267  Uiso   1.00
C18    C     0.89150   0.81770   0.13200   0.01267  Uiso   1.00
C19    C     0.81690   0.89550   0.08900   0.01267  Uiso   1.00
C20    C     0.67000   0.91840   0.07730   0.01267  Uiso   1.00
C21    C     0.61030   0.72430   0.33640   0.01267  Uiso   1.00
C22    C     0.74290   0.74160   0.33210   0.01267  Uiso   1.00
C23    C     0.83500   0.70200   0.37220   0.01267  Uiso   1.00
C24    C     0.95700   0.71500   0.36700   0.01267  Uiso   1.00
C25    C     0.77150   0.79680   0.28690   0.01267  Uiso   1.00
C26    C     0.89600   0.80540   0.28210   0.01267  Uiso   1.00
C27    C     0.99070   0.76040   0.32150   0.01267  Uiso   1.00
C28    C     0.12590   0.76640   0.31660   0.01267  Uiso   1.00
C29    C     0.43780   0.81070   0.45330   0.01267  Uiso   1.00
C30    C     0.47130   0.90980   0.47740   0.01267  Uiso   1.00
C31    C     0.55600   0.86840   0.52050   0.01267  Uiso   1.00
C32    C     0.41700   0.03880   0.45650   0.01267  Uiso   1.00
C33    C     0.23100   0.53520   0.45660   0.01267  Uiso   1.00
C34    C     0.11660   0.51430   0.48020   0.01267  Uiso   1.00
C35    C     0.03700   0.58750   0.51870   0.01267  Uiso   1.00
C36    C     0.08000   0.42660   0.46220   0.01267  Uiso   1.00
C37    C     0.51200   0.75300   0.99870   0.01267  Uiso   1.00
C38    C     0.50520   0.61950   0.99760   0.01267  Uiso   1.00
C39    C     0.47300   0.56620   0.04390   0.01267  Uiso   1.00
C40    C     0.53140   0.55340   0.95470   0.01267  Uiso   1.00
C41    C     0.62910   0.88210   0.81820   0.01267  Uiso   1.00
C42    C     0.61200   0.77750   0.79190   0.01267  Uiso   1.00
C43    C     0.57870   0.80000   0.74050   0.01267  Uiso   1.00
C44    C     0.56200   0.70680   0.71690   0.01267  Uiso   1.00
C45    C     0.63700   0.65900   0.81850   0.01267  Uiso   1.00
C46    C     0.61760   0.56390   0.79390   0.01267  Uiso   1.00
C47    C     0.57950   0.58580   0.74280   0.01267  Uiso   1.00
C48    C     0.55750   0.48210   0.71860   0.01267  Uiso   1.00
C49    C     0.79020   0.12280   0.87200   0.01267  Uiso   1.00
C50    C     0.92330   0.12280   0.88750   0.01267  Uiso   1.00
C51    C     0.99760   0.04460   0.92990   0.01267  Uiso   1.00
C52    C     0.12400   0.03600   0.94300   0.01267  Uiso   1.00
C53    C     0.97890   0.19230   0.85710   0.01267  Uiso   1.00
C54    C     0.10850   0.18230   0.86800   0.01267  Uiso   1.00
C55    C     0.18310   0.10450   0.91100   0.01267  Uiso   1.00
C56    C     0.33000   0.08160   0.92270   0.01267  Uiso   1.00
C57    C     0.38970   0.27570   0.66360   0.01267  Uiso   1.00
C58    C     0.25710   0.25840   0.66790   0.01267  Uiso   1.00
C59    C     0.16500   0.29800   0.62780   0.01267  Uiso   1.00
C60    C     0.04300   0.28500   0.63300   0.01267  Uiso   1.00
C61    C     0.22850   0.20320   0.71310   0.01267  Uiso   1.00
C62    C     0.10400   0.19460   0.71790   0.01267  Uiso   1.00
C63    C     0.00930   0.23960   0.67850   0.01267  Uiso   1.00
C64    C     0.87410   0.23360   0.68340   0.01267  Uiso   1.00
C65    C     0.56220   0.18930   0.54670   0.01267  Uiso   1.00
C66    C     0.52870   0.09020   0.52260   0.01267  Uiso   1.00
C67    C     0.44400   0.13160   0.47950   0.01267  Uiso   1.00
C68    C     0.58300   0.96120   0.54350   0.01267  Uiso   1.00
C69    C     0.76900   0.46480   0.54340   0.01267  Uiso   1.00
C70    C     0.88340   0.48570   0.51980   0.01267  Uiso   1.00
C71    C     0.96300   0.41250   0.48130   0.01267  Uiso   1.00
C72    C     0.92000   0.57340   0.53780   0.01267  Uiso   1.00
O1     O     0.42500   0.22010   0.03840   0.01267  Uiso   1.00
O2     O     0.54780   0.17670   0.96430   0.01267  Uiso   1.00
O3     O     0.33510   0.14370   0.13490   0.01267  Uiso   1.00
O4     O     0.39610   0.00940   0.20580   0.01267  Uiso   1.00
O5     O     0.43700   0.61350   0.25500   0.01267  Uiso   1.00
O6     O     0.46650   0.49690   0.32920   0.01267  Uiso   1.00
O7     O     0.24360   0.95210   0.10080   0.01267  Uiso   1.00
O8     O     0.27320   0.80630   0.16570   0.01267  Uiso   1.00
O9     O     0.62970   0.95080   0.03000   0.01267  Uiso   1.00
O10    O     0.59440   0.90990   0.11210   0.01267  Uiso   1.00
O11    O     0.51500   0.79100   0.30540   0.01267  Uiso   1.00
O12    O     0.61040   0.64140   0.37080   0.01267  Uiso   1.00
O13    O     0.15690   0.80330   0.27430   0.01267  Uiso   1.00
O14    O     0.20530   0.73570   0.35560   0.01267  Uiso   1.00
O15    O     0.35550   0.84770   0.41490   0.01267  Uiso   1.00
O16    O     0.49300   0.69040   0.47290   0.01267  Uiso   1.00
O17    O     0.25350   0.62730   0.47120   0.01267  Uiso   1.00
O18    O     0.30110   0.46890   0.42170   0.01267  Uiso   1.00
O19    O     0.57500   0.77990   0.96160   0.01267  Uiso   1.00
O20    O     0.45220   0.82330   0.03570   0.01267  Uiso   1.00
O21    O     0.66490   0.85630   0.86510   0.01267  Uiso   1.00
O22    O     0.60390   0.99060   0.79420   0.01267  Uiso   1.00
O23    O     0.56300   0.38650   0.74500   0.01267  Uiso   1.00
O24    O     0.53350   0.50310   0.67080   0.01267  Uiso   1.00
O25    O     0.75640   0.04790   0.89920   0.01267  Uiso   1.00
O26    O     0.72680   0.19370   0.83430   0.01267  Uiso   1.00
O27    O     0.37030   0.04920   0.97000   0.01267  Uiso   1.00
O28    O     0.40560   0.09010   0.88790   0.01267  Uiso   1.00
O29    O     0.48500   0.20900   0.69460   0.01267  Uiso   1.00
O30    O     0.38960   0.35860   0.62920   0.01267  Uiso   1.00
O31    O     0.84310   0.19670   0.72570   0.01267  Uiso   1.00
O32    O     0.79470   0.26430   0.64440   0.01267  Uiso   1.00
O33    O     0.64450   0.15230   0.58510   0.01267  Uiso   1.00
O34    O     0.50700   0.30960   0.52710   0.01267  Uiso   1.00
O35    O     0.74650   0.37270   0.52880   0.01267  Uiso   1.00
O36    O     0.69890   0.53110   0.57830   0.01267  Uiso   1.00
