data_UCOCUM_neutral_5b
_audit_creation_date              2014-07-02
_audit_creation_method            'Materials Studio'
_symmetry_space_group_name_H-M    'P1'
_symmetry_Int_Tables_number       1
_symmetry_cell_setting            triclinic
loop_
_symmetry_equiv_pos_as_xyz
  x,y,z
_cell_length_a                    18.6019
_cell_length_b                    18.6019
_cell_length_c                    18.6019
_cell_angle_alpha                 60.0000
_cell_angle_beta                  60.0000
_cell_angle_gamma                 60.0000
loop_
_atom_site_label
_atom_site_type_symbol
_atom_site_fract_x
_atom_site_fract_y
_atom_site_fract_z
_atom_site_U_iso_or_equiv
_atom_site_adp_type
_atom_site_occupancy
Cu1    Cu    0.07046   0.50000   0.92954   0.01267  Uiso   1.00
Cu2    Cu    0.50000   0.07046   0.50000   0.01267  Uiso   1.00
Cu3    Cu    0.92954   0.50000   0.07046   0.01267  Uiso   1.00
Cu4    Cu    0.50000   0.92954   0.50000   0.01267  Uiso   1.00
Cu5    Cu    0.07046   0.92954   0.50000   0.01267  Uiso   1.00
Cu6    Cu    0.50000   0.50000   0.92954   0.01267  Uiso   1.00
Cu7    Cu    0.92954   0.07046   0.50000   0.01267  Uiso   1.00
Cu8    Cu    0.50000   0.50000   0.07046   0.01267  Uiso   1.00
Cu9    Cu    0.07046   0.50000   0.50000   0.01267  Uiso   1.00
Cu10   Cu    0.50000   0.92954   0.07046   0.01267  Uiso   1.00
Cu11   Cu    0.92954   0.50000   0.50000   0.01267  Uiso   1.00
Cu12   Cu    0.50000   0.07046   0.92954   0.01267  Uiso   1.00
H1     H     0.77180   0.46500   0.99140   0.01267  Uiso   1.00
H2     H     0.46500   0.77180   0.77180   0.01267  Uiso   1.00
H3     H     0.99140   0.77180   0.77180   0.01267  Uiso   1.00
H4     H     0.77180   0.99140   0.46500   0.01267  Uiso   1.00
H5     H     0.77180   0.99140   0.77180   0.01267  Uiso   1.00
H6     H     0.46500   0.77180   0.99140   0.01267  Uiso   1.00
H7     H     0.99140   0.77180   0.46500   0.01267  Uiso   1.00
H8     H     0.77180   0.46500   0.77180   0.01267  Uiso   1.00
H9     H     0.77180   0.77180   0.46500   0.01267  Uiso   1.00
H10    H     0.46500   0.99140   0.77180   0.01267  Uiso   1.00
H11    H     0.99140   0.46500   0.77180   0.01267  Uiso   1.00
H12    H     0.77180   0.77180   0.99140   0.01267  Uiso   1.00
H13    H     0.53500   0.22820   0.00860   0.01267  Uiso   1.00
H14    H     0.22820   0.53500   0.22820   0.01267  Uiso   1.00
H15    H     0.22820   0.00860   0.22820   0.01267  Uiso   1.00
H16    H     0.00860   0.22820   0.53500   0.01267  Uiso   1.00
H17    H     0.00860   0.22820   0.22820   0.01267  Uiso   1.00
H18    H     0.22820   0.53500   0.00860   0.01267  Uiso   1.00
H19    H     0.22820   0.00860   0.53500   0.01267  Uiso   1.00
H20    H     0.53500   0.22820   0.22820   0.01267  Uiso   1.00
H21    H     0.22820   0.22820   0.53500   0.01267  Uiso   1.00
H22    H     0.00860   0.53500   0.22820   0.01267  Uiso   1.00
H23    H     0.53500   0.00860   0.22820   0.01267  Uiso   1.00
H24    H     0.22820   0.22820   0.00860   0.01267  Uiso   1.00
C1     C     0.80100   0.46600   0.93200   0.01267  Uiso   1.00
C2     C     0.46600   0.80100   0.80100   0.01267  Uiso   1.00
C3     C     0.93200   0.80100   0.80100   0.01267  Uiso   1.00
C4     C     0.80100   0.93200   0.46600   0.01267  Uiso   1.00
C5     C     0.80100   0.93200   0.80100   0.01267  Uiso   1.00
C6     C     0.46600   0.80100   0.93200   0.01267  Uiso   1.00
C7     C     0.93200   0.80100   0.46600   0.01267  Uiso   1.00
C8     C     0.80100   0.46600   0.80100   0.01267  Uiso   1.00
C9     C     0.80100   0.80100   0.46600   0.01267  Uiso   1.00
C10    C     0.46600   0.93200   0.80100   0.01267  Uiso   1.00
C11    C     0.93200   0.46600   0.80100   0.01267  Uiso   1.00
C12    C     0.80100   0.80100   0.93200   0.01267  Uiso   1.00
C13    C     0.53400   0.19900   0.06800   0.01267  Uiso   1.00
C14    C     0.19900   0.53400   0.19900   0.01267  Uiso   1.00
C15    C     0.19900   0.06800   0.19900   0.01267  Uiso   1.00
C16    C     0.06800   0.19900   0.53400   0.01267  Uiso   1.00
C17    C     0.06800   0.19900   0.19900   0.01267  Uiso   1.00
C18    C     0.19900   0.53400   0.06800   0.01267  Uiso   1.00
C19    C     0.19900   0.06800   0.53400   0.01267  Uiso   1.00
C20    C     0.53400   0.19900   0.19900   0.01267  Uiso   1.00
C21    C     0.19900   0.19900   0.53400   0.01267  Uiso   1.00
C22    C     0.06800   0.53400   0.19900   0.01267  Uiso   1.00
C23    C     0.53400   0.06800   0.19900   0.01267  Uiso   1.00
C24    C     0.19900   0.19900   0.06800   0.01267  Uiso   1.00
C25    C     0.88930   0.46670   0.88930   0.01267  Uiso   1.00
C26    C     0.93120   0.47560   0.93120   0.01267  Uiso   1.00
C27    C     0.46670   0.88930   0.75470   0.01267  Uiso   1.00
C28    C     0.47560   0.93120   0.66200   0.01267  Uiso   1.00
C29    C     0.88930   0.75470   0.88930   0.01267  Uiso   1.00
C30    C     0.93120   0.66200   0.93120   0.01267  Uiso   1.00
C31    C     0.75470   0.88930   0.46670   0.01267  Uiso   1.00
C32    C     0.66200   0.93120   0.47560   0.01267  Uiso   1.00
C33    C     0.88930   0.88930   0.75470   0.01267  Uiso   1.00
C34    C     0.93120   0.93120   0.66200   0.01267  Uiso   1.00
C35    C     0.46670   0.75470   0.88930   0.01267  Uiso   1.00
C36    C     0.47560   0.66200   0.93120   0.01267  Uiso   1.00
C37    C     0.88930   0.88930   0.46670   0.01267  Uiso   1.00
C38    C     0.93120   0.93120   0.47560   0.01267  Uiso   1.00
C39    C     0.75470   0.46670   0.88930   0.01267  Uiso   1.00
C40    C     0.66200   0.47560   0.93120   0.01267  Uiso   1.00
C41    C     0.88930   0.75470   0.46670   0.01267  Uiso   1.00
C42    C     0.93120   0.66200   0.47560   0.01267  Uiso   1.00
C43    C     0.46670   0.88930   0.88930   0.01267  Uiso   1.00
C44    C     0.47560   0.93120   0.93120   0.01267  Uiso   1.00
C45    C     0.88930   0.46670   0.75470   0.01267  Uiso   1.00
C46    C     0.93120   0.47560   0.66200   0.01267  Uiso   1.00
C47    C     0.75470   0.88930   0.88930   0.01267  Uiso   1.00
C48    C     0.66200   0.93120   0.93120   0.01267  Uiso   1.00
C49    C     0.53330   0.11070   0.11070   0.01267  Uiso   1.00
C50    C     0.52440   0.06880   0.06880   0.01267  Uiso   1.00
C51    C     0.11070   0.53330   0.24530   0.01267  Uiso   1.00
C52    C     0.06880   0.52440   0.33800   0.01267  Uiso   1.00
C53    C     0.24530   0.11070   0.11070   0.01267  Uiso   1.00
C54    C     0.33800   0.06880   0.06880   0.01267  Uiso   1.00
C55    C     0.11070   0.24530   0.53330   0.01267  Uiso   1.00
C56    C     0.06880   0.33800   0.52440   0.01267  Uiso   1.00
C57    C     0.11070   0.11070   0.24530   0.01267  Uiso   1.00
C58    C     0.06880   0.06880   0.33800   0.01267  Uiso   1.00
C59    C     0.24530   0.53330   0.11070   0.01267  Uiso   1.00
C60    C     0.33800   0.52440   0.06880   0.01267  Uiso   1.00
C61    C     0.11070   0.11070   0.53330   0.01267  Uiso   1.00
C62    C     0.06880   0.06880   0.52440   0.01267  Uiso   1.00
C63    C     0.53330   0.24530   0.11070   0.01267  Uiso   1.00
C64    C     0.52440   0.33800   0.06880   0.01267  Uiso   1.00
C65    C     0.24530   0.11070   0.53330   0.01267  Uiso   1.00
C66    C     0.33800   0.06880   0.52440   0.01267  Uiso   1.00
C67    C     0.11070   0.53330   0.11070   0.01267  Uiso   1.00
C68    C     0.06880   0.52440   0.06880   0.01267  Uiso   1.00
C69    C     0.53330   0.11070   0.24530   0.01267  Uiso   1.00
C70    C     0.52440   0.06880   0.33800   0.01267  Uiso   1.00
C71    C     0.11070   0.24530   0.11070   0.01267  Uiso   1.00
C72    C     0.06880   0.33800   0.06880   0.01267  Uiso   1.00
O1     O     0.00890   0.47870   0.88610   0.01267  Uiso   1.00
O2     O     0.47870   0.00890   0.62630   0.01267  Uiso   1.00
O3     O     0.88610   0.62630   0.00890   0.01267  Uiso   1.00
O4     O     0.62630   0.88610   0.47870   0.01267  Uiso   1.00
O5     O     0.00890   0.88610   0.62630   0.01267  Uiso   1.00
O6     O     0.47870   0.62630   0.88610   0.01267  Uiso   1.00
O7     O     0.88610   0.00890   0.47870   0.01267  Uiso   1.00
O8     O     0.62630   0.47870   0.00890   0.01267  Uiso   1.00
O9     O     0.00890   0.62630   0.47870   0.01267  Uiso   1.00
O10    O     0.47870   0.88610   0.00890   0.01267  Uiso   1.00
O11    O     0.88610   0.47870   0.62630   0.01267  Uiso   1.00
O12    O     0.62630   0.00890   0.88610   0.01267  Uiso   1.00
O13    O     0.52130   0.99110   0.11390   0.01267  Uiso   1.00
O14    O     0.99110   0.52130   0.37370   0.01267  Uiso   1.00
O15    O     0.37370   0.11390   0.99110   0.01267  Uiso   1.00
O16    O     0.11390   0.37370   0.52130   0.01267  Uiso   1.00
O17    O     0.11390   0.99110   0.37370   0.01267  Uiso   1.00
O18    O     0.37370   0.52130   0.11390   0.01267  Uiso   1.00
O19    O     0.99110   0.11390   0.52130   0.01267  Uiso   1.00
O20    O     0.52130   0.37370   0.99110   0.01267  Uiso   1.00
O21    O     0.37370   0.99110   0.52130   0.01267  Uiso   1.00
O22    O     0.11390   0.52130   0.99110   0.01267  Uiso   1.00
O23    O     0.52130   0.11390   0.37370   0.01267  Uiso   1.00
O24    O     0.99110   0.37370   0.11390   0.01267  Uiso   1.00
O25    O     0.99110   0.52130   0.11390   0.01267  Uiso   1.00
O26    O     0.52130   0.99110   0.37370   0.01267  Uiso   1.00
O27    O     0.11390   0.37370   0.99110   0.01267  Uiso   1.00
O28    O     0.37370   0.11390   0.52130   0.01267  Uiso   1.00
O29    O     0.99110   0.11390   0.37370   0.01267  Uiso   1.00
O30    O     0.52130   0.37370   0.11390   0.01267  Uiso   1.00
O31    O     0.11390   0.99110   0.52130   0.01267  Uiso   1.00
O32    O     0.37370   0.52130   0.99110   0.01267  Uiso   1.00
O33    O     0.99110   0.37370   0.52130   0.01267  Uiso   1.00
O34    O     0.52130   0.11390   0.99110   0.01267  Uiso   1.00
O35    O     0.11390   0.52130   0.37370   0.01267  Uiso   1.00
O36    O     0.37370   0.99110   0.11390   0.01267  Uiso   1.00
O37    O     0.47870   0.00890   0.88610   0.01267  Uiso   1.00
O38    O     0.00890   0.47870   0.62630   0.01267  Uiso   1.00
O39    O     0.62630   0.88610   0.00890   0.01267  Uiso   1.00
O40    O     0.88610   0.62630   0.47870   0.01267  Uiso   1.00
O41    O     0.88610   0.00890   0.62630   0.01267  Uiso   1.00
O42    O     0.62630   0.47870   0.88610   0.01267  Uiso   1.00
O43    O     0.00890   0.88610   0.47870   0.01267  Uiso   1.00
O44    O     0.47870   0.62630   0.00890   0.01267  Uiso   1.00
O45    O     0.62630   0.00890   0.47870   0.01267  Uiso   1.00
O46    O     0.88610   0.47870   0.00890   0.01267  Uiso   1.00
O47    O     0.47870   0.88610   0.62630   0.01267  Uiso   1.00
O48    O     0.00890   0.62630   0.88610   0.01267  Uiso   1.00
loop_
_geom_bond_atom_site_label_1
_geom_bond_atom_site_label_2
_geom_bond_distance
_geom_bond_site_symmetry_2
_ccdc_geom_bond_type
Cu1    O1      1.955   .     S
Cu1    O22     1.955   .     S
Cu1    O27     1.955   .     S
Cu1    O48     1.955   .     S
Cu1    Cu3     2.621   1_456 S
Cu2    O2      1.955   .     S
Cu2    O23     1.955   .     S
Cu2    O28     1.955   .     S
Cu2    O45     1.955   .     S
Cu2    Cu4     2.621   1_545 S
Cu3    O3      1.955   .     S
Cu3    O24     1.955   .     S
Cu3    O25     1.955   .     S
Cu3    O46     1.955   .     S
Cu3    Cu1     2.621   1_654 S
Cu4    O4      1.955   .     S
Cu4    O21     1.955   .     S
Cu4    O26     1.955   .     S
Cu4    O47     1.955   .     S
Cu4    Cu2     2.621   1_565 S
Cu5    O5      1.955   .     S
Cu5    O17     1.955   .     S
Cu5    O31     1.955   .     S
Cu5    O43     1.955   .     S
Cu5    Cu7     2.621   1_465 S
Cu6    O6      1.955   .     S
Cu6    O20     1.955   .     S
Cu6    O32     1.955   .     S
Cu6    O42     1.955   .     S
Cu6    Cu8     2.621   1_556 S
Cu7    O7      1.955   .     S
Cu7    O19     1.955   .     S
Cu7    O29     1.955   .     S
Cu7    O41     1.955   .     S
Cu7    Cu5     2.621   1_645 S
Cu8    O8      1.955   .     S
Cu8    O18     1.955   .     S
Cu8    O30     1.955   .     S
Cu8    O44     1.955   .     S
Cu8    Cu6     2.621   1_554 S
Cu9    O9      1.955   .     S
Cu9    O16     1.955   .     S
Cu9    O35     1.955   .     S
Cu9    O38     1.955   .     S
Cu9    Cu11    2.621   1_455 S
Cu10   O10     1.955   .     S
Cu10   O13     1.955   .     S
Cu10   O36     1.955   .     S
Cu10   O39     1.955   .     S
Cu10   Cu12    2.621   1_564 S
Cu11   O11     1.955   .     S
Cu11   O14     1.955   .     S
Cu11   O33     1.955   .     S
Cu11   O40     1.955   .     S
Cu11   Cu9     2.621   1_655 S
Cu12   O12     1.955   .     S
Cu12   O15     1.955   .     S
Cu12   O34     1.955   .     S
Cu12   O37     1.955   .     S
Cu12   Cu10    2.621   1_546 S
H1     C1      0.952   .     S
H2     C2      0.952   .     S
H3     C3      0.952   .     S
H4     C4      0.952   .     S
H5     C5      0.952   .     S
H6     C6      0.952   .     S
H7     C7      0.952   .     S
H8     C8      0.952   .     S
H9     C9      0.952   .     S
H10    C10     0.952   .     S
H11    C11     0.952   .     S
H12    C12     0.952   .     S
H13    C13     0.952   .     S
H14    C14     0.952   .     S
H15    C15     0.952   .     S
H16    C16     0.952   .     S
H17    C17     0.952   .     S
H18    C18     0.952   .     S
H19    C19     0.952   .     S
H20    C20     0.952   .     S
H21    C21     0.952   .     S
H22    C22     0.952   .     S
H23    C23     0.952   .     S
H24    C24     0.952   .     S
C1     C25     1.427   .     A
C1     C39     1.427   .     A
C2     C27     1.427   .     A
C2     C35     1.427   .     A
C3     C29     1.427   .     A
C3     C33     1.427   .     A
C4     C31     1.427   .     A
C4     C37     1.427   .     A
C5     C33     1.427   .     A
C5     C47     1.427   .     A
C6     C35     1.427   .     A
C6     C43     1.427   .     A
C7     C37     1.427   .     A
C7     C41     1.427   .     A
C8     C39     1.427   .     A
C8     C45     1.427   .     A
C9     C31     1.427   .     A
C9     C41     1.427   .     A
C10    C27     1.427   .     A
C10    C43     1.427   .     A
C11    C25     1.427   .     A
C11    C45     1.427   .     A
C12    C29     1.427   .     A
C12    C47     1.427   .     A
C13    C49     1.427   .     A
C13    C63     1.427   .     A
C14    C51     1.427   .     A
C14    C59     1.427   .     A
C15    C53     1.427   .     A
C15    C57     1.427   .     A
C16    C55     1.427   .     A
C16    C61     1.427   .     A
C17    C57     1.427   .     A
C17    C71     1.427   .     A
C18    C59     1.427   .     A
C18    C67     1.427   .     A
C19    C61     1.427   .     A
C19    C65     1.427   .     A
C20    C63     1.427   .     A
C20    C69     1.427   .     A
C21    C55     1.427   .     A
C21    C65     1.427   .     A
C22    C51     1.427   .     A
C22    C67     1.427   .     A
C23    C49     1.427   .     A
C23    C69     1.427   .     A
C24    C53     1.427   .     A
C24    C71     1.427   .     A
C25    C26     1.452   .     S
C26    O1      1.272   1_655 S
C26    O46     1.272   1_556 S
C27    C28     1.452   .     S
C28    O47     1.272   .     A
C28    O2      1.272   1_565 S
C29    C30     1.452   .     S
C30    O3      1.272   1_556 S
C30    O48     1.272   1_655 S
C31    C32     1.452   .     S
C32    O4      1.272   .     A
C32    O45     1.272   1_565 S
C33    C34     1.452   .     S
C34    O5      1.272   1_655 S
C34    O41     1.272   1_565 S
C35    C36     1.452   .     S
C36    O6      1.272   .     A
C36    O44     1.272   1_556 S
C37    C38     1.452   .     S
C38    O7      1.272   1_565 S
C38    O43     1.272   1_655 S
C39    C40     1.452   .     S
C40    O42     1.272   .     A
C40    O8      1.272   1_556 S
C41    C42     1.452   .     S
C42    O40     1.272   .     A
C42    O9      1.272   1_655 S
C43    C44     1.452   .     S
C44    O10     1.272   1_556 S
C44    O37     1.272   1_565 S
C45    C46     1.452   .     S
C46    O11     1.272   .     A
C46    O38     1.272   1_655 S
C47    C48     1.452   .     S
C48    O12     1.272   1_565 S
C48    O39     1.272   1_556 S
C49    C50     1.452   .     S
C50    O13     1.272   1_545 S
C50    O34     1.272   1_554 S
C51    C52     1.452   .     S
C52    O35     1.272   .     A
C52    O14     1.272   1_455 S
C53    C54     1.452   .     S
C54    O15     1.272   1_554 S
C54    O36     1.272   1_545 S
C55    C56     1.452   .     S
C56    O16     1.272   .     A
C56    O33     1.272   1_455 S
C57    C58     1.452   .     S
C58    O17     1.272   1_545 S
C58    O29     1.272   1_455 S
C59    C60     1.452   .     S
C60    O18     1.272   .     A
C60    O32     1.272   1_554 S
C61    C62     1.452   .     S
C62    O19     1.272   1_455 S
C62    O31     1.272   1_545 S
C63    C64     1.452   .     S
C64    O30     1.272   .     A
C64    O20     1.272   1_554 S
C65    C66     1.452   .     S
C66    O28     1.272   .     A
C66    O21     1.272   1_545 S
C67    C68     1.452   .     S
C68    O22     1.272   1_554 S
C68    O25     1.272   1_455 S
C69    C70     1.452   .     S
C70    O23     1.272   .     A
C70    O26     1.272   1_545 S
C71    C72     1.452   .     S
C72    O24     1.272   1_455 S
C72    O27     1.272   1_554 S
O1     C26     1.272   1_455 S
O2     C28     1.272   1_545 S
O3     C30     1.272   1_554 S
O5     C34     1.272   1_455 S
O7     C38     1.272   1_545 S
O8     C40     1.272   1_554 S
O9     C42     1.272   1_455 S
O10    C44     1.272   1_554 S
O12    C48     1.272   1_545 S
O13    C50     1.272   1_565 S
O14    C52     1.272   1_655 S
O15    C54     1.272   1_556 S
O17    C58     1.272   1_565 S
O19    C62     1.272   1_655 S
O20    C64     1.272   1_556 S
O21    C66     1.272   1_565 S
O22    C68     1.272   1_556 S
O24    C72     1.272   1_655 S
O25    C68     1.272   1_655 S
O26    C70     1.272   1_565 S
O27    C72     1.272   1_556 S
O29    C58     1.272   1_655 S
O31    C62     1.272   1_565 S
O32    C60     1.272   1_556 S
O33    C56     1.272   1_655 S
O34    C50     1.272   1_556 S
O36    C54     1.272   1_565 S
O37    C44     1.272   1_545 S
O38    C46     1.272   1_455 S
O39    C48     1.272   1_554 S
O41    C34     1.272   1_545 S
O43    C38     1.272   1_455 S
O44    C36     1.272   1_554 S
O45    C32     1.272   1_545 S
O46    C26     1.272   1_554 S
O48    C30     1.272   1_455 S
