data_image0
_cell_length_a       24.969
_cell_length_b       24.969
_cell_length_c       24.969
_cell_angle_alpha    90
_cell_angle_beta     90
_cell_angle_gamma    90

_symmetry_space_group_name_H-M    "P 1"
_symmetry_int_tables_number       1

loop_
  _symmetry_equiv_pos_as_xyz
  'x, y, z'

loop_
  _atom_site_label
  _atom_site_occupancy
  _atom_site_fract_x
  _atom_site_fract_y
  _atom_site_fract_z
  _atom_site_thermal_displace_type
  _atom_site_B_iso_or_equiv
  _atom_site_type_symbol
  N1       1.0000 0.47420  0.08020  0.24340  Biso   1.000  N
  O1       1.0000 0.57700  0.06540  0.34600  Biso   1.000  O
  O2       1.0000 0.51950  0.01040  0.30700  Biso   1.000  O
  C1       1.0000 0.51460  0.09850  0.27730  Biso   1.000  C
  C2       1.0000 0.53850  0.05470  0.31360  Biso   1.000  C
  N2       1.0000 0.97420  0.58020  0.74340  Biso   1.000  N
  O3       1.0000 0.07700  0.56540  0.84600  Biso   1.000  O
  O4       1.0000 0.01950  0.51040  0.80700  Biso   1.000  O
  C3       1.0000 0.01460  0.59850  0.77730  Biso   1.000  C
  C4       1.0000 0.03850  0.55470  0.81360  Biso   1.000  C
  N3       1.0000 0.02580  0.91980  0.74340  Biso   1.000  N
  O5       1.0000 0.92300  0.93460  0.84600  Biso   1.000  O
  O6       1.0000 0.98050  0.98960  0.80700  Biso   1.000  O
  C5       1.0000 0.98540  0.90150  0.77730  Biso   1.000  C
  C6       1.0000 0.96150  0.94530  0.81360  Biso   1.000  C
  N4       1.0000 0.52580  0.41980  0.24340  Biso   1.000  N
  O7       1.0000 0.42300  0.43460  0.34600  Biso   1.000  O
  O8       1.0000 0.48050  0.48960  0.30700  Biso   1.000  O
  C7       1.0000 0.48540  0.40150  0.27730  Biso   1.000  C
  C8       1.0000 0.46150  0.44530  0.31360  Biso   1.000  C
  N5       1.0000 0.52580  0.58020  0.25660  Biso   1.000  N
  O9       1.0000 0.42300  0.56540  0.15400  Biso   1.000  O
  O10      1.0000 0.48050  0.51040  0.19300  Biso   1.000  O
  C9       1.0000 0.48540  0.59850  0.22270  Biso   1.000  C
  C10      1.0000 0.46150  0.55470  0.18640  Biso   1.000  C
  N6       1.0000 0.02580  0.08020  0.75660  Biso   1.000  N
  O11      1.0000 0.92300  0.06540  0.65400  Biso   1.000  O
  O12      1.0000 0.98050  0.01040  0.69300  Biso   1.000  O
  C11      1.0000 0.98540  0.09850  0.72270  Biso   1.000  C
  C12      1.0000 0.96150  0.05470  0.68640  Biso   1.000  C
  N7       1.0000 0.97420  0.41980  0.75660  Biso   1.000  N
  O13      1.0000 0.07700  0.43460  0.65400  Biso   1.000  O
  O14      1.0000 0.01950  0.48960  0.69300  Biso   1.000  O
  C13      1.0000 0.01460  0.40150  0.72270  Biso   1.000  C
  C14      1.0000 0.03850  0.44530  0.68640  Biso   1.000  C
  N8       1.0000 0.47420  0.91980  0.25660  Biso   1.000  N
  O15      1.0000 0.57700  0.93460  0.15400  Biso   1.000  O
  O16      1.0000 0.51950  0.98960  0.19300  Biso   1.000  O
  C15      1.0000 0.51460  0.90150  0.22270  Biso   1.000  C
  C16      1.0000 0.53850  0.94530  0.18640  Biso   1.000  C
  N9       1.0000 0.24340  0.47420  0.08020  Biso   1.000  N
  O17      1.0000 0.34600  0.57700  0.06540  Biso   1.000  O
  O18      1.0000 0.30700  0.51950  0.01040  Biso   1.000  O
  C17      1.0000 0.27730  0.51460  0.09850  Biso   1.000  C
  C18      1.0000 0.31360  0.53850  0.05470  Biso   1.000  C
  N10      1.0000 0.74340  0.97420  0.58020  Biso   1.000  N
  O19      1.0000 0.84600  0.07700  0.56540  Biso   1.000  O
  O20      1.0000 0.80700  0.01950  0.51040  Biso   1.000  O
  C19      1.0000 0.77730  0.01460  0.59850  Biso   1.000  C
  C20      1.0000 0.81360  0.03850  0.55470  Biso   1.000  C
  N11      1.0000 0.74340  0.02580  0.91980  Biso   1.000  N
  O21      1.0000 0.84600  0.92300  0.93460  Biso   1.000  O
  O22      1.0000 0.80700  0.98050  0.98960  Biso   1.000  O
  C21      1.0000 0.77730  0.98540  0.90150  Biso   1.000  C
  C22      1.0000 0.81360  0.96150  0.94530  Biso   1.000  C
  N12      1.0000 0.24340  0.52580  0.41980  Biso   1.000  N
  O23      1.0000 0.34600  0.42300  0.43460  Biso   1.000  O
  O24      1.0000 0.30700  0.48050  0.48960  Biso   1.000  O
  C23      1.0000 0.27730  0.48540  0.40150  Biso   1.000  C
  C24      1.0000 0.31360  0.46150  0.44530  Biso   1.000  C
  N13      1.0000 0.25660  0.52580  0.58020  Biso   1.000  N
  O25      1.0000 0.15400  0.42300  0.56540  Biso   1.000  O
  O26      1.0000 0.19300  0.48050  0.51040  Biso   1.000  O
  C25      1.0000 0.22270  0.48540  0.59850  Biso   1.000  C
  C26      1.0000 0.18640  0.46150  0.55470  Biso   1.000  C
  N14      1.0000 0.75660  0.02580  0.08020  Biso   1.000  N
  O27      1.0000 0.65400  0.92300  0.06540  Biso   1.000  O
  O28      1.0000 0.69300  0.98050  0.01040  Biso   1.000  O
  C27      1.0000 0.72270  0.98540  0.09850  Biso   1.000  C
  C28      1.0000 0.68640  0.96150  0.05470  Biso   1.000  C
  N15      1.0000 0.75660  0.97420  0.41980  Biso   1.000  N
  O29      1.0000 0.65400  0.07700  0.43460  Biso   1.000  O
  O30      1.0000 0.69300  0.01950  0.48960  Biso   1.000  O
  C29      1.0000 0.72270  0.01460  0.40150  Biso   1.000  C
  C30      1.0000 0.68640  0.03850  0.44530  Biso   1.000  C
  N16      1.0000 0.25660  0.47420  0.91980  Biso   1.000  N
  O31      1.0000 0.15400  0.57700  0.93460  Biso   1.000  O
  O32      1.0000 0.19300  0.51950  0.98960  Biso   1.000  O
  C31      1.0000 0.22270  0.51460  0.90150  Biso   1.000  C
  C32      1.0000 0.18640  0.53850  0.94530  Biso   1.000  C
  N17      1.0000 0.08020  0.24340  0.47420  Biso   1.000  N
  O33      1.0000 0.06540  0.34600  0.57700  Biso   1.000  O
  O34      1.0000 0.01040  0.30700  0.51950  Biso   1.000  O
  C33      1.0000 0.09850  0.27730  0.51460  Biso   1.000  C
  C34      1.0000 0.05470  0.31360  0.53850  Biso   1.000  C
  N18      1.0000 0.58020  0.74340  0.97420  Biso   1.000  N
  O35      1.0000 0.56540  0.84600  0.07700  Biso   1.000  O
  O36      1.0000 0.51040  0.80700  0.01950  Biso   1.000  O
  C35      1.0000 0.59850  0.77730  0.01460  Biso   1.000  C
  C36      1.0000 0.55470  0.81360  0.03850  Biso   1.000  C
  N19      1.0000 0.91980  0.74340  0.02580  Biso   1.000  N
  O37      1.0000 0.93460  0.84600  0.92300  Biso   1.000  O
  O38      1.0000 0.98960  0.80700  0.98050  Biso   1.000  O
  C37      1.0000 0.90150  0.77730  0.98540  Biso   1.000  C
  C38      1.0000 0.94530  0.81360  0.96150  Biso   1.000  C
  N20      1.0000 0.41980  0.24340  0.52580  Biso   1.000  N
  O39      1.0000 0.43460  0.34600  0.42300  Biso   1.000  O
  O40      1.0000 0.48960  0.30700  0.48050  Biso   1.000  O
  C39      1.0000 0.40150  0.27730  0.48540  Biso   1.000  C
  C40      1.0000 0.44530  0.31360  0.46150  Biso   1.000  C
  N21      1.0000 0.58020  0.25660  0.52580  Biso   1.000  N
  O41      1.0000 0.56540  0.15400  0.42300  Biso   1.000  O
  O42      1.0000 0.51040  0.19300  0.48050  Biso   1.000  O
  C41      1.0000 0.59850  0.22270  0.48540  Biso   1.000  C
  C42      1.0000 0.55470  0.18640  0.46150  Biso   1.000  C
  N22      1.0000 0.08020  0.75660  0.02580  Biso   1.000  N
  O43      1.0000 0.06540  0.65400  0.92300  Biso   1.000  O
  O44      1.0000 0.01040  0.69300  0.98050  Biso   1.000  O
  C43      1.0000 0.09850  0.72270  0.98540  Biso   1.000  C
  C44      1.0000 0.05470  0.68640  0.96150  Biso   1.000  C
  N23      1.0000 0.41980  0.75660  0.97420  Biso   1.000  N
  O45      1.0000 0.43460  0.65400  0.07700  Biso   1.000  O
  O46      1.0000 0.48960  0.69300  0.01950  Biso   1.000  O
  C45      1.0000 0.40150  0.72270  0.01460  Biso   1.000  C
  C46      1.0000 0.44530  0.68640  0.03850  Biso   1.000  C
  N24      1.0000 0.91980  0.25660  0.47420  Biso   1.000  N
  O47      1.0000 0.93460  0.15400  0.57700  Biso   1.000  O
  O48      1.0000 0.98960  0.19300  0.51950  Biso   1.000  O
  C47      1.0000 0.90150  0.22270  0.51460  Biso   1.000  C
  C48      1.0000 0.94530  0.18640  0.53850  Biso   1.000  C
  N25      1.0000 0.83020  0.72420  0.00660  Biso   1.000  N
  O49      1.0000 0.81540  0.82700  0.90400  Biso   1.000  O
  O50      1.0000 0.76040  0.76950  0.94300  Biso   1.000  O
  C49      1.0000 0.84850  0.76460  0.97270  Biso   1.000  C
  C50      1.0000 0.80470  0.78850  0.93640  Biso   1.000  C
  N26      1.0000 0.33020  0.22420  0.50660  Biso   1.000  N
  O51      1.0000 0.31540  0.32700  0.40400  Biso   1.000  O
  O52      1.0000 0.26040  0.26950  0.44300  Biso   1.000  O
  C51      1.0000 0.34850  0.26460  0.47270  Biso   1.000  C
  C52      1.0000 0.30470  0.28850  0.43640  Biso   1.000  C
  N27      1.0000 0.66980  0.27580  0.50660  Biso   1.000  N
  O53      1.0000 0.68460  0.17300  0.40400  Biso   1.000  O
  O54      1.0000 0.73960  0.23050  0.44300  Biso   1.000  O
  C53      1.0000 0.65150  0.23540  0.47270  Biso   1.000  C
  C54      1.0000 0.69530  0.21150  0.43640  Biso   1.000  C
  N28      1.0000 0.16980  0.77580  0.00660  Biso   1.000  N
  O55      1.0000 0.18460  0.67300  0.90400  Biso   1.000  O
  O56      1.0000 0.23960  0.73050  0.94300  Biso   1.000  O
  C55      1.0000 0.15150  0.73540  0.97270  Biso   1.000  C
  C56      1.0000 0.19530  0.71150  0.93640  Biso   1.000  C
  N29      1.0000 0.33020  0.77580  0.99340  Biso   1.000  N
  O57      1.0000 0.31540  0.67300  0.09600  Biso   1.000  O
  O58      1.0000 0.26040  0.73050  0.05700  Biso   1.000  O
  C57      1.0000 0.34850  0.73540  0.02730  Biso   1.000  C
  C58      1.0000 0.30470  0.71150  0.06360  Biso   1.000  C
  N30      1.0000 0.83020  0.27580  0.49340  Biso   1.000  N
  O59      1.0000 0.81540  0.17300  0.59600  Biso   1.000  O
  O60      1.0000 0.76040  0.23050  0.55700  Biso   1.000  O
  C59      1.0000 0.84850  0.23540  0.52730  Biso   1.000  C
  C60      1.0000 0.80470  0.21150  0.56360  Biso   1.000  C
  N31      1.0000 0.16980  0.22420  0.49340  Biso   1.000  N
  O61      1.0000 0.18460  0.32700  0.59600  Biso   1.000  O
  O62      1.0000 0.23960  0.26950  0.55700  Biso   1.000  O
  C61      1.0000 0.15150  0.26460  0.52730  Biso   1.000  C
  C62      1.0000 0.19530  0.28850  0.56360  Biso   1.000  C
  N32      1.0000 0.66980  0.72420  0.99340  Biso   1.000  N
  O63      1.0000 0.68460  0.82700  0.09600  Biso   1.000  O
  O64      1.0000 0.73960  0.76950  0.05700  Biso   1.000  O
  C63      1.0000 0.65150  0.76460  0.02730  Biso   1.000  C
  C64      1.0000 0.69530  0.78850  0.06360  Biso   1.000  C
  N33      1.0000 0.22420  0.49340  0.16980  Biso   1.000  N
  O65      1.0000 0.32700  0.59600  0.18460  Biso   1.000  O
  O66      1.0000 0.26950  0.55700  0.23960  Biso   1.000  O
  C65      1.0000 0.26460  0.52730  0.15150  Biso   1.000  C
  C66      1.0000 0.28850  0.56360  0.19530  Biso   1.000  C
  N34      1.0000 0.72420  0.99340  0.66980  Biso   1.000  N
  O67      1.0000 0.82700  0.09600  0.68460  Biso   1.000  O
  O68      1.0000 0.76950  0.05700  0.73960  Biso   1.000  O
  C67      1.0000 0.76460  0.02730  0.65150  Biso   1.000  C
  C68      1.0000 0.78850  0.06360  0.69530  Biso   1.000  C
  N35      1.0000 0.77580  0.99340  0.33020  Biso   1.000  N
  O69      1.0000 0.67300  0.09600  0.31540  Biso   1.000  O
  O70      1.0000 0.73050  0.05700  0.26040  Biso   1.000  O
  C69      1.0000 0.73540  0.02730  0.34850  Biso   1.000  C
  C70      1.0000 0.71150  0.06360  0.30470  Biso   1.000  C
  N36      1.0000 0.27580  0.49340  0.83020  Biso   1.000  N
  O71      1.0000 0.17300  0.59600  0.81540  Biso   1.000  O
  O72      1.0000 0.23050  0.55700  0.76040  Biso   1.000  O
  C71      1.0000 0.23540  0.52730  0.84850  Biso   1.000  C
  C72      1.0000 0.21150  0.56360  0.80470  Biso   1.000  C
  N37      1.0000 0.27580  0.50660  0.66980  Biso   1.000  N
  O73      1.0000 0.17300  0.40400  0.68460  Biso   1.000  O
  O74      1.0000 0.23050  0.44300  0.73960  Biso   1.000  O
  C73      1.0000 0.23540  0.47270  0.65150  Biso   1.000  C
  C74      1.0000 0.21150  0.43640  0.69530  Biso   1.000  C
  N38      1.0000 0.77580  0.00660  0.16980  Biso   1.000  N
  O75      1.0000 0.67300  0.90400  0.18460  Biso   1.000  O
  O76      1.0000 0.73050  0.94300  0.23960  Biso   1.000  O
  C75      1.0000 0.73540  0.97270  0.15150  Biso   1.000  C
  C76      1.0000 0.71150  0.93640  0.19530  Biso   1.000  C
  N39      1.0000 0.72420  0.00660  0.83020  Biso   1.000  N
  O77      1.0000 0.82700  0.90400  0.81540  Biso   1.000  O
  O78      1.0000 0.76950  0.94300  0.76040  Biso   1.000  O
  C77      1.0000 0.76460  0.97270  0.84850  Biso   1.000  C
  C78      1.0000 0.78850  0.93640  0.80470  Biso   1.000  C
  N40      1.0000 0.22420  0.50660  0.33020  Biso   1.000  N
  O79      1.0000 0.32700  0.40400  0.31540  Biso   1.000  O
  O80      1.0000 0.26950  0.44300  0.26040  Biso   1.000  O
  C79      1.0000 0.26460  0.47270  0.34850  Biso   1.000  C
  C80      1.0000 0.28850  0.43640  0.30470  Biso   1.000  C
  N41      1.0000 0.99340  0.33020  0.77580  Biso   1.000  N
  O81      1.0000 0.09600  0.31540  0.67300  Biso   1.000  O
  O82      1.0000 0.05700  0.26040  0.73050  Biso   1.000  O
  C81      1.0000 0.02730  0.34850  0.73540  Biso   1.000  C
  C82      1.0000 0.06360  0.30470  0.71150  Biso   1.000  C
  N42      1.0000 0.49340  0.83020  0.27580  Biso   1.000  N
  O83      1.0000 0.59600  0.81540  0.17300  Biso   1.000  O
  O84      1.0000 0.55700  0.76040  0.23050  Biso   1.000  O
  C83      1.0000 0.52730  0.84850  0.23540  Biso   1.000  C
  C84      1.0000 0.56360  0.80470  0.21150  Biso   1.000  C
  N43      1.0000 0.49340  0.16980  0.22420  Biso   1.000  N
  O85      1.0000 0.59600  0.18460  0.32700  Biso   1.000  O
  O86      1.0000 0.55700  0.23960  0.26950  Biso   1.000  O
  C85      1.0000 0.52730  0.15150  0.26460  Biso   1.000  C
  C86      1.0000 0.56360  0.19530  0.28850  Biso   1.000  C
  N44      1.0000 0.99340  0.66980  0.72420  Biso   1.000  N
  O87      1.0000 0.09600  0.68460  0.82700  Biso   1.000  O
  O88      1.0000 0.05700  0.73960  0.76950  Biso   1.000  O
  C87      1.0000 0.02730  0.65150  0.76460  Biso   1.000  C
  C88      1.0000 0.06360  0.69530  0.78850  Biso   1.000  C
  N45      1.0000 0.00660  0.83020  0.72420  Biso   1.000  N
  O89      1.0000 0.90400  0.81540  0.82700  Biso   1.000  O
  O90      1.0000 0.94300  0.76040  0.76950  Biso   1.000  O
  C89      1.0000 0.97270  0.84850  0.76460  Biso   1.000  C
  C90      1.0000 0.93640  0.80470  0.78850  Biso   1.000  C
  N46      1.0000 0.50660  0.33020  0.22420  Biso   1.000  N
  O91      1.0000 0.40400  0.31540  0.32700  Biso   1.000  O
  O92      1.0000 0.44300  0.26040  0.26950  Biso   1.000  O
  C91      1.0000 0.47270  0.34850  0.26460  Biso   1.000  C
  C92      1.0000 0.43640  0.30470  0.28850  Biso   1.000  C
  N47      1.0000 0.50660  0.66980  0.27580  Biso   1.000  N
  O93      1.0000 0.40400  0.68460  0.17300  Biso   1.000  O
  O94      1.0000 0.44300  0.73960  0.23050  Biso   1.000  O
  C93      1.0000 0.47270  0.65150  0.23540  Biso   1.000  C
  C94      1.0000 0.43640  0.69530  0.21150  Biso   1.000  C
  N48      1.0000 0.00660  0.16980  0.77580  Biso   1.000  N
  O95      1.0000 0.90400  0.18460  0.67300  Biso   1.000  O
  O96      1.0000 0.94300  0.23960  0.73050  Biso   1.000  O
  C95      1.0000 0.97270  0.15150  0.73540  Biso   1.000  C
  C96      1.0000 0.93640  0.19530  0.71150  Biso   1.000  C
  In1      1.0000 0.44600  0.00000  0.25000  Biso   1.000  In
  In2      1.0000 0.05400  0.00000  0.75000  Biso   1.000  In
  In3      1.0000 0.55400  0.50000  0.25000  Biso   1.000  In
  In4      1.0000 0.94600  0.50000  0.75000  Biso   1.000  In
  In5      1.0000 0.25000  0.44600  0.00000  Biso   1.000  In
  In6      1.0000 0.75000  0.05400  0.00000  Biso   1.000  In
  In7      1.0000 0.25000  0.55400  0.50000  Biso   1.000  In
  In8      1.0000 0.75000  0.94600  0.50000  Biso   1.000  In
  In9      1.0000 0.00000  0.25000  0.44600  Biso   1.000  In
  In10     1.0000 0.00000  0.75000  0.05400  Biso   1.000  In
  In11     1.0000 0.50000  0.25000  0.55400  Biso   1.000  In
  In12     1.0000 0.50000  0.75000  0.94600  Biso   1.000  In
  In13     1.0000 0.75000  0.69600  0.00000  Biso   1.000  In
  In14     1.0000 0.75000  0.30400  0.50000  Biso   1.000  In
  In15     1.0000 0.25000  0.80400  0.00000  Biso   1.000  In
  In16     1.0000 0.25000  0.19600  0.50000  Biso   1.000  In
  In17     1.0000 0.19600  0.50000  0.25000  Biso   1.000  In
  In18     1.0000 0.80400  0.00000  0.25000  Biso   1.000  In
  In19     1.0000 0.30400  0.50000  0.75000  Biso   1.000  In
  In20     1.0000 0.69600  0.00000  0.75000  Biso   1.000  In
  In21     1.0000 0.00000  0.25000  0.80400  Biso   1.000  In
  In22     1.0000 0.50000  0.25000  0.19600  Biso   1.000  In
  In23     1.0000 0.00000  0.75000  0.69600  Biso   1.000  In
  In24     1.0000 0.50000  0.75000  0.30400  Biso   1.000  In
  C97      1.0000 0.46500  0.12500  0.21500  Biso   1.000  C
  H1       1.0000 0.43860  0.12500  0.18860  Biso   1.000  H
  C98      1.0000 0.96500  0.62500  0.71500  Biso   1.000  C
  H2       1.0000 0.93860  0.62500  0.68860  Biso   1.000  H
  C99      1.0000 0.03500  0.87500  0.71500  Biso   1.000  C
  H3       1.0000 0.06140  0.87500  0.68860  Biso   1.000  H
  C100     1.0000 0.53500  0.37500  0.21500  Biso   1.000  C
  H4       1.0000 0.56140  0.37500  0.18860  Biso   1.000  H
  C101     1.0000 0.53500  0.62500  0.28500  Biso   1.000  C
  H5       1.0000 0.56140  0.62500  0.31140  Biso   1.000  H
  C102     1.0000 0.03500  0.12500  0.78500  Biso   1.000  C
  H6       1.0000 0.06140  0.12500  0.81140  Biso   1.000  H
  C103     1.0000 0.96500  0.37500  0.78500  Biso   1.000  C
  H7       1.0000 0.93860  0.37500  0.81140  Biso   1.000  H
  C104     1.0000 0.46500  0.87500  0.28500  Biso   1.000  C
  H8       1.0000 0.43860  0.87500  0.31140  Biso   1.000  H
  C105     1.0000 0.21500  0.46500  0.12500  Biso   1.000  C
  H9       1.0000 0.18860  0.43860  0.12500  Biso   1.000  H
  C106     1.0000 0.71500  0.96500  0.62500  Biso   1.000  C
  H10      1.0000 0.68860  0.93860  0.62500  Biso   1.000  H
  C107     1.0000 0.71500  0.03500  0.87500  Biso   1.000  C
  H11      1.0000 0.68860  0.06140  0.87500  Biso   1.000  H
  C108     1.0000 0.21500  0.53500  0.37500  Biso   1.000  C
  H12      1.0000 0.18860  0.56140  0.37500  Biso   1.000  H
  C109     1.0000 0.28500  0.53500  0.62500  Biso   1.000  C
  H13      1.0000 0.31140  0.56140  0.62500  Biso   1.000  H
  C110     1.0000 0.78500  0.03500  0.12500  Biso   1.000  C
  H14      1.0000 0.81140  0.06140  0.12500  Biso   1.000  H
  C111     1.0000 0.78500  0.96500  0.37500  Biso   1.000  C
  H15      1.0000 0.81140  0.93860  0.37500  Biso   1.000  H
  C112     1.0000 0.28500  0.46500  0.87500  Biso   1.000  C
  H16      1.0000 0.31140  0.43860  0.87500  Biso   1.000  H
  C113     1.0000 0.12500  0.21500  0.46500  Biso   1.000  C
  H17      1.0000 0.12500  0.18860  0.43860  Biso   1.000  H
  C114     1.0000 0.62500  0.71500  0.96500  Biso   1.000  C
  H18      1.0000 0.62500  0.68860  0.93860  Biso   1.000  H
  C115     1.0000 0.87500  0.71500  0.03500  Biso   1.000  C
  H19      1.0000 0.87500  0.68860  0.06140  Biso   1.000  H
  C116     1.0000 0.37500  0.21500  0.53500  Biso   1.000  C
  H20      1.0000 0.37500  0.18860  0.56140  Biso   1.000  H
  C117     1.0000 0.62500  0.28500  0.53500  Biso   1.000  C
  H21      1.0000 0.62500  0.31140  0.56140  Biso   1.000  H
  C118     1.0000 0.12500  0.78500  0.03500  Biso   1.000  C
  H22      1.0000 0.12500  0.81140  0.06140  Biso   1.000  H
  C119     1.0000 0.37500  0.78500  0.96500  Biso   1.000  C
  H23      1.0000 0.37500  0.81140  0.93860  Biso   1.000  H
  C120     1.0000 0.87500  0.28500  0.46500  Biso   1.000  C
  H24      1.0000 0.87500  0.31140  0.43860  Biso   1.000  H
  In25     1.0000 0.62500  0.12500  0.37500  Biso   1.000  In
  In26     1.0000 0.12500  0.62500  0.87500  Biso   1.000  In
  In27     1.0000 0.87500  0.87500  0.87500  Biso   1.000  In
  In28     1.0000 0.37500  0.37500  0.37500  Biso   1.000  In
  In29     1.0000 0.37500  0.62500  0.12500  Biso   1.000  In
  In30     1.0000 0.87500  0.12500  0.62500  Biso   1.000  In
  In31     1.0000 0.12500  0.37500  0.62500  Biso   1.000  In
  In32     1.0000 0.62500  0.87500  0.12500  Biso   1.000  In
