data_image0
_cell_length_a       14.3026
_cell_length_b       12.0421
_cell_length_c       21.6987
_cell_angle_alpha    90
_cell_angle_beta     90
_cell_angle_gamma    90

_symmetry_space_group_name_H-M    "P 1"
_symmetry_int_tables_number       1

loop_
  _symmetry_equiv_pos_as_xyz
  'x, y, z'

loop_
  _atom_site_label
  _atom_site_occupancy
  _atom_site_fract_x
  _atom_site_fract_y
  _atom_site_fract_z
  _atom_site_thermal_displace_type
  _atom_site_B_iso_or_equiv
  _atom_site_type_symbol
  N1       1.0000 0.61309  0.94887  0.64161  Biso   1.000  N
  Cu1      1.0000 0.94980  0.01142  0.05231  Biso   1.000  Cu
  O1       1.0000 0.50612  0.62921  0.92049  Biso   1.000  O
  O2       1.0000 0.59061  0.64588  0.00715  Biso   1.000  O
  O3       1.0000 0.93102  0.91900  0.92176  Biso   1.000  O
  O4       1.0000 0.84907  0.93060  0.00997  Biso   1.000  O
  C1       1.0000 0.55677  0.96930  0.68892  Biso   1.000  C
  H1       1.0000 0.49970  0.00720  0.68100  Biso   1.000  H
  C2       1.0000 0.57664  0.93810  0.75002  Biso   1.000  C
  H2       1.0000 0.53360  0.95520  0.78200  Biso   1.000  H
  C3       1.0000 0.65813  0.88306  0.76336  Biso   1.000  C
  C4       1.0000 0.71863  0.85547  0.71405  Biso   1.000  C
  C5       1.0000 0.69367  0.89050  0.65340  Biso   1.000  C
  C6       1.0000 0.75302  0.86450  0.60332  Biso   1.000  C
  H3       1.0000 0.73850  0.89090  0.56320  Biso   1.000  H
  C7       1.0000 0.83130  0.80130  0.61245  Biso   1.000  C
  H4       1.0000 0.87050  0.78350  0.57850  Biso   1.000  H
  C8       1.0000 0.85405  0.76260  0.67150  Biso   1.000  C
  H5       1.0000 0.90740  0.71680  0.67700  Biso   1.000  H
  C9       1.0000 0.80014  0.79020  0.72134  Biso   1.000  C
  H6       1.0000 0.81760  0.76530  0.76120  Biso   1.000  H
  C10      1.0000 0.67917  0.85163  0.82842  Biso   1.000  C
  C11      1.0000 0.61721  0.78247  0.85979  Biso   1.000  C
  H7       1.0000 0.56370  0.75420  0.83910  Biso   1.000  H
  C12      1.0000 0.63296  0.75438  0.92126  Biso   1.000  C
  C13      1.0000 0.71067  0.79741  0.95186  Biso   1.000  C
  H8       1.0000 0.72050  0.78090  0.99420  Biso   1.000  H
  C14      1.0000 0.77353  0.86414  0.92053  Biso   1.000  C
  C15      1.0000 0.75885  0.89060  0.85857  Biso   1.000  C
  H9       1.0000 0.80300  0.93500  0.83700  Biso   1.000  H
  C16      1.0000 0.57050  0.67077  0.95263  Biso   1.000  C
  C17      1.0000 0.85832  0.90759  0.95366  Biso   1.000  C
  N2       1.0000 0.88691  0.05113  0.14161  Biso   1.000  N
  Cu2      1.0000 0.55020  0.98858  0.55231  Biso   1.000  Cu
  O5       1.0000 0.99388  0.37079  0.42049  Biso   1.000  O
  O6       1.0000 0.90939  0.35412  0.50715  Biso   1.000  O
  O7       1.0000 0.56898  0.08100  0.42176  Biso   1.000  O
  O8       1.0000 0.65093  0.06940  0.50997  Biso   1.000  O
  C18      1.0000 0.94323  0.03070  0.18892  Biso   1.000  C
  H10      1.0000 0.00030  0.99280  0.18100  Biso   1.000  H
  C19      1.0000 0.92336  0.06190  0.25002  Biso   1.000  C
  H11      1.0000 0.96640  0.04480  0.28200  Biso   1.000  H
  C20      1.0000 0.84187  0.11694  0.26336  Biso   1.000  C
  C21      1.0000 0.78137  0.14453  0.21405  Biso   1.000  C
  C22      1.0000 0.80633  0.10950  0.15340  Biso   1.000  C
  C23      1.0000 0.74698  0.13550  0.10332  Biso   1.000  C
  H12      1.0000 0.76150  0.10910  0.06320  Biso   1.000  H
  C24      1.0000 0.66870  0.19870  0.11245  Biso   1.000  C
  H13      1.0000 0.62950  0.21650  0.07850  Biso   1.000  H
  C25      1.0000 0.64595  0.23740  0.17150  Biso   1.000  C
  H14      1.0000 0.59260  0.28320  0.17700  Biso   1.000  H
  C26      1.0000 0.69986  0.20980  0.22134  Biso   1.000  C
  H15      1.0000 0.68240  0.23470  0.26120  Biso   1.000  H
  C27      1.0000 0.82083  0.14837  0.32842  Biso   1.000  C
  C28      1.0000 0.88279  0.21753  0.35979  Biso   1.000  C
  H16      1.0000 0.93630  0.24580  0.33910  Biso   1.000  H
  C29      1.0000 0.86704  0.24562  0.42126  Biso   1.000  C
  C30      1.0000 0.78933  0.20259  0.45186  Biso   1.000  C
  H17      1.0000 0.77950  0.21910  0.49420  Biso   1.000  H
  C31      1.0000 0.72647  0.13586  0.42053  Biso   1.000  C
  C32      1.0000 0.74115  0.10940  0.35857  Biso   1.000  C
  H18      1.0000 0.69700  0.06500  0.33700  Biso   1.000  H
  C33      1.0000 0.92950  0.32923  0.45263  Biso   1.000  C
  C34      1.0000 0.64168  0.09241  0.45366  Biso   1.000  C
  N3       1.0000 0.38691  0.44887  0.85839  Biso   1.000  N
  Cu3      1.0000 0.05020  0.51142  0.44769  Biso   1.000  Cu
  O9       1.0000 0.49388  0.12921  0.57951  Biso   1.000  O
  O10      1.0000 0.40939  0.14588  0.49285  Biso   1.000  O
  O11      1.0000 0.06898  0.41900  0.57824  Biso   1.000  O
  O12      1.0000 0.15093  0.43060  0.49003  Biso   1.000  O
  C35      1.0000 0.44323  0.46930  0.81108  Biso   1.000  C
  H19      1.0000 0.50030  0.50720  0.81900  Biso   1.000  H
  C36      1.0000 0.42336  0.43810  0.74998  Biso   1.000  C
  H20      1.0000 0.46640  0.45520  0.71800  Biso   1.000  H
  C37      1.0000 0.34187  0.38306  0.73664  Biso   1.000  C
  C38      1.0000 0.28137  0.35547  0.78595  Biso   1.000  C
  C39      1.0000 0.30633  0.39050  0.84660  Biso   1.000  C
  C40      1.0000 0.24698  0.36450  0.89668  Biso   1.000  C
  H21      1.0000 0.26150  0.39090  0.93680  Biso   1.000  H
  C41      1.0000 0.16870  0.30130  0.88755  Biso   1.000  C
  H22      1.0000 0.12950  0.28350  0.92150  Biso   1.000  H
  C42      1.0000 0.14595  0.26260  0.82850  Biso   1.000  C
  H23      1.0000 0.09260  0.21680  0.82300  Biso   1.000  H
  C43      1.0000 0.19986  0.29020  0.77866  Biso   1.000  C
  H24      1.0000 0.18240  0.26530  0.73880  Biso   1.000  H
  C44      1.0000 0.32083  0.35163  0.67158  Biso   1.000  C
  C45      1.0000 0.38279  0.28247  0.64021  Biso   1.000  C
  H25      1.0000 0.43630  0.25420  0.66090  Biso   1.000  H
  C46      1.0000 0.36704  0.25438  0.57874  Biso   1.000  C
  C47      1.0000 0.28933  0.29741  0.54814  Biso   1.000  C
  H26      1.0000 0.27950  0.28090  0.50580  Biso   1.000  H
  C48      1.0000 0.22647  0.36414  0.57947  Biso   1.000  C
  C49      1.0000 0.24115  0.39060  0.64143  Biso   1.000  C
  H27      1.0000 0.19700  0.43500  0.66300  Biso   1.000  H
  C50      1.0000 0.42950  0.17077  0.54737  Biso   1.000  C
  C51      1.0000 0.14168  0.40759  0.54634  Biso   1.000  C
  N4       1.0000 0.11309  0.55113  0.35839  Biso   1.000  N
  Cu4      1.0000 0.44980  0.48858  0.94769  Biso   1.000  Cu
  O13      1.0000 0.00612  0.87079  0.07951  Biso   1.000  O
  O14      1.0000 0.09061  0.85412  0.99285  Biso   1.000  O
  O15      1.0000 0.43102  0.58100  0.07824  Biso   1.000  O
  O16      1.0000 0.34907  0.56940  0.99003  Biso   1.000  O
  C52      1.0000 0.05677  0.53070  0.31108  Biso   1.000  C
  H28      1.0000 0.99970  0.49280  0.31900  Biso   1.000  H
  C53      1.0000 0.07664  0.56190  0.24998  Biso   1.000  C
  H29      1.0000 0.03360  0.54480  0.21800  Biso   1.000  H
  C54      1.0000 0.15813  0.61694  0.23664  Biso   1.000  C
  C55      1.0000 0.21863  0.64453  0.28595  Biso   1.000  C
  C56      1.0000 0.19367  0.60950  0.34660  Biso   1.000  C
  C57      1.0000 0.25302  0.63550  0.39668  Biso   1.000  C
  H30      1.0000 0.23850  0.60910  0.43680  Biso   1.000  H
  C58      1.0000 0.33130  0.69870  0.38755  Biso   1.000  C
  H31      1.0000 0.37050  0.71650  0.42150  Biso   1.000  H
  C59      1.0000 0.35405  0.73740  0.32850  Biso   1.000  C
  H32      1.0000 0.40740  0.78320  0.32300  Biso   1.000  H
  C60      1.0000 0.30014  0.70980  0.27866  Biso   1.000  C
  H33      1.0000 0.31760  0.73470  0.23880  Biso   1.000  H
  C61      1.0000 0.17917  0.64837  0.17158  Biso   1.000  C
  C62      1.0000 0.11721  0.71753  0.14021  Biso   1.000  C
  H34      1.0000 0.06370  0.74580  0.16090  Biso   1.000  H
  C63      1.0000 0.13296  0.74562  0.07874  Biso   1.000  C
  C64      1.0000 0.21067  0.70259  0.04814  Biso   1.000  C
  H35      1.0000 0.22050  0.71910  0.00580  Biso   1.000  H
  C65      1.0000 0.27353  0.63586  0.07947  Biso   1.000  C
  C66      1.0000 0.25885  0.60940  0.14143  Biso   1.000  C
  H36      1.0000 0.30300  0.56500  0.16300  Biso   1.000  H
  C67      1.0000 0.07050  0.82923  0.04737  Biso   1.000  C
  C68      1.0000 0.35832  0.59241  0.04634  Biso   1.000  C
  N5       1.0000 0.38691  0.05113  0.35839  Biso   1.000  N
  Cu5      1.0000 0.05020  0.98858  0.94769  Biso   1.000  Cu
  O17      1.0000 0.49388  0.37079  0.07951  Biso   1.000  O
  O18      1.0000 0.40939  0.35412  0.99285  Biso   1.000  O
  O19      1.0000 0.06898  0.08100  0.07824  Biso   1.000  O
  O20      1.0000 0.15093  0.06940  0.99003  Biso   1.000  O
  C69      1.0000 0.44323  0.03070  0.31108  Biso   1.000  C
  H37      1.0000 0.50030  0.99280  0.31900  Biso   1.000  H
  C70      1.0000 0.42336  0.06190  0.24998  Biso   1.000  C
  H38      1.0000 0.46640  0.04480  0.21800  Biso   1.000  H
  C71      1.0000 0.34187  0.11694  0.23664  Biso   1.000  C
  C72      1.0000 0.28137  0.14453  0.28595  Biso   1.000  C
  C73      1.0000 0.30633  0.10950  0.34660  Biso   1.000  C
  C74      1.0000 0.24698  0.13550  0.39668  Biso   1.000  C
  H39      1.0000 0.26150  0.10910  0.43680  Biso   1.000  H
  C75      1.0000 0.16870  0.19870  0.38755  Biso   1.000  C
  H40      1.0000 0.12950  0.21650  0.42150  Biso   1.000  H
  C76      1.0000 0.14595  0.23740  0.32850  Biso   1.000  C
  H41      1.0000 0.09260  0.28320  0.32300  Biso   1.000  H
  C77      1.0000 0.19986  0.20980  0.27866  Biso   1.000  C
  H42      1.0000 0.18240  0.23470  0.23880  Biso   1.000  H
  C78      1.0000 0.32083  0.14837  0.17158  Biso   1.000  C
  C79      1.0000 0.38279  0.21753  0.14021  Biso   1.000  C
  H43      1.0000 0.43630  0.24580  0.16090  Biso   1.000  H
  C80      1.0000 0.36704  0.24562  0.07874  Biso   1.000  C
  C81      1.0000 0.28933  0.20259  0.04814  Biso   1.000  C
  H44      1.0000 0.27950  0.21910  0.00580  Biso   1.000  H
  C82      1.0000 0.22647  0.13586  0.07947  Biso   1.000  C
  C83      1.0000 0.24115  0.10940  0.14143  Biso   1.000  C
  H45      1.0000 0.19700  0.06500  0.16300  Biso   1.000  H
  C84      1.0000 0.42950  0.32923  0.04737  Biso   1.000  C
  C85      1.0000 0.14168  0.09241  0.04634  Biso   1.000  C
  N6       1.0000 0.11309  0.94887  0.85839  Biso   1.000  N
  Cu6      1.0000 0.44980  0.01142  0.44769  Biso   1.000  Cu
  O21      1.0000 0.00612  0.62921  0.57951  Biso   1.000  O
  O22      1.0000 0.09061  0.64588  0.49285  Biso   1.000  O
  O23      1.0000 0.43102  0.91900  0.57824  Biso   1.000  O
  O24      1.0000 0.34907  0.93060  0.49003  Biso   1.000  O
  C86      1.0000 0.05677  0.96930  0.81108  Biso   1.000  C
  H46      1.0000 0.99970  0.00720  0.81900  Biso   1.000  H
  C87      1.0000 0.07664  0.93810  0.74998  Biso   1.000  C
  H47      1.0000 0.03360  0.95520  0.71800  Biso   1.000  H
  C88      1.0000 0.15813  0.88306  0.73664  Biso   1.000  C
  C89      1.0000 0.21863  0.85547  0.78595  Biso   1.000  C
  C90      1.0000 0.19367  0.89050  0.84660  Biso   1.000  C
  C91      1.0000 0.25302  0.86450  0.89668  Biso   1.000  C
  H48      1.0000 0.23850  0.89090  0.93680  Biso   1.000  H
  C92      1.0000 0.33130  0.80130  0.88755  Biso   1.000  C
  H49      1.0000 0.37050  0.78350  0.92150  Biso   1.000  H
  C93      1.0000 0.35405  0.76260  0.82850  Biso   1.000  C
  H50      1.0000 0.40740  0.71680  0.82300  Biso   1.000  H
  C94      1.0000 0.30014  0.79020  0.77866  Biso   1.000  C
  H51      1.0000 0.31760  0.76530  0.73880  Biso   1.000  H
  C95      1.0000 0.17917  0.85163  0.67158  Biso   1.000  C
  C96      1.0000 0.11721  0.78247  0.64021  Biso   1.000  C
  H52      1.0000 0.06370  0.75420  0.66090  Biso   1.000  H
  C97      1.0000 0.13296  0.75438  0.57874  Biso   1.000  C
  C98      1.0000 0.21067  0.79741  0.54814  Biso   1.000  C
  H53      1.0000 0.22050  0.78090  0.50580  Biso   1.000  H
  C99      1.0000 0.27353  0.86414  0.57947  Biso   1.000  C
  C100     1.0000 0.25885  0.89060  0.64143  Biso   1.000  C
  H54      1.0000 0.30300  0.93500  0.66300  Biso   1.000  H
  C101     1.0000 0.07050  0.67077  0.54737  Biso   1.000  C
  C102     1.0000 0.35832  0.90759  0.54634  Biso   1.000  C
  N7       1.0000 0.61309  0.55113  0.14161  Biso   1.000  N
  Cu7      1.0000 0.94980  0.48858  0.55231  Biso   1.000  Cu
  O25      1.0000 0.50612  0.87079  0.42049  Biso   1.000  O
  O26      1.0000 0.59061  0.85412  0.50715  Biso   1.000  O
  O27      1.0000 0.93102  0.58100  0.42176  Biso   1.000  O
  O28      1.0000 0.84907  0.56940  0.50997  Biso   1.000  O
  C103     1.0000 0.55677  0.53070  0.18892  Biso   1.000  C
  H55      1.0000 0.49970  0.49280  0.18100  Biso   1.000  H
  C104     1.0000 0.57664  0.56190  0.25002  Biso   1.000  C
  H56      1.0000 0.53360  0.54480  0.28200  Biso   1.000  H
  C105     1.0000 0.65813  0.61694  0.26336  Biso   1.000  C
  C106     1.0000 0.71863  0.64453  0.21405  Biso   1.000  C
  C107     1.0000 0.69367  0.60950  0.15340  Biso   1.000  C
  C108     1.0000 0.75302  0.63550  0.10332  Biso   1.000  C
  H57      1.0000 0.73850  0.60910  0.06320  Biso   1.000  H
  C109     1.0000 0.83130  0.69870  0.11245  Biso   1.000  C
  H58      1.0000 0.87050  0.71650  0.07850  Biso   1.000  H
  C110     1.0000 0.85405  0.73740  0.17150  Biso   1.000  C
  H59      1.0000 0.90740  0.78320  0.17700  Biso   1.000  H
  C111     1.0000 0.80014  0.70980  0.22134  Biso   1.000  C
  H60      1.0000 0.81760  0.73470  0.26120  Biso   1.000  H
  C112     1.0000 0.67917  0.64837  0.32842  Biso   1.000  C
  C113     1.0000 0.61721  0.71753  0.35979  Biso   1.000  C
  H61      1.0000 0.56370  0.74580  0.33910  Biso   1.000  H
  C114     1.0000 0.63296  0.74562  0.42126  Biso   1.000  C
  C115     1.0000 0.71067  0.70259  0.45186  Biso   1.000  C
  H62      1.0000 0.72050  0.71910  0.49420  Biso   1.000  H
  C116     1.0000 0.77353  0.63586  0.42053  Biso   1.000  C
  C117     1.0000 0.75885  0.60940  0.35857  Biso   1.000  C
  H63      1.0000 0.80300  0.56500  0.33700  Biso   1.000  H
  C118     1.0000 0.57050  0.82923  0.45263  Biso   1.000  C
  C119     1.0000 0.85832  0.59241  0.45366  Biso   1.000  C
  N8       1.0000 0.88691  0.44887  0.64161  Biso   1.000  N
  Cu8      1.0000 0.55020  0.51142  0.05231  Biso   1.000  Cu
  O29      1.0000 0.99388  0.12921  0.92049  Biso   1.000  O
  O30      1.0000 0.90939  0.14588  0.00715  Biso   1.000  O
  O31      1.0000 0.56898  0.41900  0.92176  Biso   1.000  O
  O32      1.0000 0.65093  0.43060  0.00997  Biso   1.000  O
  C120     1.0000 0.94323  0.46930  0.68892  Biso   1.000  C
  H64      1.0000 0.00030  0.50720  0.68100  Biso   1.000  H
  C121     1.0000 0.92336  0.43810  0.75002  Biso   1.000  C
  H65      1.0000 0.96640  0.45520  0.78200  Biso   1.000  H
  C122     1.0000 0.84187  0.38306  0.76336  Biso   1.000  C
  C123     1.0000 0.78137  0.35547  0.71405  Biso   1.000  C
  C124     1.0000 0.80633  0.39050  0.65340  Biso   1.000  C
  C125     1.0000 0.74698  0.36450  0.60332  Biso   1.000  C
  H66      1.0000 0.76150  0.39090  0.56320  Biso   1.000  H
  C126     1.0000 0.66870  0.30130  0.61245  Biso   1.000  C
  H67      1.0000 0.62950  0.28350  0.57850  Biso   1.000  H
  C127     1.0000 0.64595  0.26260  0.67150  Biso   1.000  C
  H68      1.0000 0.59260  0.21680  0.67700  Biso   1.000  H
  C128     1.0000 0.69986  0.29020  0.72134  Biso   1.000  C
  H69      1.0000 0.68240  0.26530  0.76120  Biso   1.000  H
  C129     1.0000 0.82083  0.35163  0.82842  Biso   1.000  C
  C130     1.0000 0.88279  0.28247  0.85979  Biso   1.000  C
  H70      1.0000 0.93630  0.25420  0.83910  Biso   1.000  H
  C131     1.0000 0.86704  0.25438  0.92126  Biso   1.000  C
  C132     1.0000 0.78933  0.29741  0.95186  Biso   1.000  C
  H71      1.0000 0.77950  0.28090  0.99420  Biso   1.000  H
  C133     1.0000 0.72647  0.36414  0.92053  Biso   1.000  C
  C134     1.0000 0.74115  0.39060  0.85857  Biso   1.000  C
  H72      1.0000 0.69700  0.43500  0.83700  Biso   1.000  H
  C135     1.0000 0.92950  0.17077  0.95263  Biso   1.000  C
  C136     1.0000 0.64168  0.40759  0.95366  Biso   1.000  C
