data_UDICAN_clean
_audit_creation_date              2014-07-02
_audit_creation_method            'Materials Studio'
_symmetry_space_group_name_H-M    'P1'
_symmetry_Int_Tables_number       1
_symmetry_cell_setting            triclinic
loop_
_symmetry_equiv_pos_as_xyz
  x,y,z
_cell_length_a                    10.6280
_cell_length_b                    12.1270
_cell_length_c                    25.0550
_cell_angle_alpha                 90.0000
_cell_angle_beta                  90.0000
_cell_angle_gamma                 90.2300
loop_
_atom_site_label
_atom_site_type_symbol
_atom_site_fract_x
_atom_site_fract_y
_atom_site_fract_z
_atom_site_U_iso_or_equiv
_atom_site_adp_type
_atom_site_occupancy
Bi1    Bi    0.86000   0.07803   0.00566   0.01267  Uiso   1.00
Bi2    Bi    0.14937   0.26576   0.98564   0.01267  Uiso   1.00
Bi3    Bi    0.86022   0.41591   0.01384   0.01267  Uiso   1.00
Bi4    Bi    0.01431   0.09681   0.87130   0.01267  Uiso   1.00
Bi5    Bi    0.97782   0.26776   0.12722   0.01267  Uiso   1.00
Bi6    Bi    0.02419   0.40790   0.86693   0.01267  Uiso   1.00
Bi7    Bi    0.64000   0.92197   0.50566   0.01267  Uiso   1.00
Bi8    Bi    0.35063   0.73424   0.48564   0.01267  Uiso   1.00
Bi9    Bi    0.63978   0.58409   0.51384   0.01267  Uiso   1.00
Bi10   Bi    0.48569   0.90319   0.37130   0.01267  Uiso   1.00
Bi11   Bi    0.52218   0.73224   0.62722   0.01267  Uiso   1.00
Bi12   Bi    0.47581   0.59210   0.36693   0.01267  Uiso   1.00
Bi13   Bi    0.14000   0.92197   0.99434   0.01267  Uiso   1.00
Bi14   Bi    0.85063   0.73424   0.01436   0.01267  Uiso   1.00
Bi15   Bi    0.13978   0.58409   0.98616   0.01267  Uiso   1.00
Bi16   Bi    0.98569   0.90319   0.12870   0.01267  Uiso   1.00
Bi17   Bi    0.02218   0.73224   0.87278   0.01267  Uiso   1.00
Bi18   Bi    0.97581   0.59210   0.13307   0.01267  Uiso   1.00
Bi19   Bi    0.36000   0.07803   0.49434   0.01267  Uiso   1.00
Bi20   Bi    0.64937   0.26576   0.51436   0.01267  Uiso   1.00
Bi21   Bi    0.36022   0.41591   0.48616   0.01267  Uiso   1.00
Bi22   Bi    0.51431   0.09681   0.62870   0.01267  Uiso   1.00
Bi23   Bi    0.47782   0.26776   0.37278   0.01267  Uiso   1.00
Bi24   Bi    0.52419   0.40790   0.63307   0.01267  Uiso   1.00
H1     H     0.28770   0.34930   0.19590   0.01267  Uiso   1.00
H2     H     0.62720   0.48010   0.21740   0.01267  Uiso   1.00
H3     H     0.47890   0.48330   0.07020   0.01267  Uiso   1.00
H4     H     0.52980   0.14390   0.93190   0.01267  Uiso   1.00
H5     H     0.67130   0.31240   0.80510   0.01267  Uiso   1.00
H6     H     0.33670   0.16370   0.79390   0.01267  Uiso   1.00
H7     H     0.21230   0.65070   0.69590   0.01267  Uiso   1.00
H8     H     0.87280   0.51990   0.71740   0.01267  Uiso   1.00
H9     H     0.02110   0.51670   0.57020   0.01267  Uiso   1.00
H10    H     0.97020   0.85610   0.43190   0.01267  Uiso   1.00
H11    H     0.82870   0.68760   0.30510   0.01267  Uiso   1.00
H12    H     0.16330   0.83630   0.29390   0.01267  Uiso   1.00
H13    H     0.71230   0.65070   0.80410   0.01267  Uiso   1.00
H14    H     0.37280   0.51990   0.78260   0.01267  Uiso   1.00
H15    H     0.52110   0.51670   0.92980   0.01267  Uiso   1.00
H16    H     0.47020   0.85610   0.06810   0.01267  Uiso   1.00
H17    H     0.32870   0.68760   0.19490   0.01267  Uiso   1.00
H18    H     0.66330   0.83630   0.20610   0.01267  Uiso   1.00
H19    H     0.78770   0.34930   0.30410   0.01267  Uiso   1.00
H20    H     0.12720   0.48010   0.28260   0.01267  Uiso   1.00
H21    H     0.97890   0.48330   0.42980   0.01267  Uiso   1.00
H22    H     0.02980   0.14390   0.56810   0.01267  Uiso   1.00
H23    H     0.17130   0.31240   0.69490   0.01267  Uiso   1.00
H24    H     0.83670   0.16370   0.70610   0.01267  Uiso   1.00
C1     C     0.26400   0.37930   0.08950   0.01267  Uiso   1.00
C2     C     0.36600   0.41500   0.12790   0.01267  Uiso   1.00
C3     C     0.35800   0.38480   0.18230   0.01267  Uiso   1.00
C4     C     0.45940   0.40960   0.21410   0.01267  Uiso   1.00
C5     C     0.56200   0.46190   0.19440   0.01267  Uiso   1.00
C6     C     0.47400   0.46600   0.10630   0.01267  Uiso   1.00
C7     C     0.57300   0.48930   0.14070   0.01267  Uiso   1.00
C8     C     0.45400   0.37210   0.27140   0.01267  Uiso   1.00
C9     C     0.69000   0.53770   0.11830   0.01267  Uiso   1.00
C10    C     0.62500   0.22480   0.87140   0.01267  Uiso   1.00
C11    C     0.52400   0.16690   0.89660   0.01267  Uiso   1.00
C12    C     0.74700   0.24450   0.90170   0.01267  Uiso   1.00
C13    C     0.61000   0.26680   0.81970   0.01267  Uiso   1.00
C14    C     0.50690   0.24180   0.79140   0.01267  Uiso   1.00
C15    C     0.41500   0.14610   0.86570   0.01267  Uiso   1.00
C16    C     0.40800   0.18060   0.81410   0.01267  Uiso   1.00
C17    C     0.49200   0.27820   0.73410   0.01267  Uiso   1.00
C18    C     0.30790   0.09050   0.89260   0.01267  Uiso   1.00
C19    C     0.23600   0.62070   0.58950   0.01267  Uiso   1.00
C20    C     0.13400   0.58500   0.62790   0.01267  Uiso   1.00
C21    C     0.14200   0.61520   0.68230   0.01267  Uiso   1.00
C22    C     0.04060   0.59040   0.71410   0.01267  Uiso   1.00
C23    C     0.93800   0.53810   0.69440   0.01267  Uiso   1.00
C24    C     0.02600   0.53400   0.60630   0.01267  Uiso   1.00
C25    C     0.92700   0.51070   0.64070   0.01267  Uiso   1.00
C26    C     0.04600   0.62790   0.77140   0.01267  Uiso   1.00
C27    C     0.81000   0.46230   0.61830   0.01267  Uiso   1.00
C28    C     0.87500   0.77520   0.37140   0.01267  Uiso   1.00
C29    C     0.97600   0.83310   0.39660   0.01267  Uiso   1.00
C30    C     0.75300   0.75550   0.40170   0.01267  Uiso   1.00
C31    C     0.89000   0.73320   0.31970   0.01267  Uiso   1.00
C32    C     0.99310   0.75820   0.29140   0.01267  Uiso   1.00
C33    C     0.08500   0.85390   0.36570   0.01267  Uiso   1.00
C34    C     0.09200   0.81940   0.31410   0.01267  Uiso   1.00
C35    C     0.00800   0.72180   0.23410   0.01267  Uiso   1.00
C36    C     0.19210   0.90950   0.39260   0.01267  Uiso   1.00
C37    C     0.73600   0.62070   0.91050   0.01267  Uiso   1.00
C38    C     0.63400   0.58500   0.87210   0.01267  Uiso   1.00
C39    C     0.64200   0.61520   0.81770   0.01267  Uiso   1.00
C40    C     0.54060   0.59040   0.78590   0.01267  Uiso   1.00
C41    C     0.43800   0.53810   0.80560   0.01267  Uiso   1.00
C42    C     0.52600   0.53400   0.89370   0.01267  Uiso   1.00
C43    C     0.42700   0.51070   0.85930   0.01267  Uiso   1.00
C44    C     0.54600   0.62790   0.72860   0.01267  Uiso   1.00
C45    C     0.31000   0.46230   0.88170   0.01267  Uiso   1.00
C46    C     0.37500   0.77520   0.12860   0.01267  Uiso   1.00
C47    C     0.47600   0.83310   0.10340   0.01267  Uiso   1.00
C48    C     0.25300   0.75550   0.09830   0.01267  Uiso   1.00
C49    C     0.39000   0.73320   0.18030   0.01267  Uiso   1.00
C50    C     0.49310   0.75820   0.20860   0.01267  Uiso   1.00
C51    C     0.58500   0.85390   0.13430   0.01267  Uiso   1.00
C52    C     0.59200   0.81940   0.18590   0.01267  Uiso   1.00
C53    C     0.50800   0.72180   0.26590   0.01267  Uiso   1.00
C54    C     0.69210   0.90950   0.10740   0.01267  Uiso   1.00
C55    C     0.76400   0.37930   0.41050   0.01267  Uiso   1.00
C56    C     0.86600   0.41500   0.37210   0.01267  Uiso   1.00
C57    C     0.85800   0.38480   0.31770   0.01267  Uiso   1.00
C58    C     0.95940   0.40960   0.28590   0.01267  Uiso   1.00
C59    C     0.06200   0.46190   0.30560   0.01267  Uiso   1.00
C60    C     0.97400   0.46600   0.39370   0.01267  Uiso   1.00
C61    C     0.07300   0.48930   0.35930   0.01267  Uiso   1.00
C62    C     0.95400   0.37210   0.22860   0.01267  Uiso   1.00
C63    C     0.19000   0.53770   0.38170   0.01267  Uiso   1.00
C64    C     0.12500   0.22480   0.62860   0.01267  Uiso   1.00
C65    C     0.02400   0.16690   0.60340   0.01267  Uiso   1.00
C66    C     0.24700   0.24450   0.59830   0.01267  Uiso   1.00
C67    C     0.11000   0.26680   0.68030   0.01267  Uiso   1.00
C68    C     0.00690   0.24180   0.70860   0.01267  Uiso   1.00
C69    C     0.91500   0.14610   0.63430   0.01267  Uiso   1.00
C70    C     0.90800   0.18060   0.68590   0.01267  Uiso   1.00
C71    C     0.99200   0.27820   0.76590   0.01267  Uiso   1.00
C72    C     0.80790   0.09050   0.60740   0.01267  Uiso   1.00
O1     O     0.05060   0.41790   0.97360   0.01267  Uiso   1.00
O2     O     0.97400   0.22950   0.02550   0.01267  Uiso   1.00
O3     O     0.08370   0.25140   0.90170   0.01267  Uiso   1.00
O4     O     0.21790   0.05800   0.86130   0.01267  Uiso   1.00
O5     O     0.02360   0.04960   0.95450   0.01267  Uiso   1.00
O6     O     0.18840   0.30250   0.10470   0.01267  Uiso   1.00
O7     O     0.26100   0.41690   0.04290   0.01267  Uiso   1.00
O8     O     0.54240   0.40410   0.30390   0.01267  Uiso   1.00
O9     O     0.36700   0.30860   0.28790   0.01267  Uiso   1.00
O10    O     0.70400   0.55340   0.06820   0.01267  Uiso   1.00
O11    O     0.77690   0.56040   0.15280   0.01267  Uiso   1.00
O12    O     0.80450   0.15840   0.91650   0.01267  Uiso   1.00
O13    O     0.78760   0.34080   0.90640   0.01267  Uiso   1.00
O14    O     0.41900   0.23610   0.70300   0.01267  Uiso   1.00
O15    O     0.57100   0.35230   0.71860   0.01267  Uiso   1.00
O16    O     0.30400   0.07350   0.94080   0.01267  Uiso   1.00
O17    O     0.93200   0.41540   0.09290   0.01267  Uiso   1.00
O18    O     0.44940   0.58210   0.47360   0.01267  Uiso   1.00
O19    O     0.52600   0.77050   0.52550   0.01267  Uiso   1.00
O20    O     0.41630   0.74860   0.40170   0.01267  Uiso   1.00
O21    O     0.28210   0.94200   0.36130   0.01267  Uiso   1.00
O22    O     0.47640   0.95040   0.45450   0.01267  Uiso   1.00
O23    O     0.31160   0.69750   0.60470   0.01267  Uiso   1.00
O24    O     0.23900   0.58310   0.54290   0.01267  Uiso   1.00
O25    O     0.95760   0.59590   0.80390   0.01267  Uiso   1.00
O26    O     0.13300   0.69140   0.78790   0.01267  Uiso   1.00
O27    O     0.79600   0.44660   0.56820   0.01267  Uiso   1.00
O28    O     0.72310   0.43960   0.65280   0.01267  Uiso   1.00
O29    O     0.69550   0.84160   0.41650   0.01267  Uiso   1.00
O30    O     0.71240   0.65920   0.40640   0.01267  Uiso   1.00
O31    O     0.08100   0.76390   0.20300   0.01267  Uiso   1.00
O32    O     0.92900   0.64770   0.21860   0.01267  Uiso   1.00
O33    O     0.19600   0.92650   0.44080   0.01267  Uiso   1.00
O34    O     0.56800   0.58460   0.59290   0.01267  Uiso   1.00
O35    O     0.94940   0.58210   0.02640   0.01267  Uiso   1.00
O36    O     0.02600   0.77050   0.97450   0.01267  Uiso   1.00
O37    O     0.91630   0.74860   0.09830   0.01267  Uiso   1.00
O38    O     0.78210   0.94200   0.13870   0.01267  Uiso   1.00
O39    O     0.97640   0.95040   0.04550   0.01267  Uiso   1.00
O40    O     0.81160   0.69750   0.89530   0.01267  Uiso   1.00
O41    O     0.73900   0.58310   0.95710   0.01267  Uiso   1.00
O42    O     0.45760   0.59590   0.69610   0.01267  Uiso   1.00
O43    O     0.63300   0.69140   0.71210   0.01267  Uiso   1.00
O44    O     0.29600   0.44660   0.93180   0.01267  Uiso   1.00
O45    O     0.22310   0.43960   0.84720   0.01267  Uiso   1.00
O46    O     0.19550   0.84160   0.08350   0.01267  Uiso   1.00
O47    O     0.21240   0.65920   0.09360   0.01267  Uiso   1.00
O48    O     0.58100   0.76390   0.29700   0.01267  Uiso   1.00
O49    O     0.42900   0.64770   0.28140   0.01267  Uiso   1.00
O50    O     0.69600   0.92650   0.05920   0.01267  Uiso   1.00
O51    O     0.06800   0.58460   0.90710   0.01267  Uiso   1.00
O52    O     0.55060   0.41790   0.52640   0.01267  Uiso   1.00
O53    O     0.47400   0.22950   0.47450   0.01267  Uiso   1.00
O54    O     0.58370   0.25140   0.59830   0.01267  Uiso   1.00
O55    O     0.71790   0.05800   0.63870   0.01267  Uiso   1.00
O56    O     0.52360   0.04960   0.54550   0.01267  Uiso   1.00
O57    O     0.68840   0.30250   0.39530   0.01267  Uiso   1.00
O58    O     0.76100   0.41690   0.45710   0.01267  Uiso   1.00
O59    O     0.04240   0.40410   0.19610   0.01267  Uiso   1.00
O60    O     0.86700   0.30860   0.21210   0.01267  Uiso   1.00
O61    O     0.20400   0.55340   0.43180   0.01267  Uiso   1.00
O62    O     0.27690   0.56040   0.34720   0.01267  Uiso   1.00
O63    O     0.30450   0.15840   0.58350   0.01267  Uiso   1.00
O64    O     0.28760   0.34080   0.59360   0.01267  Uiso   1.00
O65    O     0.91900   0.23610   0.79700   0.01267  Uiso   1.00
O66    O     0.07100   0.35230   0.78140   0.01267  Uiso   1.00
O67    O     0.80400   0.07350   0.55920   0.01267  Uiso   1.00
O68    O     0.43200   0.41540   0.40710   0.01267  Uiso   1.00
