data_image0
_cell_length_a       9.8905
_cell_length_b       16.8809
_cell_length_c       7.2031
_cell_angle_alpha    90
_cell_angle_beta     70.7143
_cell_angle_gamma    90

_symmetry_space_group_name_H-M    "P 1"
_symmetry_int_tables_number       1

loop_
  _symmetry_equiv_pos_as_xyz
  'x, y, z'

loop_
  _atom_site_label
  _atom_site_occupancy
  _atom_site_fract_x
  _atom_site_fract_y
  _atom_site_fract_z
  _atom_site_thermal_displace_type
  _atom_site_B_iso_or_equiv
  _atom_site_type_symbol
  C1       1.0000 0.83987  0.76513  0.81967  Biso   1.000  C
  C2       1.0000 0.73530  0.71677  0.95103  Biso   1.000  C
  C3       1.0000 0.61125  0.75388  0.08209  Biso   1.000  C
  C4       1.0000 0.60072  0.83778  0.09181  Biso   1.000  C
  C5       1.0000 0.71526  0.88287  0.97879  Biso   1.000  C
  C6       1.0000 0.82991  0.84854  0.83229  Biso   1.000  C
  C7       1.0000 0.93762  0.89754  0.69235  Biso   1.000  C
  C8       1.0000 0.47403  0.87717  0.23077  Biso   1.000  C
  C9       1.0000 0.74533  0.62811  0.94078  Biso   1.000  C
  O1       1.0000 0.06650  0.87480  0.69070  Biso   1.000  O
  O2       1.0000 0.89690  0.97800  0.69410  Biso   1.000  O
  O3       1.0000 0.84780  0.58170  0.84450  Biso   1.000  O
  O4       1.0000 0.65200  0.58400  0.06670  Biso   1.000  O
  O5       1.0000 0.38700  0.84200  0.37970  Biso   1.000  O
  O6       1.0000 0.45760  0.95360  0.21110  Biso   1.000  O
  Bi1      1.0000 0.22158  0.95928  0.47356  Biso   1.000  Bi
  C10      1.0000 0.16013  0.26513  0.68033  Biso   1.000  C
  C11      1.0000 0.26470  0.21677  0.54897  Biso   1.000  C
  C12      1.0000 0.38875  0.25388  0.41791  Biso   1.000  C
  C13      1.0000 0.39928  0.33778  0.40819  Biso   1.000  C
  C14      1.0000 0.28474  0.38287  0.52121  Biso   1.000  C
  C15      1.0000 0.17009  0.34854  0.66771  Biso   1.000  C
  C16      1.0000 0.06238  0.39754  0.80765  Biso   1.000  C
  C17      1.0000 0.52597  0.37717  0.26923  Biso   1.000  C
  C18      1.0000 0.25467  0.12811  0.55922  Biso   1.000  C
  O7       1.0000 0.93350  0.37480  0.80930  Biso   1.000  O
  O8       1.0000 0.10310  0.47800  0.80590  Biso   1.000  O
  O9       1.0000 0.15220  0.08170  0.65550  Biso   1.000  O
  O10      1.0000 0.34800  0.08400  0.43330  Biso   1.000  O
  O11      1.0000 0.61300  0.34200  0.12030  Biso   1.000  O
  O12      1.0000 0.54240  0.45360  0.28890  Biso   1.000  O
  Bi2      1.0000 0.77842  0.45928  0.02644  Biso   1.000  Bi
  C19      1.0000 0.16013  0.23487  0.18033  Biso   1.000  C
  C20      1.0000 0.26470  0.28323  0.04897  Biso   1.000  C
  C21      1.0000 0.38875  0.24612  0.91791  Biso   1.000  C
  C22      1.0000 0.39928  0.16222  0.90819  Biso   1.000  C
  C23      1.0000 0.28474  0.11713  0.02121  Biso   1.000  C
  C24      1.0000 0.17009  0.15146  0.16771  Biso   1.000  C
  C25      1.0000 0.06238  0.10246  0.30765  Biso   1.000  C
  C26      1.0000 0.52597  0.12283  0.76923  Biso   1.000  C
  C27      1.0000 0.25467  0.37189  0.05922  Biso   1.000  C
  O13      1.0000 0.93350  0.12520  0.30930  Biso   1.000  O
  O14      1.0000 0.10310  0.02200  0.30590  Biso   1.000  O
  O15      1.0000 0.15220  0.41830  0.15550  Biso   1.000  O
  O16      1.0000 0.34800  0.41600  0.93330  Biso   1.000  O
  O17      1.0000 0.61300  0.15800  0.62030  Biso   1.000  O
  O18      1.0000 0.54240  0.04640  0.78890  Biso   1.000  O
  Bi3      1.0000 0.77842  0.04072  0.52644  Biso   1.000  Bi
  C28      1.0000 0.83987  0.73487  0.31967  Biso   1.000  C
  C29      1.0000 0.73530  0.78323  0.45103  Biso   1.000  C
  C30      1.0000 0.61125  0.74612  0.58209  Biso   1.000  C
  C31      1.0000 0.60072  0.66222  0.59181  Biso   1.000  C
  C32      1.0000 0.71526  0.61713  0.47879  Biso   1.000  C
  C33      1.0000 0.82991  0.65146  0.33229  Biso   1.000  C
  C34      1.0000 0.93762  0.60246  0.19235  Biso   1.000  C
  C35      1.0000 0.47403  0.62283  0.73077  Biso   1.000  C
  C36      1.0000 0.74533  0.87189  0.44078  Biso   1.000  C
  O19      1.0000 0.06650  0.62520  0.19070  Biso   1.000  O
  O20      1.0000 0.89690  0.52200  0.19410  Biso   1.000  O
  O21      1.0000 0.84780  0.91830  0.34450  Biso   1.000  O
  O22      1.0000 0.65200  0.91600  0.56670  Biso   1.000  O
  O23      1.0000 0.38700  0.65800  0.87970  Biso   1.000  O
  O24      1.0000 0.45760  0.54640  0.71110  Biso   1.000  O
  Bi4      1.0000 0.22158  0.54072  0.97356  Biso   1.000  Bi
