data_UDIDAO_clean
_audit_creation_date              2014-07-02
_audit_creation_method            'Materials Studio'
_symmetry_space_group_name_H-M    'P1'
_symmetry_Int_Tables_number       1
_symmetry_cell_setting            triclinic
loop_
_symmetry_equiv_pos_as_xyz
  x,y,z
_cell_length_a                    13.7390
_cell_length_b                    15.1790
_cell_length_c                    24.3010
_cell_angle_alpha                 90.0000
_cell_angle_beta                  90.0000
_cell_angle_gamma                 90.0000
loop_
_atom_site_label
_atom_site_type_symbol
_atom_site_fract_x
_atom_site_fract_y
_atom_site_fract_z
_atom_site_U_iso_or_equiv
_atom_site_adp_type
_atom_site_occupancy
Co1    Co    0.61652   0.79209   0.75211   0.01267  Uiso   1.00
Co2    Co    0.77496   0.69905   0.84336   0.01267  Uiso   1.00
Co3    Co    0.19356   0.49538   0.59000   0.01267  Uiso   1.00
Co4    Co    0.64460   0.67680   0.45831   0.01267  Uiso   1.00
Co5    Co    0.88348   0.29209   0.74789   0.01267  Uiso   1.00
Co6    Co    0.72504   0.19905   0.65664   0.01267  Uiso   1.00
Co7    Co    0.30644   0.99538   0.91000   0.01267  Uiso   1.00
Co8    Co    0.85540   0.17680   0.04169   0.01267  Uiso   1.00
Co9    Co    0.38348   0.70791   0.75211   0.01267  Uiso   1.00
Co10   Co    0.22504   0.80095   0.84336   0.01267  Uiso   1.00
Co11   Co    0.80644   0.00462   0.59000   0.01267  Uiso   1.00
Co12   Co    0.35540   0.82320   0.45831   0.01267  Uiso   1.00
Co13   Co    0.11652   0.20791   0.74789   0.01267  Uiso   1.00
Co14   Co    0.27496   0.30095   0.65664   0.01267  Uiso   1.00
Co15   Co    0.69356   0.50462   0.91000   0.01267  Uiso   1.00
Co16   Co    0.14460   0.32320   0.04169   0.01267  Uiso   1.00
Co17   Co    0.38348   0.20791   0.24789   0.01267  Uiso   1.00
Co18   Co    0.22504   0.30095   0.15664   0.01267  Uiso   1.00
Co19   Co    0.80644   0.50462   0.41000   0.01267  Uiso   1.00
Co20   Co    0.35540   0.32320   0.54169   0.01267  Uiso   1.00
Co21   Co    0.11652   0.70791   0.25211   0.01267  Uiso   1.00
Co22   Co    0.27496   0.80095   0.34336   0.01267  Uiso   1.00
Co23   Co    0.69356   0.00462   0.09000   0.01267  Uiso   1.00
Co24   Co    0.14460   0.82320   0.95831   0.01267  Uiso   1.00
Co25   Co    0.61652   0.29209   0.24789   0.01267  Uiso   1.00
Co26   Co    0.77496   0.19905   0.15664   0.01267  Uiso   1.00
Co27   Co    0.19356   0.99538   0.41000   0.01267  Uiso   1.00
Co28   Co    0.64460   0.17680   0.54169   0.01267  Uiso   1.00
Co29   Co    0.88348   0.79209   0.25211   0.01267  Uiso   1.00
Co30   Co    0.72504   0.69905   0.34336   0.01267  Uiso   1.00
Co31   Co    0.30644   0.49538   0.09000   0.01267  Uiso   1.00
Co32   Co    0.85540   0.67680   0.95831   0.01267  Uiso   1.00
H1     H     0.90550   0.52590   0.72630   0.01267  Uiso   1.00
H2     H     0.74980   0.66270   0.61460   0.01267  Uiso   1.00
H3     H     0.93670   0.47380   0.56420   0.01267  Uiso   1.00
H4     H     0.90380   0.84800   0.74610   0.01267  Uiso   1.00
H5     H     0.59450   0.02590   0.77370   0.01267  Uiso   1.00
H6     H     0.75020   0.16270   0.88540   0.01267  Uiso   1.00
H7     H     0.56330   0.97380   0.93580   0.01267  Uiso   1.00
H8     H     0.59620   0.34800   0.75390   0.01267  Uiso   1.00
H9     H     0.09450   0.97410   0.72630   0.01267  Uiso   1.00
H10    H     0.25020   0.83730   0.61460   0.01267  Uiso   1.00
H11    H     0.06330   0.02620   0.56420   0.01267  Uiso   1.00
H12    H     0.09620   0.65200   0.74610   0.01267  Uiso   1.00
H13    H     0.40550   0.47410   0.77370   0.01267  Uiso   1.00
H14    H     0.24980   0.33730   0.88540   0.01267  Uiso   1.00
H15    H     0.43670   0.52620   0.93580   0.01267  Uiso   1.00
H16    H     0.40380   0.15200   0.75390   0.01267  Uiso   1.00
H17    H     0.09450   0.47410   0.27370   0.01267  Uiso   1.00
H18    H     0.25020   0.33730   0.38540   0.01267  Uiso   1.00
H19    H     0.06330   0.52620   0.43580   0.01267  Uiso   1.00
H20    H     0.09620   0.15200   0.25390   0.01267  Uiso   1.00
H21    H     0.40550   0.97410   0.22630   0.01267  Uiso   1.00
H22    H     0.24980   0.83730   0.11460   0.01267  Uiso   1.00
H23    H     0.43670   0.02620   0.06420   0.01267  Uiso   1.00
H24    H     0.40380   0.65200   0.24610   0.01267  Uiso   1.00
H25    H     0.90550   0.02590   0.27370   0.01267  Uiso   1.00
H26    H     0.74980   0.16270   0.38540   0.01267  Uiso   1.00
H27    H     0.93670   0.97380   0.43580   0.01267  Uiso   1.00
H28    H     0.90380   0.34800   0.25390   0.01267  Uiso   1.00
H29    H     0.59450   0.52590   0.22630   0.01267  Uiso   1.00
H30    H     0.75020   0.66270   0.11460   0.01267  Uiso   1.00
H31    H     0.56330   0.47380   0.06420   0.01267  Uiso   1.00
H32    H     0.59620   0.84800   0.24610   0.01267  Uiso   1.00
H33    H     0.00000   0.75000   0.60200   0.01267  Uiso   1.00
H34    H     0.50000   0.25000   0.89800   0.01267  Uiso   1.00
H35    H     0.00000   0.25000   0.39800   0.01267  Uiso   1.00
H36    H     0.50000   0.75000   0.10200   0.01267  Uiso   1.00
C1     C     0.00480   0.42210   0.66120   0.01267  Uiso   1.00
C2     C     0.92970   0.49100   0.64740   0.01267  Uiso   1.00
C3     C     0.88830   0.53740   0.68990   0.01267  Uiso   1.00
C4     C     0.81900   0.60270   0.67720   0.01267  Uiso   1.00
C5     C     0.79470   0.61870   0.62260   0.01267  Uiso   1.00
C6     C     0.83500   0.57150   0.58020   0.01267  Uiso   1.00
C7     C     0.90670   0.50560   0.59210   0.01267  Uiso   1.00
C8     C     0.77350   0.65620   0.72260   0.01267  Uiso   1.00
C9     C     0.80520   0.58390   0.52110   0.01267  Uiso   1.00
C10    C     0.94260   0.80830   0.72690   0.01267  Uiso   1.00
C11    C     0.94220   0.80840   0.66890   0.01267  Uiso   1.00
C12    C     0.88370   0.87580   0.63700   0.01267  Uiso   1.00
C13    C     0.49520   0.92210   0.83880   0.01267  Uiso   1.00
C14    C     0.57030   0.99100   0.85260   0.01267  Uiso   1.00
C15    C     0.61170   0.03740   0.81010   0.01267  Uiso   1.00
C16    C     0.68100   0.10270   0.82280   0.01267  Uiso   1.00
C17    C     0.70530   0.11870   0.87740   0.01267  Uiso   1.00
C18    C     0.66500   0.07150   0.91980   0.01267  Uiso   1.00
C19    C     0.59330   0.00560   0.90790   0.01267  Uiso   1.00
C20    C     0.72650   0.15620   0.77740   0.01267  Uiso   1.00
C21    C     0.69480   0.08390   0.97890   0.01267  Uiso   1.00
C22    C     0.55740   0.30830   0.77310   0.01267  Uiso   1.00
C23    C     0.55780   0.30840   0.83110   0.01267  Uiso   1.00
C24    C     0.61630   0.37580   0.86300   0.01267  Uiso   1.00
C25    C     0.99520   0.07790   0.66120   0.01267  Uiso   1.00
C26    C     0.07030   0.00900   0.64740   0.01267  Uiso   1.00
C27    C     0.11170   0.96260   0.68990   0.01267  Uiso   1.00
C28    C     0.18100   0.89730   0.67720   0.01267  Uiso   1.00
C29    C     0.20530   0.88130   0.62260   0.01267  Uiso   1.00
C30    C     0.16500   0.92850   0.58020   0.01267  Uiso   1.00
C31    C     0.09330   0.99440   0.59210   0.01267  Uiso   1.00
C32    C     0.22650   0.84380   0.72260   0.01267  Uiso   1.00
C33    C     0.19480   0.91610   0.52110   0.01267  Uiso   1.00
C34    C     0.05740   0.69170   0.72690   0.01267  Uiso   1.00
C35    C     0.05780   0.69160   0.66890   0.01267  Uiso   1.00
C36    C     0.11630   0.62420   0.63700   0.01267  Uiso   1.00
C37    C     0.50480   0.57790   0.83880   0.01267  Uiso   1.00
C38    C     0.42970   0.50900   0.85260   0.01267  Uiso   1.00
C39    C     0.38830   0.46260   0.81010   0.01267  Uiso   1.00
C40    C     0.31900   0.39730   0.82280   0.01267  Uiso   1.00
C41    C     0.29470   0.38130   0.87740   0.01267  Uiso   1.00
C42    C     0.33500   0.42850   0.91980   0.01267  Uiso   1.00
C43    C     0.40670   0.49440   0.90790   0.01267  Uiso   1.00
C44    C     0.27350   0.34380   0.77740   0.01267  Uiso   1.00
C45    C     0.30520   0.41610   0.97890   0.01267  Uiso   1.00
C46    C     0.44260   0.19170   0.77310   0.01267  Uiso   1.00
C47    C     0.44220   0.19160   0.83110   0.01267  Uiso   1.00
C48    C     0.38370   0.12420   0.86300   0.01267  Uiso   1.00
C49    C     0.99520   0.57790   0.33880   0.01267  Uiso   1.00
C50    C     0.07030   0.50900   0.35260   0.01267  Uiso   1.00
C51    C     0.11170   0.46260   0.31010   0.01267  Uiso   1.00
C52    C     0.18100   0.39730   0.32280   0.01267  Uiso   1.00
C53    C     0.20530   0.38130   0.37740   0.01267  Uiso   1.00
C54    C     0.16500   0.42850   0.41980   0.01267  Uiso   1.00
C55    C     0.09330   0.49440   0.40790   0.01267  Uiso   1.00
C56    C     0.22650   0.34380   0.27740   0.01267  Uiso   1.00
C57    C     0.19480   0.41610   0.47890   0.01267  Uiso   1.00
C58    C     0.05740   0.19170   0.27310   0.01267  Uiso   1.00
C59    C     0.05780   0.19160   0.33110   0.01267  Uiso   1.00
C60    C     0.11630   0.12420   0.36300   0.01267  Uiso   1.00
C61    C     0.50480   0.07790   0.16120   0.01267  Uiso   1.00
C62    C     0.42970   0.00900   0.14740   0.01267  Uiso   1.00
C63    C     0.38830   0.96260   0.18990   0.01267  Uiso   1.00
C64    C     0.31900   0.89730   0.17720   0.01267  Uiso   1.00
C65    C     0.29470   0.88130   0.12260   0.01267  Uiso   1.00
C66    C     0.33500   0.92850   0.08020   0.01267  Uiso   1.00
C67    C     0.40670   0.99440   0.09210   0.01267  Uiso   1.00
C68    C     0.27350   0.84380   0.22260   0.01267  Uiso   1.00
C69    C     0.30520   0.91610   0.02110   0.01267  Uiso   1.00
C70    C     0.44260   0.69170   0.22690   0.01267  Uiso   1.00
C71    C     0.44220   0.69160   0.16890   0.01267  Uiso   1.00
C72    C     0.38370   0.62420   0.13700   0.01267  Uiso   1.00
C73    C     0.00480   0.92210   0.33880   0.01267  Uiso   1.00
C74    C     0.92970   0.99100   0.35260   0.01267  Uiso   1.00
C75    C     0.88830   0.03740   0.31010   0.01267  Uiso   1.00
C76    C     0.81900   0.10270   0.32280   0.01267  Uiso   1.00
C77    C     0.79470   0.11870   0.37740   0.01267  Uiso   1.00
C78    C     0.83500   0.07150   0.41980   0.01267  Uiso   1.00
C79    C     0.90670   0.00560   0.40790   0.01267  Uiso   1.00
C80    C     0.77350   0.15620   0.27740   0.01267  Uiso   1.00
C81    C     0.80520   0.08390   0.47890   0.01267  Uiso   1.00
C82    C     0.94260   0.30830   0.27310   0.01267  Uiso   1.00
C83    C     0.94220   0.30840   0.33110   0.01267  Uiso   1.00
C84    C     0.88370   0.37580   0.36300   0.01267  Uiso   1.00
C85    C     0.49520   0.42210   0.16120   0.01267  Uiso   1.00
C86    C     0.57030   0.49100   0.14740   0.01267  Uiso   1.00
C87    C     0.61170   0.53740   0.18990   0.01267  Uiso   1.00
C88    C     0.68100   0.60270   0.17720   0.01267  Uiso   1.00
C89    C     0.70530   0.61870   0.12260   0.01267  Uiso   1.00
C90    C     0.66500   0.57150   0.08020   0.01267  Uiso   1.00
C91    C     0.59330   0.50560   0.09210   0.01267  Uiso   1.00
C92    C     0.72650   0.65620   0.22260   0.01267  Uiso   1.00
C93    C     0.69480   0.58390   0.02110   0.01267  Uiso   1.00
C94    C     0.55740   0.80830   0.22690   0.01267  Uiso   1.00
C95    C     0.55780   0.80840   0.16890   0.01267  Uiso   1.00
C96    C     0.61630   0.87580   0.13700   0.01267  Uiso   1.00
C97    C     0.00000   0.75000   0.81680   0.01267  Uiso   1.00
C98    C     0.00000   0.75000   0.75490   0.01267  Uiso   1.00
C99    C     0.00000   0.75000   0.64030   0.01267  Uiso   1.00
C100   C     0.50000   0.25000   0.68320   0.01267  Uiso   1.00
C101   C     0.50000   0.25000   0.74510   0.01267  Uiso   1.00
C102   C     0.50000   0.25000   0.85970   0.01267  Uiso   1.00
C103   C     0.00000   0.25000   0.18320   0.01267  Uiso   1.00
C104   C     0.00000   0.25000   0.24510   0.01267  Uiso   1.00
C105   C     0.00000   0.25000   0.35970   0.01267  Uiso   1.00
C106   C     0.50000   0.75000   0.31680   0.01267  Uiso   1.00
C107   C     0.50000   0.75000   0.25490   0.01267  Uiso   1.00
C108   C     0.50000   0.75000   0.14030   0.01267  Uiso   1.00
N1     N     0.09020   0.41410   0.63480   0.01267  Uiso   1.00
N2     N     0.13460   0.34440   0.66010   0.01267  Uiso   1.00
N3     N     0.07740   0.31590   0.69900   0.01267  Uiso   1.00
N4     N     0.99490   0.36250   0.69990   0.01267  Uiso   1.00
N5     N     0.92070   0.73800   0.84890   0.01267  Uiso   1.00
N6     N     0.95330   0.74240   0.90070   0.01267  Uiso   1.00
N7     N     0.72840   0.81610   0.80970   0.01267  Uiso   1.00
N8     N     0.77470   0.87910   0.81860   0.01267  Uiso   1.00
N9     N     0.82390   0.94280   0.82580   0.01267  Uiso   1.00
N10    N     0.40980   0.91410   0.86520   0.01267  Uiso   1.00
N11    N     0.36540   0.84440   0.83990   0.01267  Uiso   1.00
N12    N     0.42260   0.81590   0.80100   0.01267  Uiso   1.00
N13    N     0.50510   0.86250   0.80010   0.01267  Uiso   1.00
N14    N     0.57930   0.23800   0.65110   0.01267  Uiso   1.00
N15    N     0.54670   0.24240   0.59930   0.01267  Uiso   1.00
N16    N     0.77160   0.31610   0.69030   0.01267  Uiso   1.00
N17    N     0.72530   0.37910   0.68140   0.01267  Uiso   1.00
N18    N     0.67610   0.44280   0.67420   0.01267  Uiso   1.00
N19    N     0.90980   0.08590   0.63480   0.01267  Uiso   1.00
N20    N     0.86540   0.15560   0.66010   0.01267  Uiso   1.00
N21    N     0.92260   0.18410   0.69900   0.01267  Uiso   1.00
N22    N     0.00510   0.13750   0.69990   0.01267  Uiso   1.00
N23    N     0.07930   0.76200   0.84890   0.01267  Uiso   1.00
N24    N     0.04670   0.75760   0.90070   0.01267  Uiso   1.00
N25    N     0.27160   0.68390   0.80970   0.01267  Uiso   1.00
N26    N     0.22530   0.62090   0.81860   0.01267  Uiso   1.00
N27    N     0.17610   0.55720   0.82580   0.01267  Uiso   1.00
N28    N     0.59020   0.58590   0.86520   0.01267  Uiso   1.00
N29    N     0.63460   0.65560   0.83990   0.01267  Uiso   1.00
N30    N     0.57740   0.68410   0.80100   0.01267  Uiso   1.00
N31    N     0.49490   0.63750   0.80010   0.01267  Uiso   1.00
N32    N     0.42070   0.26200   0.65110   0.01267  Uiso   1.00
N33    N     0.45330   0.25760   0.59930   0.01267  Uiso   1.00
N34    N     0.22840   0.18390   0.69030   0.01267  Uiso   1.00
N35    N     0.27470   0.12090   0.68140   0.01267  Uiso   1.00
N36    N     0.32390   0.05720   0.67420   0.01267  Uiso   1.00
N37    N     0.90980   0.58590   0.36520   0.01267  Uiso   1.00
N38    N     0.86540   0.65560   0.33990   0.01267  Uiso   1.00
N39    N     0.92260   0.68410   0.30100   0.01267  Uiso   1.00
N40    N     0.00510   0.63750   0.30010   0.01267  Uiso   1.00
N41    N     0.07930   0.26200   0.15110   0.01267  Uiso   1.00
N42    N     0.04670   0.25760   0.09930   0.01267  Uiso   1.00
N43    N     0.27160   0.18390   0.19030   0.01267  Uiso   1.00
N44    N     0.22530   0.12090   0.18140   0.01267  Uiso   1.00
N45    N     0.17610   0.05720   0.17420   0.01267  Uiso   1.00
N46    N     0.59020   0.08590   0.13480   0.01267  Uiso   1.00
N47    N     0.63460   0.15560   0.16010   0.01267  Uiso   1.00
N48    N     0.57740   0.18410   0.19900   0.01267  Uiso   1.00
N49    N     0.49490   0.13750   0.19990   0.01267  Uiso   1.00
N50    N     0.42070   0.76200   0.34890   0.01267  Uiso   1.00
N51    N     0.45330   0.75760   0.40070   0.01267  Uiso   1.00
N52    N     0.22840   0.68390   0.30970   0.01267  Uiso   1.00
N53    N     0.27470   0.62090   0.31860   0.01267  Uiso   1.00
N54    N     0.32390   0.55720   0.32580   0.01267  Uiso   1.00
N55    N     0.09020   0.91410   0.36520   0.01267  Uiso   1.00
N56    N     0.13460   0.84440   0.33990   0.01267  Uiso   1.00
N57    N     0.07740   0.81590   0.30100   0.01267  Uiso   1.00
N58    N     0.99490   0.86250   0.30010   0.01267  Uiso   1.00
N59    N     0.92070   0.23800   0.15110   0.01267  Uiso   1.00
N60    N     0.95330   0.24240   0.09930   0.01267  Uiso   1.00
N61    N     0.72840   0.31610   0.19030   0.01267  Uiso   1.00
N62    N     0.77470   0.37910   0.18140   0.01267  Uiso   1.00
N63    N     0.82390   0.44280   0.17420   0.01267  Uiso   1.00
N64    N     0.40980   0.41410   0.13480   0.01267  Uiso   1.00
N65    N     0.36540   0.34440   0.16010   0.01267  Uiso   1.00
N66    N     0.42260   0.31590   0.19900   0.01267  Uiso   1.00
N67    N     0.50510   0.36250   0.19990   0.01267  Uiso   1.00
N68    N     0.57930   0.73800   0.34890   0.01267  Uiso   1.00
N69    N     0.54670   0.74240   0.40070   0.01267  Uiso   1.00
N70    N     0.77160   0.81610   0.30970   0.01267  Uiso   1.00
N71    N     0.72530   0.87910   0.31860   0.01267  Uiso   1.00
N72    N     0.67610   0.94280   0.32580   0.01267  Uiso   1.00
O1     O     0.71040   0.71240   0.70810   0.01267  Uiso   1.00
O2     O     0.80240   0.64060   0.77070   0.01267  Uiso   1.00
O3     O     0.73800   0.63870   0.51310   0.01267  Uiso   1.00
O4     O     0.84580   0.54190   0.48540   0.01267  Uiso   1.00
O5     O     0.89700   0.88840   0.58830   0.01267  Uiso   1.00
O6     O     0.82270   0.92430   0.66360   0.01267  Uiso   1.00
O7     O     0.80850   0.58810   0.88820   0.01267  Uiso   1.00
O8     O     0.75130   0.75940   0.92310   0.01267  Uiso   1.00
O9     O     0.78960   0.21240   0.79190   0.01267  Uiso   1.00
O10    O     0.69760   0.14060   0.72930   0.01267  Uiso   1.00
O11    O     0.76200   0.13870   0.98690   0.01267  Uiso   1.00
O12    O     0.65420   0.04190   0.01460   0.01267  Uiso   1.00
O13    O     0.60300   0.38840   0.91170   0.01267  Uiso   1.00
O14    O     0.67730   0.42430   0.83640   0.01267  Uiso   1.00
O15    O     0.69150   0.08810   0.61180   0.01267  Uiso   1.00
O16    O     0.74870   0.25940   0.57690   0.01267  Uiso   1.00
O17    O     0.28960   0.78760   0.70810   0.01267  Uiso   1.00
O18    O     0.19760   0.85940   0.77070   0.01267  Uiso   1.00
O19    O     0.26200   0.86130   0.51310   0.01267  Uiso   1.00
O20    O     0.15420   0.95810   0.48540   0.01267  Uiso   1.00
O21    O     0.10300   0.61160   0.58830   0.01267  Uiso   1.00
O22    O     0.17730   0.57570   0.66360   0.01267  Uiso   1.00
O23    O     0.19150   0.91190   0.88820   0.01267  Uiso   1.00
O24    O     0.24870   0.74060   0.92310   0.01267  Uiso   1.00
O25    O     0.21040   0.28760   0.79190   0.01267  Uiso   1.00
O26    O     0.30240   0.35940   0.72930   0.01267  Uiso   1.00
O27    O     0.23800   0.36130   0.98690   0.01267  Uiso   1.00
O28    O     0.34580   0.45810   0.01460   0.01267  Uiso   1.00
O29    O     0.39700   0.11160   0.91170   0.01267  Uiso   1.00
O30    O     0.32270   0.07570   0.83640   0.01267  Uiso   1.00
O31    O     0.30850   0.41190   0.61180   0.01267  Uiso   1.00
O32    O     0.25130   0.24060   0.57690   0.01267  Uiso   1.00
O33    O     0.28960   0.28760   0.29190   0.01267  Uiso   1.00
O34    O     0.19760   0.35940   0.22930   0.01267  Uiso   1.00
O35    O     0.26200   0.36130   0.48690   0.01267  Uiso   1.00
O36    O     0.15420   0.45810   0.51460   0.01267  Uiso   1.00
O37    O     0.10300   0.11160   0.41170   0.01267  Uiso   1.00
O38    O     0.17730   0.07570   0.33640   0.01267  Uiso   1.00
O39    O     0.19150   0.41190   0.11180   0.01267  Uiso   1.00
O40    O     0.24870   0.24060   0.07690   0.01267  Uiso   1.00
O41    O     0.21040   0.78760   0.20810   0.01267  Uiso   1.00
O42    O     0.30240   0.85940   0.27070   0.01267  Uiso   1.00
O43    O     0.23800   0.86130   0.01310   0.01267  Uiso   1.00
O44    O     0.34580   0.95810   0.98540   0.01267  Uiso   1.00
O45    O     0.39700   0.61160   0.08830   0.01267  Uiso   1.00
O46    O     0.32270   0.57570   0.16360   0.01267  Uiso   1.00
O47    O     0.30850   0.91190   0.38820   0.01267  Uiso   1.00
O48    O     0.25130   0.74060   0.42310   0.01267  Uiso   1.00
O49    O     0.71040   0.21240   0.29190   0.01267  Uiso   1.00
O50    O     0.80240   0.14060   0.22930   0.01267  Uiso   1.00
O51    O     0.73800   0.13870   0.48690   0.01267  Uiso   1.00
O52    O     0.84580   0.04190   0.51460   0.01267  Uiso   1.00
O53    O     0.89700   0.38840   0.41170   0.01267  Uiso   1.00
O54    O     0.82270   0.42430   0.33640   0.01267  Uiso   1.00
O55    O     0.80850   0.08810   0.11180   0.01267  Uiso   1.00
O56    O     0.75130   0.25940   0.07690   0.01267  Uiso   1.00
O57    O     0.78960   0.71240   0.20810   0.01267  Uiso   1.00
O58    O     0.69760   0.64060   0.27070   0.01267  Uiso   1.00
O59    O     0.76200   0.63870   0.01310   0.01267  Uiso   1.00
O60    O     0.65420   0.54190   0.98540   0.01267  Uiso   1.00
O61    O     0.60300   0.88840   0.08830   0.01267  Uiso   1.00
O62    O     0.67730   0.92430   0.16360   0.01267  Uiso   1.00
O63    O     0.69150   0.58810   0.38820   0.01267  Uiso   1.00
O64    O     0.74870   0.75940   0.42310   0.01267  Uiso   1.00
O65    O     0.50000   0.75000   0.69900   0.01267  Uiso   1.00
O66    O     0.00000   0.25000   0.80100   0.01267  Uiso   1.00
O67    O     0.50000   0.25000   0.30100   0.01267  Uiso   1.00
O68    O     0.00000   0.75000   0.19900   0.01267  Uiso   1.00
