data_UFASEA_ion_b
_audit_creation_date              2014-07-02
_audit_creation_method            'Materials Studio'
_symmetry_space_group_name_H-M    'P1'
_symmetry_Int_Tables_number       1
_symmetry_cell_setting            triclinic
loop_
_symmetry_equiv_pos_as_xyz
  x,y,z
_cell_length_a                    19.3740
_cell_length_b                    14.8874
_cell_length_c                    15.3721
_cell_angle_alpha                 90.0000
_cell_angle_beta                  111.7530
_cell_angle_gamma                 90.0000
loop_
_atom_site_label
_atom_site_type_symbol
_atom_site_fract_x
_atom_site_fract_y
_atom_site_fract_z
_atom_site_U_iso_or_equiv
_atom_site_adp_type
_atom_site_occupancy
Cd1    Cd    0.81809   0.08663   0.17834   0.00000  Uiso   1.00
Cd2    Cd    0.81936   0.31636   0.54457   0.00000  Uiso   1.00
Cd3    Cd    0.18033   0.18117   0.74532   0.00000  Uiso   1.00
Cd4    Cd    0.81554   0.41939   0.11364   0.00000  Uiso   1.00
C6     C     0.82520   0.09950   0.55600   0.00000  Uiso   1.00
C7     C     0.81960   0.12350   0.46190   0.00000  Uiso   1.00
C8     C     0.81380   0.07750   0.38140   0.00000  Uiso   1.00
C9     C     0.81680   0.98100   0.35790   0.00000  Uiso   1.00
C10    C     0.80760   0.21870   0.34990   0.00000  Uiso   1.00
H11    H     0.80320   0.27370   0.31680   0.00000  Uiso   1.00
C12    C     0.82880   0.39880   0.74750   0.00000  Uiso   1.00
C13    C     0.82320   0.37470   0.83720   0.00000  Uiso   1.00
C14    C     0.82050   0.42350   0.91390   0.00000  Uiso   1.00
C15    C     0.82240   0.51970   0.93670   0.00000  Uiso   1.00
C16    C     0.81390   0.28170   0.93940   0.00000  Uiso   1.00
H17    H     0.81120   0.22700   0.97000   0.00000  Uiso   1.00
C18    C     0.90490   0.27230   0.19510   0.00000  Uiso   1.00
C19    C     0.95940   0.20540   0.22780   0.00000  Uiso   1.00
C20    C     0.66060   0.36920   0.55960   0.00000  Uiso   1.00
H21    H     0.69470   0.38450   0.62040   0.00000  Uiso   1.00
C22    C     0.58640   0.38500   0.54070   0.00000  Uiso   1.00
H23    H     0.57050   0.41300   0.58560   0.00000  Uiso   1.00
C24    C     0.53690   0.35940   0.45620   0.00000  Uiso   1.00
C25    C     0.56050   0.31840   0.39500   0.00000  Uiso   1.00
H26    H     0.52630   0.29640   0.33700   0.00000  Uiso   1.00
C27    C     0.63710   0.30880   0.41890   0.00000  Uiso   1.00
H28    H     0.65430   0.28210   0.37450   0.00000  Uiso   1.00
C29    C     0.45530   0.37220   0.43460   0.00000  Uiso   1.00
C30    C     0.42820   0.36770   0.50910   0.00000  Uiso   1.00
H31    H     0.46100   0.35660   0.57160   0.00000  Uiso   1.00
C32    C     0.35190   0.38030   0.48750   0.00000  Uiso   1.00
H33    H     0.33360   0.37570   0.53680   0.00000  Uiso   1.00
C34    C     0.33110   0.40220   0.33210   0.00000  Uiso   1.00
H35    H     0.29670   0.41280   0.27030   0.00000  Uiso   1.00
C36    C     0.40470   0.39160   0.34550   0.00000  Uiso   1.00
H37    H     0.42070   0.39760   0.29450   0.00000  Uiso   1.00
C38    C     0.36270   0.19570   0.79120   0.00000  Uiso   1.00
H39    H     0.34500   0.22650   0.73290   0.00000  Uiso   1.00
C40    C     0.43980   0.18450   0.83520   0.00000  Uiso   1.00
H41    H     0.47300   0.20510   0.80710   0.00000  Uiso   1.00
C42    C     0.46520   0.14240   0.92120   0.00000  Uiso   1.00
C43    C     0.41300   0.11210   0.95580   0.00000  Uiso   1.00
H44    H     0.42930   0.08300   0.01500   0.00000  Uiso   1.00
C45    C     0.33900   0.12290   0.90700   0.00000  Uiso   1.00
H46    H     0.30450   0.09900   0.93160   0.00000  Uiso   1.00
C47    C     0.54630   0.13140   0.97450   0.00000  Uiso   1.00
C48    C     0.59640   0.11320   0.93570   0.00000  Uiso   1.00
H49    H     0.57980   0.10840   0.86940   0.00000  Uiso   1.00
C50    C     0.66960   0.10150   0.98670   0.00000  Uiso   1.00
H51    H     0.70250   0.08840   0.95540   0.00000  Uiso   1.00
C52    C     0.64730   0.12570   0.12000   0.00000  Uiso   1.00
H53    H     0.66520   0.13090   0.18630   0.00000  Uiso   1.00
C54    C     0.57400   0.13660   0.07250   0.00000  Uiso   1.00
H55    H     0.54150   0.14780   0.10490   0.00000  Uiso   1.00
N56    N     0.81470   0.21580   0.43790   0.00000  Uiso   1.00
N57    N     0.80690   0.13940   0.30990   0.00000  Uiso   1.00
N58    N     0.81850   0.28510   0.85620   0.00000  Uiso   1.00
N59    N     0.81340   0.36390   0.97730   0.00000  Uiso   1.00
N60    N     0.93640   0.12090   0.21650   0.00000  Uiso   1.00
N61    N     0.68780   0.33540   0.50170   0.00000  Uiso   1.00
N62    N     0.30460   0.39820   0.40290   0.00000  Uiso   1.00
N63    N     0.31350   0.16720   0.82390   0.00000  Uiso   1.00
N64    N     0.69680   0.10800   0.08050   0.00000  Uiso   1.00
O65    O     0.82830   0.01920   0.57780   0.00000  Uiso   1.00
O66    O     0.82810   0.16460   0.61100   0.00000  Uiso   1.00
O67    O     0.81640   0.92040   0.40940   0.00000  Uiso   1.00
O68    O     0.81980   0.96720   0.27760   0.00000  Uiso   1.00
O69    O     0.82890   0.33390   0.69440   0.00000  Uiso   1.00
O70    O     0.83480   0.48000   0.72880   0.00000  Uiso   1.00
O71    O     0.82590   0.57990   0.88660   0.00000  Uiso   1.00
O72    O     0.82250   0.53620   0.01870   0.00000  Uiso   1.00
O73    O     0.83890   0.25140   0.15740   0.00000  Uiso   1.00
O74    O     0.92280   0.35650   0.20190   0.00000  Uiso   1.00
Cd83   Cd    0.18191   0.08663   0.32166   0.00000  Uiso   1.00
Cd84   Cd    0.18064   0.31636   0.95543   0.00000  Uiso   1.00
Cd85   Cd    0.81967   0.18117   0.75468   0.00000  Uiso   1.00
Cd86   Cd    0.18446   0.41939   0.38636   0.00000  Uiso   1.00
C88    C     0.17480   0.09950   0.94400   0.00000  Uiso   1.00
C89    C     0.18040   0.12350   0.03810   0.00000  Uiso   1.00
C90    C     0.18620   0.07750   0.11860   0.00000  Uiso   1.00
C91    C     0.18320   0.98100   0.14210   0.00000  Uiso   1.00
C92    C     0.19240   0.21870   0.15010   0.00000  Uiso   1.00
H93    H     0.19680   0.27370   0.18320   0.00000  Uiso   1.00
C94    C     0.17120   0.39880   0.75250   0.00000  Uiso   1.00
C95    C     0.17680   0.37470   0.66280   0.00000  Uiso   1.00
C96    C     0.17950   0.42350   0.58610   0.00000  Uiso   1.00
C97    C     0.17760   0.51970   0.56330   0.00000  Uiso   1.00
C98    C     0.18610   0.28170   0.56060   0.00000  Uiso   1.00
H99    H     0.18880   0.22700   0.53000   0.00000  Uiso   1.00
C100   C     0.09510   0.27230   0.30490   0.00000  Uiso   1.00
C101   C     0.04060   0.20540   0.27220   0.00000  Uiso   1.00
C102   C     0.33940   0.36920   0.94040   0.00000  Uiso   1.00
H103   H     0.30530   0.38450   0.87960   0.00000  Uiso   1.00
C104   C     0.41360   0.38500   0.95930   0.00000  Uiso   1.00
H105   H     0.42950   0.41300   0.91440   0.00000  Uiso   1.00
C106   C     0.46310   0.35940   0.04380   0.00000  Uiso   1.00
C107   C     0.43950   0.31840   0.10500   0.00000  Uiso   1.00
H108   H     0.47370   0.29640   0.16300   0.00000  Uiso   1.00
C109   C     0.36290   0.30880   0.08110   0.00000  Uiso   1.00
H110   H     0.34570   0.28210   0.12550   0.00000  Uiso   1.00
C111   C     0.54470   0.37220   0.06540   0.00000  Uiso   1.00
C112   C     0.57180   0.36770   0.99090   0.00000  Uiso   1.00
H113   H     0.53900   0.35660   0.92840   0.00000  Uiso   1.00
C114   C     0.64810   0.38030   0.01250   0.00000  Uiso   1.00
H115   H     0.66640   0.37570   0.96320   0.00000  Uiso   1.00
C116   C     0.66890   0.40220   0.16790   0.00000  Uiso   1.00
H117   H     0.70330   0.41280   0.22970   0.00000  Uiso   1.00
C118   C     0.59530   0.39160   0.15450   0.00000  Uiso   1.00
H119   H     0.57930   0.39760   0.20550   0.00000  Uiso   1.00
C120   C     0.63730   0.19570   0.70880   0.00000  Uiso   1.00
H121   H     0.65500   0.22650   0.76710   0.00000  Uiso   1.00
C122   C     0.56020   0.18450   0.66480   0.00000  Uiso   1.00
H123   H     0.52700   0.20510   0.69290   0.00000  Uiso   1.00
C124   C     0.53480   0.14240   0.57880   0.00000  Uiso   1.00
C125   C     0.58700   0.11210   0.54420   0.00000  Uiso   1.00
H126   H     0.57070   0.08300   0.48500   0.00000  Uiso   1.00
C127   C     0.66100   0.12290   0.59300   0.00000  Uiso   1.00
H128   H     0.69550   0.09900   0.56840   0.00000  Uiso   1.00
C129   C     0.45370   0.13140   0.52550   0.00000  Uiso   1.00
C130   C     0.40360   0.11320   0.56430   0.00000  Uiso   1.00
H131   H     0.42020   0.10840   0.63060   0.00000  Uiso   1.00
C132   C     0.33040   0.10150   0.51330   0.00000  Uiso   1.00
H133   H     0.29750   0.08840   0.54460   0.00000  Uiso   1.00
C134   C     0.35270   0.12570   0.38000   0.00000  Uiso   1.00
H135   H     0.33480   0.13090   0.31370   0.00000  Uiso   1.00
C136   C     0.42600   0.13660   0.42750   0.00000  Uiso   1.00
H137   H     0.45850   0.14780   0.39510   0.00000  Uiso   1.00
N138   N     0.18530   0.21580   0.06210   0.00000  Uiso   1.00
N139   N     0.19310   0.13940   0.19010   0.00000  Uiso   1.00
N140   N     0.18150   0.28510   0.64380   0.00000  Uiso   1.00
N141   N     0.18660   0.36390   0.52270   0.00000  Uiso   1.00
N142   N     0.06360   0.12090   0.28350   0.00000  Uiso   1.00
N143   N     0.31220   0.33540   0.99830   0.00000  Uiso   1.00
N144   N     0.69540   0.39820   0.09710   0.00000  Uiso   1.00
N145   N     0.68650   0.16720   0.67610   0.00000  Uiso   1.00
N146   N     0.30320   0.10800   0.41950   0.00000  Uiso   1.00
O147   O     0.17170   0.01920   0.92220   0.00000  Uiso   1.00
O148   O     0.17190   0.16460   0.88900   0.00000  Uiso   1.00
O149   O     0.18360   0.92040   0.09060   0.00000  Uiso   1.00
O150   O     0.18020   0.96720   0.22240   0.00000  Uiso   1.00
O151   O     0.17110   0.33390   0.80560   0.00000  Uiso   1.00
O152   O     0.16520   0.48000   0.77120   0.00000  Uiso   1.00
O153   O     0.17410   0.57990   0.61340   0.00000  Uiso   1.00
O154   O     0.17750   0.53620   0.48130   0.00000  Uiso   1.00
O155   O     0.16110   0.25140   0.34260   0.00000  Uiso   1.00
O156   O     0.07720   0.35650   0.29810   0.00000  Uiso   1.00
Cd165  Cd    0.18191   0.91337   0.82166   0.00000  Uiso   1.00
Cd166  Cd    0.18064   0.68364   0.45543   0.00000  Uiso   1.00
Cd167  Cd    0.81967   0.81883   0.25468   0.00000  Uiso   1.00
Cd168  Cd    0.18446   0.58061   0.88636   0.00000  Uiso   1.00
C170   C     0.17480   0.90050   0.44400   0.00000  Uiso   1.00
C171   C     0.18040   0.87650   0.53810   0.00000  Uiso   1.00
C172   C     0.18620   0.92250   0.61860   0.00000  Uiso   1.00
C173   C     0.18320   0.01900   0.64210   0.00000  Uiso   1.00
C174   C     0.19240   0.78130   0.65010   0.00000  Uiso   1.00
H175   H     0.19680   0.72630   0.68320   0.00000  Uiso   1.00
C176   C     0.17120   0.60120   0.25250   0.00000  Uiso   1.00
C177   C     0.17680   0.62530   0.16280   0.00000  Uiso   1.00
C178   C     0.17950   0.57650   0.08610   0.00000  Uiso   1.00
C179   C     0.17760   0.48030   0.06330   0.00000  Uiso   1.00
C180   C     0.18610   0.71830   0.06060   0.00000  Uiso   1.00
H181   H     0.18880   0.77300   0.03000   0.00000  Uiso   1.00
C182   C     0.09510   0.72770   0.80490   0.00000  Uiso   1.00
C183   C     0.04060   0.79460   0.77220   0.00000  Uiso   1.00
C184   C     0.33940   0.63080   0.44040   0.00000  Uiso   1.00
H185   H     0.30530   0.61550   0.37960   0.00000  Uiso   1.00
C186   C     0.41360   0.61500   0.45930   0.00000  Uiso   1.00
H187   H     0.42950   0.58700   0.41440   0.00000  Uiso   1.00
C188   C     0.46310   0.64060   0.54380   0.00000  Uiso   1.00
C189   C     0.43950   0.68160   0.60500   0.00000  Uiso   1.00
H190   H     0.47370   0.70360   0.66300   0.00000  Uiso   1.00
C191   C     0.36290   0.69120   0.58110   0.00000  Uiso   1.00
H192   H     0.34570   0.71790   0.62550   0.00000  Uiso   1.00
C193   C     0.54470   0.62780   0.56540   0.00000  Uiso   1.00
C194   C     0.57180   0.63230   0.49090   0.00000  Uiso   1.00
H195   H     0.53900   0.64340   0.42840   0.00000  Uiso   1.00
C196   C     0.64810   0.61970   0.51250   0.00000  Uiso   1.00
H197   H     0.66640   0.62430   0.46320   0.00000  Uiso   1.00
C198   C     0.66890   0.59780   0.66790   0.00000  Uiso   1.00
H199   H     0.70330   0.58720   0.72970   0.00000  Uiso   1.00
C200   C     0.59530   0.60840   0.65450   0.00000  Uiso   1.00
H201   H     0.57930   0.60240   0.70550   0.00000  Uiso   1.00
C202   C     0.63730   0.80430   0.20880   0.00000  Uiso   1.00
H203   H     0.65500   0.77350   0.26710   0.00000  Uiso   1.00
C204   C     0.56020   0.81550   0.16480   0.00000  Uiso   1.00
H205   H     0.52700   0.79490   0.19290   0.00000  Uiso   1.00
C206   C     0.53480   0.85760   0.07880   0.00000  Uiso   1.00
C207   C     0.58700   0.88790   0.04420   0.00000  Uiso   1.00
H208   H     0.57070   0.91700   0.98500   0.00000  Uiso   1.00
C209   C     0.66100   0.87710   0.09300   0.00000  Uiso   1.00
H210   H     0.69550   0.90100   0.06840   0.00000  Uiso   1.00
C211   C     0.45370   0.86860   0.02550   0.00000  Uiso   1.00
C212   C     0.40360   0.88680   0.06430   0.00000  Uiso   1.00
H213   H     0.42020   0.89160   0.13060   0.00000  Uiso   1.00
C214   C     0.33040   0.89850   0.01330   0.00000  Uiso   1.00
H215   H     0.29750   0.91160   0.04460   0.00000  Uiso   1.00
C216   C     0.35270   0.87430   0.88000   0.00000  Uiso   1.00
H217   H     0.33480   0.86910   0.81370   0.00000  Uiso   1.00
C218   C     0.42600   0.86340   0.92750   0.00000  Uiso   1.00
H219   H     0.45850   0.85220   0.89510   0.00000  Uiso   1.00
N220   N     0.18530   0.78420   0.56210   0.00000  Uiso   1.00
N221   N     0.19310   0.86060   0.69010   0.00000  Uiso   1.00
N222   N     0.18150   0.71490   0.14380   0.00000  Uiso   1.00
N223   N     0.18660   0.63610   0.02270   0.00000  Uiso   1.00
N224   N     0.06360   0.87910   0.78350   0.00000  Uiso   1.00
N225   N     0.31220   0.66460   0.49830   0.00000  Uiso   1.00
N226   N     0.69540   0.60180   0.59710   0.00000  Uiso   1.00
N227   N     0.68650   0.83280   0.17610   0.00000  Uiso   1.00
N228   N     0.30320   0.89200   0.91950   0.00000  Uiso   1.00
O229   O     0.17170   0.98080   0.42220   0.00000  Uiso   1.00
O230   O     0.17190   0.83540   0.38900   0.00000  Uiso   1.00
O231   O     0.18360   0.07960   0.59060   0.00000  Uiso   1.00
O232   O     0.18020   0.03280   0.72240   0.00000  Uiso   1.00
O233   O     0.17110   0.66610   0.30560   0.00000  Uiso   1.00
O234   O     0.16520   0.52000   0.27120   0.00000  Uiso   1.00
O235   O     0.17410   0.42010   0.11340   0.00000  Uiso   1.00
O236   O     0.17750   0.46380   0.98130   0.00000  Uiso   1.00
O237   O     0.16110   0.74860   0.84260   0.00000  Uiso   1.00
O238   O     0.07720   0.64350   0.79810   0.00000  Uiso   1.00
Cd247  Cd    0.81809   0.91337   0.67834   0.00000  Uiso   1.00
Cd248  Cd    0.81936   0.68364   0.04457   0.00000  Uiso   1.00
Cd249  Cd    0.18033   0.81883   0.24532   0.00000  Uiso   1.00
Cd250  Cd    0.81554   0.58061   0.61364   0.00000  Uiso   1.00
C252   C     0.82520   0.90050   0.05600   0.00000  Uiso   1.00
C253   C     0.81960   0.87650   0.96190   0.00000  Uiso   1.00
C254   C     0.81380   0.92250   0.88140   0.00000  Uiso   1.00
C255   C     0.81680   0.01900   0.85790   0.00000  Uiso   1.00
C256   C     0.80760   0.78130   0.84990   0.00000  Uiso   1.00
H257   H     0.80320   0.72630   0.81680   0.00000  Uiso   1.00
C258   C     0.82880   0.60120   0.24750   0.00000  Uiso   1.00
C259   C     0.82320   0.62530   0.33720   0.00000  Uiso   1.00
C260   C     0.82050   0.57650   0.41390   0.00000  Uiso   1.00
C261   C     0.82240   0.48030   0.43670   0.00000  Uiso   1.00
C262   C     0.81390   0.71830   0.43940   0.00000  Uiso   1.00
H263   H     0.81120   0.77300   0.47000   0.00000  Uiso   1.00
C264   C     0.90490   0.72770   0.69510   0.00000  Uiso   1.00
C265   C     0.95940   0.79460   0.72780   0.00000  Uiso   1.00
C266   C     0.66060   0.63080   0.05960   0.00000  Uiso   1.00
H267   H     0.69470   0.61550   0.12040   0.00000  Uiso   1.00
C268   C     0.58640   0.61500   0.04070   0.00000  Uiso   1.00
H269   H     0.57050   0.58700   0.08560   0.00000  Uiso   1.00
C270   C     0.53690   0.64060   0.95620   0.00000  Uiso   1.00
C271   C     0.56050   0.68160   0.89500   0.00000  Uiso   1.00
H272   H     0.52630   0.70360   0.83700   0.00000  Uiso   1.00
C273   C     0.63710   0.69120   0.91890   0.00000  Uiso   1.00
H274   H     0.65430   0.71790   0.87450   0.00000  Uiso   1.00
C275   C     0.45530   0.62780   0.93460   0.00000  Uiso   1.00
C276   C     0.42820   0.63230   0.00910   0.00000  Uiso   1.00
H277   H     0.46100   0.64340   0.07160   0.00000  Uiso   1.00
C278   C     0.35190   0.61970   0.98750   0.00000  Uiso   1.00
H279   H     0.33360   0.62430   0.03680   0.00000  Uiso   1.00
C280   C     0.33110   0.59780   0.83210   0.00000  Uiso   1.00
H281   H     0.29670   0.58720   0.77030   0.00000  Uiso   1.00
C282   C     0.40470   0.60840   0.84550   0.00000  Uiso   1.00
H283   H     0.42070   0.60240   0.79450   0.00000  Uiso   1.00
C284   C     0.36270   0.80430   0.29120   0.00000  Uiso   1.00
H285   H     0.34500   0.77350   0.23290   0.00000  Uiso   1.00
C286   C     0.43980   0.81550   0.33520   0.00000  Uiso   1.00
H287   H     0.47300   0.79490   0.30710   0.00000  Uiso   1.00
C288   C     0.46520   0.85760   0.42120   0.00000  Uiso   1.00
C289   C     0.41300   0.88790   0.45580   0.00000  Uiso   1.00
H290   H     0.42930   0.91700   0.51500   0.00000  Uiso   1.00
C291   C     0.33900   0.87710   0.40700   0.00000  Uiso   1.00
H292   H     0.30450   0.90100   0.43160   0.00000  Uiso   1.00
C293   C     0.54630   0.86860   0.47450   0.00000  Uiso   1.00
C294   C     0.59640   0.88680   0.43570   0.00000  Uiso   1.00
H295   H     0.57980   0.89160   0.36940   0.00000  Uiso   1.00
C296   C     0.66960   0.89850   0.48670   0.00000  Uiso   1.00
H297   H     0.70250   0.91160   0.45540   0.00000  Uiso   1.00
C298   C     0.64730   0.87430   0.62000   0.00000  Uiso   1.00
H299   H     0.66520   0.86910   0.68630   0.00000  Uiso   1.00
C300   C     0.57400   0.86340   0.57250   0.00000  Uiso   1.00
H301   H     0.54150   0.85220   0.60490   0.00000  Uiso   1.00
N302   N     0.81470   0.78420   0.93790   0.00000  Uiso   1.00
N303   N     0.80690   0.86060   0.80990   0.00000  Uiso   1.00
N304   N     0.81850   0.71490   0.35620   0.00000  Uiso   1.00
N305   N     0.81340   0.63610   0.47730   0.00000  Uiso   1.00
N306   N     0.93640   0.87910   0.71650   0.00000  Uiso   1.00
N307   N     0.68780   0.66460   0.00170   0.00000  Uiso   1.00
N308   N     0.30460   0.60180   0.90290   0.00000  Uiso   1.00
N309   N     0.31350   0.83280   0.32390   0.00000  Uiso   1.00
N310   N     0.69680   0.89200   0.58050   0.00000  Uiso   1.00
O311   O     0.82830   0.98080   0.07780   0.00000  Uiso   1.00
O312   O     0.82810   0.83540   0.11100   0.00000  Uiso   1.00
O313   O     0.81640   0.07960   0.90940   0.00000  Uiso   1.00
O314   O     0.81980   0.03280   0.77760   0.00000  Uiso   1.00
O315   O     0.82890   0.66610   0.19440   0.00000  Uiso   1.00
O316   O     0.83480   0.52000   0.22880   0.00000  Uiso   1.00
O317   O     0.82590   0.42010   0.38660   0.00000  Uiso   1.00
O318   O     0.82250   0.46380   0.51870   0.00000  Uiso   1.00
O319   O     0.83890   0.74860   0.65740   0.00000  Uiso   1.00
O320   O     0.92280   0.64350   0.70190   0.00000  Uiso   1.00
C329   C     0.00000   0.06790   0.25000   0.00000  Uiso   1.00
H330   H     0.00000   0.00410   0.25000   0.00000  Uiso   1.00
C332   C     0.00000   0.93210   0.75000   0.00000  Uiso   1.00
H333   H     0.00000   0.99590   0.75000   0.00000  Uiso   1.00
loop_
_geom_bond_atom_site_label_1
_geom_bond_atom_site_label_2
_geom_bond_distance
_geom_bond_site_symmetry_2
_ccdc_geom_bond_type
Cd1    N57     2.254   .     S
Cd1    N60     2.205   .     S
Cd1    N64     2.295   .     S
Cd1    O68     2.335   1_545 S
Cd1    O311    2.266   1_545 S
Cd2    N56     2.197   .     S
Cd2    O69     2.256   .     S
Cd2    O318    2.236   .     S
Cd3    N140    2.204   .     S
Cd3    O148    2.288   .     S
Cd3    O232    2.237   .     S
Cd4    O72     2.306   .     S
Cd4    O74     2.224   .     S
Cd4    N144    2.268   .     S
Cd4    O316    2.242   .     S
Cd4    N59     2.239   1_554 S
C6     C7      1.454   .     S
C6     O65     1.237   .     A
C6     O66     1.274   .     A
C7     C8      1.382   .     A
C7     N56     1.417   .     A
C8     N57     1.402   .     A
C8     C9      1.488   1_545 S
C9     O67     1.202   .     D
C9     O68     1.274   .     S
C9     C8      1.488   1_565 S
C10    H11     0.951   .     S
C10    N56     1.309   .     A
C10    N57     1.329   .     A
C12    C13     1.467   .     S
C12    O69     1.265   .     D
C12    O70     1.258   .     S
C13    C14     1.402   .     A
C13    N58     1.376   .     A
C14    C15     1.472   .     S
C14    N59     1.362   .     A
C15    O71     1.200   .     D
C15    O72     1.284   1_556 S
C16    H17     0.952   .     S
C16    N58     1.316   .     A
C16    N59     1.357   .     A
C18    C19     1.402   .     S
C18    O73     1.232   .     D
C18    O74     1.294   .     S
C19    N60     1.324   .     A
C19    C101    1.465   1_655 S
C20    H21     0.951   .     S
C20    C22     1.377   .     A
C20    N61     1.293   .     A
C22    H23     0.950   .     S
C22    C24     1.352   .     A
C24    C25     1.336   .     A
C24    C29     1.502   .     S
C25    H26     0.950   .     S
C25    C27     1.398   .     A
C27    H28     0.951   .     S
C27    N61     1.347   .     A
C29    C30     1.427   .     A
C29    C36     1.388   .     A
C30    H31     0.950   .     S
C30    C32     1.402   .     A
C32    H33     0.951   .     S
C32    N62     1.311   .     A
C34    H35     0.950   .     S
C34    C36     1.372   .     A
C34    N62     1.366   .     A
C36    H37     0.948   .     S
C38    H39     0.950   .     S
C38    C40     1.403   .     A
C38    N63     1.302   .     A
C40    H41     0.949   .     S
C40    C42     1.379   .     A
C42    C43     1.381   .     A
C42    C47     1.488   .     S
C43    C45     1.359   .     A
C43    H44     0.950   1_556 S
H44    C43     0.950   1_554 S
C45    H46     0.951   .     S
C45    N63     1.358   .     A
C47    C48     1.342   .     A
C47    C54     1.401   1_556 S
C48    H49     0.951   .     S
C48    C50     1.354   .     A
C50    H51     0.950   .     S
C50    N64     1.343   1_556 S
C52    H53     0.950   .     S
C52    C54     1.344   .     A
C52    N64     1.338   .     A
C54    H55     0.951   .     S
C54    C47     1.401   1_554 S
N58    Cd85    2.204   .     S
N59    Cd4     2.239   1_556 S
N60    C329    1.391   1_655 S
N62    Cd86    2.268   .     S
N64    C50     1.343   1_554 S
O65    Cd247   2.266   1_545 A
O66    Cd85    2.288   .     S
O68    Cd167   2.237   .     S
O68    Cd1     2.335   1_565 S
O70    Cd250   2.242   .     S
O72    Cd248   2.236   .     S
O72    C15     1.284   1_554 S
Cd83   N139    2.254   .     S
Cd83   N142    2.205   .     S
Cd83   N146    2.295   .     S
Cd83   O150    2.335   1_545 A
Cd83   O229    2.266   1_545 D
Cd84   O151    2.256   .     S
Cd84   O236    2.236   .     S
Cd84   N138    2.197   1_556 S
Cd85   O314    2.237   .     S
Cd86   N141    2.239   .     S
Cd86   O154    2.306   .     S
Cd86   O156    2.224   .     S
Cd86   O234    2.242   .     S
C88    O147    1.237   .     A
C88    O148    1.274   .     A
C88    C89     1.454   1_556 S
C89    C90     1.382   .     A
C89    N138    1.417   .     A
C89    C88     1.454   1_554 S
C90    N139    1.402   .     A
C90    C91     1.488   1_545 A
C91    O149    1.202   .     D
C91    O150    1.274   .     S
C91    C90     1.488   1_565 A
C92    H93     0.951   .     S
C92    N138    1.309   .     A
C92    N139    1.329   .     A
C94    C95     1.467   .     S
C94    O151    1.265   .     D
C94    O152    1.258   .     S
C95    C96     1.402   .     A
C95    N140    1.376   .     A
C96    C97     1.472   .     S
C96    N141    1.362   .     A
C97    O153    1.200   .     D
C97    O154    1.284   .     S
C98    H99     0.952   .     S
C98    N140    1.316   .     A
C98    N141    1.357   .     A
C100   C101    1.402   .     S
C100   O155    1.232   .     D
C100   O156    1.294   .     S
C101   N142    1.324   .     A
C101   C19     1.465   1_455 S
C102   H103    0.951   .     S
C102   C104    1.377   .     A
C102   N143    1.293   .     A
C104   H105    0.950   .     S
C104   C106    1.352   1_556 S
C106   C107    1.336   .     A
C106   C111    1.502   .     S
C106   C104    1.352   1_554 S
C107   H108    0.950   .     S
C107   C109    1.398   .     A
C109   H110    0.951   .     S
C109   N143    1.347   1_554 A
C111   C118    1.388   .     A
C111   C112    1.427   1_554 S
C112   H113    0.950   .     S
C112   C111    1.427   1_556 S
C112   C114    1.402   1_556 D
C114   N144    1.311   .     A
C114   C112    1.402   1_554 D
C114   H115    0.951   1_554 A
H115   C114    0.951   1_556 A
C116   H117    0.950   .     S
C116   C118    1.372   .     A
C116   N144    1.366   .     A
C118   H119    0.948   .     S
C120   H121    0.950   .     S
C120   C122    1.403   .     A
C120   N145    1.302   .     A
C122   H123    0.949   .     S
C122   C124    1.379   .     A
C124   C125    1.381   .     A
C124   C129    1.488   .     S
C125   H126    0.950   .     S
C125   C127    1.359   .     A
C127   H128    0.951   .     S
C127   N145    1.358   .     A
C129   C130    1.342   .     A
C129   C136    1.401   .     A
C130   H131    0.951   .     S
C130   C132    1.354   .     A
C132   H133    0.950   .     S
C132   N146    1.343   .     A
C134   H135    0.950   .     S
C134   C136    1.344   .     A
C134   N146    1.338   .     A
C136   H137    0.951   .     S
N138   Cd84    2.197   1_554 S
N142   C329    1.391   .     A
N143   C109    1.347   1_556 A
O147   Cd165   2.266   1_545 S
O150   Cd249   2.237   .     S
O150   Cd83    2.335   1_565 A
O152   Cd168   2.242   .     S
O154   Cd166   2.236   .     S
Cd165  N221    2.254   .     S
Cd165  N224    2.205   .     S
Cd165  N228    2.295   .     S
Cd165  O147    2.266   1_565 S
Cd165  O232    2.335   1_565 A
Cd166  N220    2.197   .     S
Cd166  O233    2.256   .     S
Cd167  N304    2.204   .     S
Cd167  O312    2.288   .     S
Cd168  O236    2.306   .     S
Cd168  O238    2.224   .     S
Cd168  N308    2.268   .     S
Cd168  N223    2.239   1_556 A
C170   C171    1.454   .     S
C170   O229    1.237   .     A
C170   O230    1.274   .     A
C171   C172    1.382   .     A
C171   N220    1.417   .     A
C172   N221    1.402   .     A
C172   C173    1.488   1_565 S
C173   O231    1.202   .     D
C173   O232    1.274   .     S
C173   C172    1.488   1_545 S
C174   H175    0.951   .     S
C174   N220    1.309   .     A
C174   N221    1.329   .     A
C176   C177    1.467   .     S
C176   O233    1.265   .     D
C176   O234    1.258   .     S
C177   C178    1.402   .     A
C177   N222    1.376   .     A
C178   C179    1.472   .     S
C178   N223    1.362   .     A
C179   O235    1.200   .     D
C179   O236    1.284   1_554 A
C180   H181    0.952   .     S
C180   N222    1.316   .     A
C180   N223    1.357   .     A
C182   C183    1.402   .     S
C182   O237    1.232   .     D
C182   O238    1.294   .     S
C183   N224    1.324   .     A
C183   C265    1.465   1_455 S
C184   H185    0.951   .     S
C184   C186    1.377   .     A
C184   N225    1.293   .     A
C186   H187    0.950   .     S
C186   C188    1.352   .     A
C188   C189    1.336   .     A
C188   C193    1.502   .     S
C189   H190    0.950   .     S
C189   C191    1.398   .     A
C191   H192    0.951   .     S
C191   N225    1.347   .     A
C193   C194    1.427   .     A
C193   C200    1.388   .     A
C194   H195    0.950   .     S
C194   C196    1.402   .     A
C196   H197    0.951   .     S
C196   N226    1.311   .     A
C198   H199    0.950   .     S
C198   C200    1.372   .     A
C198   N226    1.366   .     A
C200   H201    0.948   .     S
C202   H203    0.950   .     S
C202   C204    1.403   .     A
C202   N227    1.302   .     A
C204   H205    0.949   .     S
C204   C206    1.379   .     A
C206   C207    1.381   .     A
C206   C211    1.488   .     S
C207   C209    1.359   .     A
C207   H208    0.950   1_554 S
H208   C207    0.950   1_556 S
C209   H210    0.951   .     S
C209   N227    1.358   .     A
C211   C212    1.342   .     A
C211   C218    1.401   1_554 S
C212   H213    0.951   .     S
C212   C214    1.354   .     A
C214   H215    0.950   .     S
C214   N228    1.343   1_554 A
C216   H217    0.950   .     S
C216   C218    1.344   .     A
C216   N228    1.338   .     A
C218   H219    0.951   .     S
C218   C211    1.401   1_556 S
N222   Cd249   2.204   .     S
N223   Cd168   2.239   1_554 A
N224   C332    1.391   .     A
N226   Cd250   2.268   .     S
N228   C214    1.343   1_556 A
O229   Cd83    2.266   1_565 D
O230   Cd249   2.288   .     S
O232   Cd165   2.335   1_545 A
O236   C179    1.284   1_556 A
Cd247  N303    2.254   .     S
Cd247  N306    2.205   .     S
Cd247  N310    2.295   .     S
Cd247  O65     2.266   1_565 A
Cd247  O314    2.335   1_565 A
Cd248  O315    2.256   .     S
Cd248  N302    2.197   1_554 A
Cd250  N305    2.239   .     S
Cd250  O318    2.306   .     S
Cd250  O320    2.224   .     S
C252   O311    1.237   .     A
C252   O312    1.274   .     A
C252   C253    1.454   1_554 S
C253   C254    1.382   .     A
C253   N302    1.417   .     A
C253   C252    1.454   1_556 S
C254   N303    1.402   .     A
C254   C255    1.488   1_565 A
C255   O313    1.202   .     D
C255   O314    1.274   .     S
C255   C254    1.488   1_545 A
C256   H257    0.951   .     S
C256   N302    1.309   .     A
C256   N303    1.329   .     A
C258   C259    1.467   .     S
C258   O315    1.265   .     D
C258   O316    1.258   .     S
C259   C260    1.402   .     A
C259   N304    1.376   .     A
C260   C261    1.472   .     S
C260   N305    1.362   .     A
C261   O317    1.200   .     D
C261   O318    1.284   .     S
C262   H263    0.952   .     S
C262   N304    1.316   .     A
C262   N305    1.357   .     A
C264   C265    1.402   .     S
C264   O319    1.232   .     D
C264   O320    1.294   .     S
C265   N306    1.324   .     A
C265   C183    1.465   1_655 S
C266   H267    0.951   .     S
C266   C268    1.377   .     A
C266   N307    1.293   .     A
C268   H269    0.950   .     S
C268   C270    1.352   1_554 A
C270   C271    1.336   .     A
C270   C275    1.502   .     S
C270   C268    1.352   1_556 A
C271   H272    0.950   .     S
C271   C273    1.398   .     A
C273   H274    0.951   .     S
C273   N307    1.347   1_556 S
C275   C282    1.388   .     A
C275   C276    1.427   1_556 A
C276   H277    0.950   .     S
C276   C275    1.427   1_554 A
C276   C278    1.402   1_554 A
C278   N308    1.311   .     A
C278   C276    1.402   1_556 A
C278   H279    0.951   1_556 S
H279   C278    0.951   1_554 S
C280   H281    0.950   .     S
C280   C282    1.372   .     A
C280   N308    1.366   .     A
C282   H283    0.948   .     S
C284   H285    0.950   .     S
C284   C286    1.403   .     A
C284   N309    1.302   .     A
C286   H287    0.949   .     S
C286   C288    1.379   .     A
C288   C289    1.381   .     A
C288   C293    1.488   .     S
C289   H290    0.950   .     S
C289   C291    1.359   .     A
C291   H292    0.951   .     S
C291   N309    1.358   .     A
C293   C294    1.342   .     A
C293   C300    1.401   .     A
C294   H295    0.951   .     S
C294   C296    1.354   .     A
C296   H297    0.950   .     S
C296   N310    1.343   .     A
C298   H299    0.950   .     S
C298   C300    1.344   .     A
C298   N310    1.338   .     A
C300   H301    0.951   .     S
N302   Cd248   2.197   1_556 A
N306   C332    1.391   1_655 S
N307   C273    1.347   1_554 S
O311   Cd1     2.266   1_565 S
O314   Cd247   2.335   1_545 A
C329   H330    0.950   .     S
C329   N60     1.391   1_455 S
C332   H333    0.950   .     S
C332   N306    1.391   1_455 S
