data_image0
_cell_length_a       14.3384
_cell_length_b       13.3522
_cell_length_c       12.3444
_cell_angle_alpha    90
_cell_angle_beta     90
_cell_angle_gamma    90

_symmetry_space_group_name_H-M    "P 1"
_symmetry_int_tables_number       1

loop_
  _symmetry_equiv_pos_as_xyz
  'x, y, z'

loop_
  _atom_site_label
  _atom_site_occupancy
  _atom_site_fract_x
  _atom_site_fract_y
  _atom_site_fract_z
  _atom_site_thermal_displace_type
  _atom_site_B_iso_or_equiv
  _atom_site_type_symbol
  C1       1.0000 0.45810  0.48560  0.13020  Biso   1.000  C
  C2       1.0000 0.31890  0.47090  0.91920  Biso   1.000  C
  C3       1.0000 0.47240  0.48790  0.46850  Biso   1.000  C
  C4       1.0000 0.36460  0.29460  0.36500  Biso   1.000  C
  C5       1.0000 0.46890  0.29330  0.95910  Biso   1.000  C
  Cu1      1.0000 0.44566  0.43738  0.96104  Biso   1.000  Cu
  Cu2      1.0000 0.37818  0.44357  0.36343  Biso   1.000  Cu
  N1       1.0000 0.42500  0.47120  0.21150  Biso   1.000  N
  N2       1.0000 0.24540  0.49510  0.89330  Biso   1.000  N
  C6       1.0000 0.04190  0.51440  0.63020  Biso   1.000  C
  C7       1.0000 0.18110  0.52910  0.41920  Biso   1.000  C
  C8       1.0000 0.02760  0.51210  0.96850  Biso   1.000  C
  C9       1.0000 0.13540  0.70540  0.86500  Biso   1.000  C
  C10      1.0000 0.03110  0.70670  0.45910  Biso   1.000  C
  Cu3      1.0000 0.05434  0.56262  0.46104  Biso   1.000  Cu
  Cu4      1.0000 0.12182  0.55643  0.86343  Biso   1.000  Cu
  N3       1.0000 0.07500  0.52880  0.71150  Biso   1.000  N
  N4       1.0000 0.25460  0.50490  0.39330  Biso   1.000  N
  C11      1.0000 0.54190  0.98560  0.86980  Biso   1.000  C
  C12      1.0000 0.68110  0.97090  0.08080  Biso   1.000  C
  C13      1.0000 0.52760  0.98790  0.53150  Biso   1.000  C
  C14      1.0000 0.63540  0.79460  0.63500  Biso   1.000  C
  C15      1.0000 0.53110  0.79330  0.04090  Biso   1.000  C
  Cu5      1.0000 0.55434  0.93738  0.03896  Biso   1.000  Cu
  Cu6      1.0000 0.62182  0.94357  0.63657  Biso   1.000  Cu
  N5       1.0000 0.57500  0.97120  0.78850  Biso   1.000  N
  N6       1.0000 0.75460  0.99510  0.10670  Biso   1.000  N
  C16      1.0000 0.95810  0.01440  0.36980  Biso   1.000  C
  C17      1.0000 0.81890  0.02910  0.58080  Biso   1.000  C
  C18      1.0000 0.97240  0.01210  0.03150  Biso   1.000  C
  C19      1.0000 0.86460  0.20540  0.13500  Biso   1.000  C
  C20      1.0000 0.96890  0.20670  0.54090  Biso   1.000  C
  Cu7      1.0000 0.94566  0.06262  0.53896  Biso   1.000  Cu
  Cu8      1.0000 0.87818  0.05643  0.13657  Biso   1.000  Cu
  N7       1.0000 0.92500  0.02880  0.28850  Biso   1.000  N
  N8       1.0000 0.74540  0.00490  0.60670  Biso   1.000  N
  C21      1.0000 0.54190  0.51440  0.86980  Biso   1.000  C
  C22      1.0000 0.68110  0.52910  0.08080  Biso   1.000  C
  C23      1.0000 0.52760  0.51210  0.53150  Biso   1.000  C
  C24      1.0000 0.63540  0.70540  0.63500  Biso   1.000  C
  C25      1.0000 0.53110  0.70670  0.04090  Biso   1.000  C
  Cu9      1.0000 0.55434  0.56262  0.03896  Biso   1.000  Cu
  Cu10     1.0000 0.62182  0.55643  0.63657  Biso   1.000  Cu
  N9       1.0000 0.57500  0.52880  0.78850  Biso   1.000  N
  N10      1.0000 0.75460  0.50490  0.10670  Biso   1.000  N
  C26      1.0000 0.95810  0.48560  0.36980  Biso   1.000  C
  C27      1.0000 0.81890  0.47090  0.58080  Biso   1.000  C
  C28      1.0000 0.97240  0.48790  0.03150  Biso   1.000  C
  C29      1.0000 0.86460  0.29460  0.13500  Biso   1.000  C
  C30      1.0000 0.96890  0.29330  0.54090  Biso   1.000  C
  Cu11     1.0000 0.94566  0.43738  0.53896  Biso   1.000  Cu
  Cu12     1.0000 0.87818  0.44357  0.13657  Biso   1.000  Cu
  N11      1.0000 0.92500  0.47120  0.28850  Biso   1.000  N
  N12      1.0000 0.74540  0.49510  0.60670  Biso   1.000  N
  C31      1.0000 0.45810  0.01440  0.13020  Biso   1.000  C
  C32      1.0000 0.31890  0.02910  0.91920  Biso   1.000  C
  C33      1.0000 0.47240  0.01210  0.46850  Biso   1.000  C
  C34      1.0000 0.36460  0.20540  0.36500  Biso   1.000  C
  C35      1.0000 0.46890  0.20670  0.95910  Biso   1.000  C
  Cu13     1.0000 0.44566  0.06262  0.96104  Biso   1.000  Cu
  Cu14     1.0000 0.37818  0.05643  0.36343  Biso   1.000  Cu
  N13      1.0000 0.42500  0.02880  0.21150  Biso   1.000  N
  N14      1.0000 0.24540  0.00490  0.89330  Biso   1.000  N
  C36      1.0000 0.04190  0.98560  0.63020  Biso   1.000  C
  C37      1.0000 0.18110  0.97090  0.41920  Biso   1.000  C
  C38      1.0000 0.02760  0.98790  0.96850  Biso   1.000  C
  C39      1.0000 0.13540  0.79460  0.86500  Biso   1.000  C
  C40      1.0000 0.03110  0.79330  0.45910  Biso   1.000  C
  Cu15     1.0000 0.05434  0.93738  0.46104  Biso   1.000  Cu
  Cu16     1.0000 0.12182  0.94357  0.86343  Biso   1.000  Cu
  N15      1.0000 0.07500  0.97120  0.71150  Biso   1.000  N
  N16      1.0000 0.25460  0.99510  0.39330  Biso   1.000  N
