data_image0
_cell_length_a       8.1953
_cell_length_b       7.5577
_cell_length_c       13.4593
_cell_angle_alpha    90
_cell_angle_beta     90
_cell_angle_gamma    90

_symmetry_space_group_name_H-M    "P 1"
_symmetry_int_tables_number       1

loop_
  _symmetry_equiv_pos_as_xyz
  'x, y, z'

loop_
  _atom_site_label
  _atom_site_occupancy
  _atom_site_fract_x
  _atom_site_fract_y
  _atom_site_fract_z
  _atom_site_thermal_displace_type
  _atom_site_B_iso_or_equiv
  _atom_site_type_symbol
  Cu1      1.0000 0.05634  0.09757  0.56530  Biso   1.000  Cu
  N1       1.0000 0.25140  0.24680  0.53810  Biso   1.000  N
  C1       1.0000 0.85810  0.16680  0.48400  Biso   1.000  C
  C2       1.0000 0.01500  0.08170  0.70850  Biso   1.000  C
  Cu2      1.0000 0.44366  0.40243  0.06530  Biso   1.000  Cu
  N2       1.0000 0.24860  0.25320  0.03810  Biso   1.000  N
  C3       1.0000 0.64190  0.33320  0.98400  Biso   1.000  C
  C4       1.0000 0.48500  0.41830  0.20850  Biso   1.000  C
  Cu3      1.0000 0.94366  0.09757  0.93470  Biso   1.000  Cu
  N3       1.0000 0.74860  0.24680  0.96190  Biso   1.000  N
  C5       1.0000 0.14190  0.16680  0.01600  Biso   1.000  C
  C6       1.0000 0.98500  0.08170  0.79150  Biso   1.000  C
  Cu4      1.0000 0.55634  0.40243  0.43470  Biso   1.000  Cu
  N4       1.0000 0.75140  0.25320  0.46190  Biso   1.000  N
  C7       1.0000 0.35810  0.33320  0.51600  Biso   1.000  C
  C8       1.0000 0.51500  0.41830  0.29150  Biso   1.000  C
  Cu5      1.0000 0.94366  0.90243  0.43470  Biso   1.000  Cu
  N5       1.0000 0.74860  0.75320  0.46190  Biso   1.000  N
  C9       1.0000 0.14190  0.83320  0.51600  Biso   1.000  C
  C10      1.0000 0.98500  0.91830  0.29150  Biso   1.000  C
  Cu6      1.0000 0.55634  0.59757  0.93470  Biso   1.000  Cu
  N6       1.0000 0.75140  0.74680  0.96190  Biso   1.000  N
  C11      1.0000 0.35810  0.66680  0.01600  Biso   1.000  C
  C12      1.0000 0.51500  0.58170  0.79150  Biso   1.000  C
  Cu7      1.0000 0.05634  0.90243  0.06530  Biso   1.000  Cu
  N7       1.0000 0.25140  0.75320  0.03810  Biso   1.000  N
  C13      1.0000 0.85810  0.83320  0.98400  Biso   1.000  C
  C14      1.0000 0.01500  0.91830  0.20850  Biso   1.000  C
  Cu8      1.0000 0.44366  0.59757  0.56530  Biso   1.000  Cu
  N8       1.0000 0.24860  0.74680  0.53810  Biso   1.000  N
  C15      1.0000 0.64190  0.66680  0.48400  Biso   1.000  C
  C16      1.0000 0.48500  0.58170  0.70850  Biso   1.000  C
