data_image0
_cell_length_a       33.237
_cell_length_b       9.719
_cell_length_c       18.423
_cell_angle_alpha    90
_cell_angle_beta     90.538
_cell_angle_gamma    90

_symmetry_space_group_name_H-M    "P 1"
_symmetry_int_tables_number       1

loop_
  _symmetry_equiv_pos_as_xyz
  'x, y, z'

loop_
  _atom_site_label
  _atom_site_occupancy
  _atom_site_fract_x
  _atom_site_fract_y
  _atom_site_fract_z
  _atom_site_thermal_displace_type
  _atom_site_B_iso_or_equiv
  _atom_site_type_symbol
  Zn1      1.0000 0.36268  0.70620  0.27978  Biso   1.000  Zn
  Zn2      1.0000 0.55534  0.79376  0.29322  Biso   1.000  Zn
  Zn3      1.0000 0.45896  0.75060  0.28967  Biso   1.000  Zn
  O1       1.0000 0.55580  0.70410  0.19840  Biso   1.000  O
  O2       1.0000 0.36480  0.81060  0.37660  Biso   1.000  O
  O3       1.0000 0.54970  0.33630  0.87420  Biso   1.000  O
  O4       1.0000 0.36930  0.17200  0.69720  Biso   1.000  O
  O5       1.0000 0.48220  0.32550  0.88090  Biso   1.000  O
  O6       1.0000 0.43640  0.18330  0.68910  Biso   1.000  O
  O7       1.0000 0.42440  0.87950  0.34960  Biso   1.000  O
  O8       1.0000 0.11270  0.33550  0.30270  Biso   1.000  O
  O9       1.0000 0.49260  0.62120  0.22460  Biso   1.000  O
  O10      1.0000 0.30750  0.65890  0.25670  Biso   1.000  O
  C1       1.0000 0.39590  0.87040  0.39110  Biso   1.000  C
  C2       1.0000 0.52240  0.64240  0.18400  Biso   1.000  C
  C3       1.0000 0.51810  0.43280  0.97830  Biso   1.000  C
  C4       1.0000 0.40150  0.07200  0.59910  Biso   1.000  C
  C5       1.0000 0.25050  0.53320  0.29100  Biso   1.000  C
  C6       1.0000 0.16940  0.47200  0.27600  Biso   1.000  C
  C7       1.0000 0.39900  0.93320  0.46530  Biso   1.000  C
  C8       1.0000 0.40190  0.14700  0.66610  Biso   1.000  C
  C9       1.0000 0.52220  0.56220  0.11300  Biso   1.000  C
  C10      1.0000 0.29320  0.56220  0.30060  Biso   1.000  C
  C11      1.0000 0.51540  0.36010  0.90450  Biso   1.000  C
  C12      1.0000 0.12390  0.42700  0.27600  Biso   1.000  C
  O11      1.0000 0.31540  0.48550  0.33630  Biso   1.000  O
  C13      1.0000 0.48580  0.49300  0.08860  Biso   1.000  C
  C14      1.0000 0.43220  0.99200  0.48290  Biso   1.000  C
  C15      1.0000 0.55150  0.49830  0.99680  Biso   1.000  C
  C16      1.0000 0.36530  0.01000  0.57270  Biso   1.000  C
  C17      1.0000 0.48470  0.44400  0.01910  Biso   1.000  C
  O12      1.0000 0.10280  0.48640  0.22600  Biso   1.000  O
  C18      1.0000 0.36730  0.94700  0.50710  Biso   1.000  C
  C19      1.0000 0.43570  0.06710  0.55230  Biso   1.000  C
  C20      1.0000 0.55660  0.56900  0.06680  Biso   1.000  C
  C21      1.0000 0.23640  0.39900  0.31200  Biso   1.000  C
  C22      1.0000 0.18290  0.59300  0.25890  Biso   1.000  C
  C23      1.0000 0.19300  0.36600  0.31000  Biso   1.000  C
  C24      1.0000 0.22070  0.62400  0.27080  Biso   1.000  C
  Zn4      1.0000 0.86268  0.20620  0.27978  Biso   1.000  Zn
  Zn5      1.0000 0.05534  0.29376  0.29322  Biso   1.000  Zn
  Zn6      1.0000 0.95896  0.25060  0.28967  Biso   1.000  Zn
  O13      1.0000 0.05580  0.20410  0.19840  Biso   1.000  O
  O14      1.0000 0.86480  0.31060  0.37660  Biso   1.000  O
  O15      1.0000 0.04970  0.83630  0.87420  Biso   1.000  O
  O16      1.0000 0.86930  0.67200  0.69720  Biso   1.000  O
  O17      1.0000 0.98220  0.82550  0.88090  Biso   1.000  O
  O18      1.0000 0.93640  0.68330  0.68910  Biso   1.000  O
  O19      1.0000 0.92440  0.37950  0.34960  Biso   1.000  O
  O20      1.0000 0.61270  0.83550  0.30270  Biso   1.000  O
  O21      1.0000 0.99260  0.12120  0.22460  Biso   1.000  O
  O22      1.0000 0.80750  0.15890  0.25670  Biso   1.000  O
  C25      1.0000 0.89590  0.37040  0.39110  Biso   1.000  C
  C26      1.0000 0.02240  0.14240  0.18400  Biso   1.000  C
  C27      1.0000 0.01810  0.93280  0.97830  Biso   1.000  C
  C28      1.0000 0.90150  0.57200  0.59910  Biso   1.000  C
  C29      1.0000 0.75050  0.03320  0.29100  Biso   1.000  C
  C30      1.0000 0.66940  0.97200  0.27600  Biso   1.000  C
  C31      1.0000 0.89900  0.43320  0.46530  Biso   1.000  C
  C32      1.0000 0.90190  0.64700  0.66610  Biso   1.000  C
  C33      1.0000 0.02220  0.06220  0.11300  Biso   1.000  C
  C34      1.0000 0.79320  0.06220  0.30060  Biso   1.000  C
  C35      1.0000 0.01540  0.86010  0.90450  Biso   1.000  C
  C36      1.0000 0.62390  0.92700  0.27600  Biso   1.000  C
  O23      1.0000 0.81540  0.98550  0.33630  Biso   1.000  O
  C37      1.0000 0.98580  0.99300  0.08860  Biso   1.000  C
  C38      1.0000 0.93220  0.49200  0.48290  Biso   1.000  C
  C39      1.0000 0.05150  0.99830  0.99680  Biso   1.000  C
  C40      1.0000 0.86530  0.51000  0.57270  Biso   1.000  C
  C41      1.0000 0.98470  0.94400  0.01910  Biso   1.000  C
  O24      1.0000 0.60280  0.98640  0.22600  Biso   1.000  O
  C42      1.0000 0.86730  0.44700  0.50710  Biso   1.000  C
  C43      1.0000 0.93570  0.56710  0.55230  Biso   1.000  C
  C44      1.0000 0.05660  0.06900  0.06680  Biso   1.000  C
  C45      1.0000 0.73640  0.89900  0.31200  Biso   1.000  C
  C46      1.0000 0.68290  0.09300  0.25890  Biso   1.000  C
  C47      1.0000 0.69300  0.86600  0.31000  Biso   1.000  C
  C48      1.0000 0.72070  0.12400  0.27080  Biso   1.000  C
  Zn7      1.0000 0.36268  0.29380  0.77978  Biso   1.000  Zn
  Zn8      1.0000 0.55534  0.20624  0.79322  Biso   1.000  Zn
  Zn9      1.0000 0.45896  0.24940  0.78967  Biso   1.000  Zn
  O25      1.0000 0.55580  0.29590  0.69840  Biso   1.000  O
  O26      1.0000 0.36480  0.18940  0.87660  Biso   1.000  O
  O27      1.0000 0.54970  0.66370  0.37420  Biso   1.000  O
  O28      1.0000 0.36930  0.82800  0.19720  Biso   1.000  O
  O29      1.0000 0.48220  0.67450  0.38090  Biso   1.000  O
  O30      1.0000 0.43640  0.81670  0.18910  Biso   1.000  O
  O31      1.0000 0.42440  0.12050  0.84960  Biso   1.000  O
  O32      1.0000 0.11270  0.66450  0.80270  Biso   1.000  O
  O33      1.0000 0.49260  0.37880  0.72460  Biso   1.000  O
  O34      1.0000 0.30750  0.34110  0.75670  Biso   1.000  O
  C49      1.0000 0.39590  0.12960  0.89110  Biso   1.000  C
  C50      1.0000 0.52240  0.35760  0.68400  Biso   1.000  C
  C51      1.0000 0.51810  0.56720  0.47830  Biso   1.000  C
  C52      1.0000 0.40150  0.92800  0.09910  Biso   1.000  C
  C53      1.0000 0.25050  0.46680  0.79100  Biso   1.000  C
  C54      1.0000 0.16940  0.52800  0.77600  Biso   1.000  C
  C55      1.0000 0.39900  0.06680  0.96530  Biso   1.000  C
  C56      1.0000 0.40190  0.85300  0.16610  Biso   1.000  C
  C57      1.0000 0.52220  0.43780  0.61300  Biso   1.000  C
  C58      1.0000 0.29320  0.43780  0.80060  Biso   1.000  C
  C59      1.0000 0.51540  0.63990  0.40450  Biso   1.000  C
  C60      1.0000 0.12390  0.57300  0.77600  Biso   1.000  C
  O35      1.0000 0.31540  0.51450  0.83630  Biso   1.000  O
  C61      1.0000 0.48580  0.50700  0.58860  Biso   1.000  C
  C62      1.0000 0.43220  0.00800  0.98290  Biso   1.000  C
  C63      1.0000 0.55150  0.50170  0.49680  Biso   1.000  C
  C64      1.0000 0.36530  0.99000  0.07270  Biso   1.000  C
  C65      1.0000 0.48470  0.55600  0.51910  Biso   1.000  C
  O36      1.0000 0.10280  0.51360  0.72600  Biso   1.000  O
  C66      1.0000 0.36730  0.05300  0.00710  Biso   1.000  C
  C67      1.0000 0.43570  0.93290  0.05230  Biso   1.000  C
  C68      1.0000 0.55660  0.43100  0.56680  Biso   1.000  C
  C69      1.0000 0.23640  0.60100  0.81200  Biso   1.000  C
  C70      1.0000 0.18290  0.40700  0.75890  Biso   1.000  C
  C71      1.0000 0.19300  0.63400  0.81000  Biso   1.000  C
  C72      1.0000 0.22070  0.37600  0.77080  Biso   1.000  C
  Zn10     1.0000 0.86268  0.79380  0.77978  Biso   1.000  Zn
  Zn11     1.0000 0.05534  0.70624  0.79322  Biso   1.000  Zn
  Zn12     1.0000 0.95896  0.74940  0.78967  Biso   1.000  Zn
  O37      1.0000 0.05580  0.79590  0.69840  Biso   1.000  O
  O38      1.0000 0.86480  0.68940  0.87660  Biso   1.000  O
  O39      1.0000 0.04970  0.16370  0.37420  Biso   1.000  O
  O40      1.0000 0.86930  0.32800  0.19720  Biso   1.000  O
  O41      1.0000 0.98220  0.17450  0.38090  Biso   1.000  O
  O42      1.0000 0.93640  0.31670  0.18910  Biso   1.000  O
  O43      1.0000 0.92440  0.62050  0.84960  Biso   1.000  O
  O44      1.0000 0.61270  0.16450  0.80270  Biso   1.000  O
  O45      1.0000 0.99260  0.87880  0.72460  Biso   1.000  O
  O46      1.0000 0.80750  0.84110  0.75670  Biso   1.000  O
  C73      1.0000 0.89590  0.62960  0.89110  Biso   1.000  C
  C74      1.0000 0.02240  0.85760  0.68400  Biso   1.000  C
  C75      1.0000 0.01810  0.06720  0.47830  Biso   1.000  C
  C76      1.0000 0.90150  0.42800  0.09910  Biso   1.000  C
  C77      1.0000 0.75050  0.96680  0.79100  Biso   1.000  C
  C78      1.0000 0.66940  0.02800  0.77600  Biso   1.000  C
  C79      1.0000 0.89900  0.56680  0.96530  Biso   1.000  C
  C80      1.0000 0.90190  0.35300  0.16610  Biso   1.000  C
  C81      1.0000 0.02220  0.93780  0.61300  Biso   1.000  C
  C82      1.0000 0.79320  0.93780  0.80060  Biso   1.000  C
  C83      1.0000 0.01540  0.13990  0.40450  Biso   1.000  C
  C84      1.0000 0.62390  0.07300  0.77600  Biso   1.000  C
  O47      1.0000 0.81540  0.01450  0.83630  Biso   1.000  O
  C85      1.0000 0.98580  0.00700  0.58860  Biso   1.000  C
  C86      1.0000 0.93220  0.50800  0.98290  Biso   1.000  C
  C87      1.0000 0.05150  0.00170  0.49680  Biso   1.000  C
  C88      1.0000 0.86530  0.49000  0.07270  Biso   1.000  C
  C89      1.0000 0.98470  0.05600  0.51910  Biso   1.000  C
  O48      1.0000 0.60280  0.01360  0.72600  Biso   1.000  O
  C90      1.0000 0.86730  0.55300  0.00710  Biso   1.000  C
  C91      1.0000 0.93570  0.43290  0.05230  Biso   1.000  C
  C92      1.0000 0.05660  0.93100  0.56680  Biso   1.000  C
  C93      1.0000 0.73640  0.10100  0.81200  Biso   1.000  C
  C94      1.0000 0.68290  0.90700  0.75890  Biso   1.000  C
  C95      1.0000 0.69300  0.13400  0.81000  Biso   1.000  C
  C96      1.0000 0.72070  0.87600  0.77080  Biso   1.000  C
