data_UFEVIL_clean
_audit_creation_date              2014-07-02
_audit_creation_method            'Materials Studio'
_symmetry_space_group_name_H-M    'P1'
_symmetry_Int_Tables_number       1
_symmetry_cell_setting            triclinic
loop_
_symmetry_equiv_pos_as_xyz
  x,y,z
_cell_length_a                    11.2337
_cell_length_b                    11.2337
_cell_length_c                    22.2450
_cell_angle_alpha                 96.2337
_cell_angle_beta                  96.2337
_cell_angle_gamma                 100.9810
loop_
_atom_site_label
_atom_site_type_symbol
_atom_site_fract_x
_atom_site_fract_y
_atom_site_fract_z
_atom_site_U_iso_or_equiv
_atom_site_adp_type
_atom_site_occupancy
Cd1    Cd    0.70165   0.84630   0.36744   0.01267  Uiso   1.00
Cd2    Cd    0.84629   0.70165   0.86744   0.01267  Uiso   1.00
H1     H     0.78810   0.29670   0.50220   0.01267  Uiso   1.00
H2     H     0.84270   0.61950   0.61170   0.01267  Uiso   1.00
H3     H     0.12040   0.44020   0.59880   0.01267  Uiso   1.00
H4     H     0.07880   0.23140   0.55170   0.01267  Uiso   1.00
H5     H     0.05130   0.26610   0.48440   0.01267  Uiso   1.00
H6     H     0.91480   0.09340   0.41300   0.01267  Uiso   1.00
H7     H     0.71910   0.91690   0.52510   0.01267  Uiso   1.00
H8     H     0.86340   0.09120   0.58720   0.01267  Uiso   1.00
H9     H     0.63680   0.51860   0.56810   0.01267  Uiso   1.00
H10    H     0.61230   0.38530   0.52970   0.01267  Uiso   1.00
H11    H     0.70250   0.70530   0.50770   0.01267  Uiso   1.00
H12    H     0.62060   0.53420   0.33940   0.01267  Uiso   1.00
H13    H     0.60200   0.37540   0.40830   0.01267  Uiso   1.00
H14    H     0.06520   0.72960   0.64030   0.01267  Uiso   1.00
H15    H     0.16630   0.64750   0.64670   0.01267  Uiso   1.00
H16    H     0.93430   0.74550   0.72970   0.01267  Uiso   1.00
H17    H     0.12130   0.59630   0.85030   0.01267  Uiso   1.00
H18    H     0.19890   0.55730   0.75230   0.01267  Uiso   1.00
H19    H     0.29670   0.78810   0.00220   0.01267  Uiso   1.00
H20    H     0.61950   0.84270   0.11170   0.01267  Uiso   1.00
H21    H     0.44020   0.12040   0.09880   0.01267  Uiso   1.00
H22    H     0.23140   0.07880   0.05170   0.01267  Uiso   1.00
H23    H     0.26610   0.05130   0.98440   0.01267  Uiso   1.00
H24    H     0.09340   0.91480   0.91300   0.01267  Uiso   1.00
H25    H     0.91690   0.71910   0.02510   0.01267  Uiso   1.00
H26    H     0.09120   0.86340   0.08720   0.01267  Uiso   1.00
H27    H     0.51860   0.63680   0.06810   0.01267  Uiso   1.00
H28    H     0.38530   0.61230   0.02970   0.01267  Uiso   1.00
H29    H     0.70530   0.70250   0.00770   0.01267  Uiso   1.00
H30    H     0.53420   0.62060   0.83940   0.01267  Uiso   1.00
H31    H     0.37540   0.60200   0.90830   0.01267  Uiso   1.00
H32    H     0.72960   0.06520   0.14030   0.01267  Uiso   1.00
H33    H     0.64750   0.16630   0.14670   0.01267  Uiso   1.00
H34    H     0.74550   0.93430   0.22970   0.01267  Uiso   1.00
H35    H     0.59630   0.12130   0.35030   0.01267  Uiso   1.00
H36    H     0.55730   0.19890   0.25230   0.01267  Uiso   1.00
C1     C     0.96111   0.35131   0.54672   0.01267  Uiso   1.00
C2     C     0.84067   0.35953   0.53026   0.01267  Uiso   1.00
C3     C     0.79602   0.45944   0.55466   0.01267  Uiso   1.00
C4     C     0.87338   0.55176   0.59495   0.01267  Uiso   1.00
C5     C     0.99531   0.54671   0.61130   0.01267  Uiso   1.00
C6     C     0.03771   0.44543   0.58731   0.01267  Uiso   1.00
C7     C     0.01356   0.24488   0.52103   0.01267  Uiso   1.00
C8     C     0.88298   0.07068   0.44890   0.01267  Uiso   1.00
C9     C     0.77745   0.97515   0.50997   0.01267  Uiso   1.00
C10    C     0.85571   0.07061   0.54423   0.01267  Uiso   1.00
C11    C     0.66494   0.46812   0.53538   0.01267  Uiso   1.00
C12    C     0.67941   0.64281   0.47374   0.01267  Uiso   1.00
C13    C     0.63520   0.54930   0.38265   0.01267  Uiso   1.00
C14    C     0.62416   0.46138   0.42005   0.01267  Uiso   1.00
C15    C     0.08100   0.65142   0.65273   0.01267  Uiso   1.00
C16    C     0.99064   0.70236   0.74794   0.01267  Uiso   1.00
C17    C     0.09218   0.62162   0.81301   0.01267  Uiso   1.00
C18    C     0.13543   0.59997   0.75958   0.01267  Uiso   1.00
C19    C     0.35131   0.96111   0.04672   0.01267  Uiso   1.00
C20    C     0.35953   0.84067   0.03026   0.01267  Uiso   1.00
C21    C     0.45944   0.79602   0.05466   0.01267  Uiso   1.00
C22    C     0.55176   0.87338   0.09495   0.01267  Uiso   1.00
C23    C     0.54671   0.99531   0.11130   0.01267  Uiso   1.00
C24    C     0.44543   0.03771   0.08731   0.01267  Uiso   1.00
C25    C     0.24488   0.01356   0.02103   0.01267  Uiso   1.00
C26    C     0.07068   0.88298   0.94890   0.01267  Uiso   1.00
C27    C     0.97515   0.77745   0.00997   0.01267  Uiso   1.00
C28    C     0.07061   0.85571   0.04423   0.01267  Uiso   1.00
C29    C     0.46812   0.66494   0.03538   0.01267  Uiso   1.00
C30    C     0.64281   0.67941   0.97374   0.01267  Uiso   1.00
C31    C     0.54930   0.63520   0.88265   0.01267  Uiso   1.00
C32    C     0.46138   0.62416   0.92005   0.01267  Uiso   1.00
C33    C     0.65142   0.08100   0.15273   0.01267  Uiso   1.00
C34    C     0.70236   0.99064   0.24794   0.01267  Uiso   1.00
C35    C     0.62162   0.09218   0.31301   0.01267  Uiso   1.00
C36    C     0.59997   0.13543   0.25958   0.01267  Uiso   1.00
N1     N     0.92193   0.13193   0.50463   0.01267  Uiso   1.00
N2     N     0.79522   0.97518   0.44970   0.01267  Uiso   1.00
N3     N     0.65176   0.52228   0.47837   0.01267  Uiso   1.00
N4     N     0.67056   0.66336   0.41614   0.01267  Uiso   1.00
N5     N     0.06937   0.65163   0.71776   0.01267  Uiso   1.00
N6     N     0.00050   0.68552   0.80583   0.01267  Uiso   1.00
N7     N     0.13193   0.92193   0.00463   0.01267  Uiso   1.00
N8     N     0.97518   0.79522   0.94970   0.01267  Uiso   1.00
N9     N     0.52228   0.65176   0.97837   0.01267  Uiso   1.00
N10    N     0.66336   0.67056   0.91614   0.01267  Uiso   1.00
N11    N     0.65163   0.06937   0.21776   0.01267  Uiso   1.00
N12    N     0.68552   0.00050   0.30583   0.01267  Uiso   1.00
Cd3    Cd    0.15370   0.29835   0.13256   0.01267  Uiso   1.00
Cd4    Cd    0.29835   0.15371   0.63256   0.01267  Uiso   1.00
H37    H     0.70330   0.21190   0.99780   0.01267  Uiso   1.00
H38    H     0.38050   0.15730   0.88830   0.01267  Uiso   1.00
H39    H     0.55980   0.87960   0.90120   0.01267  Uiso   1.00
H40    H     0.76860   0.92120   0.94830   0.01267  Uiso   1.00
H41    H     0.73390   0.94870   0.01560   0.01267  Uiso   1.00
H42    H     0.90660   0.08520   0.08700   0.01267  Uiso   1.00
H43    H     0.08310   0.28090   0.97490   0.01267  Uiso   1.00
H44    H     0.90880   0.13660   0.91280   0.01267  Uiso   1.00
H45    H     0.48140   0.36320   0.93190   0.01267  Uiso   1.00
H46    H     0.61470   0.38770   0.97030   0.01267  Uiso   1.00
H47    H     0.29470   0.29750   0.99230   0.01267  Uiso   1.00
H48    H     0.46580   0.37940   0.16060   0.01267  Uiso   1.00
H49    H     0.62460   0.39800   0.09170   0.01267  Uiso   1.00
H50    H     0.27040   0.93480   0.85970   0.01267  Uiso   1.00
H51    H     0.35250   0.83370   0.85330   0.01267  Uiso   1.00
H52    H     0.25450   0.06570   0.77030   0.01267  Uiso   1.00
H53    H     0.40370   0.87870   0.64970   0.01267  Uiso   1.00
H54    H     0.44270   0.80110   0.74770   0.01267  Uiso   1.00
H55    H     0.21190   0.70330   0.49780   0.01267  Uiso   1.00
H56    H     0.15730   0.38050   0.38830   0.01267  Uiso   1.00
H57    H     0.87960   0.55980   0.40120   0.01267  Uiso   1.00
H58    H     0.92120   0.76860   0.44830   0.01267  Uiso   1.00
H59    H     0.94870   0.73390   0.51560   0.01267  Uiso   1.00
H60    H     0.08520   0.90660   0.58700   0.01267  Uiso   1.00
H61    H     0.28090   0.08310   0.47490   0.01267  Uiso   1.00
H62    H     0.13660   0.90880   0.41280   0.01267  Uiso   1.00
H63    H     0.36320   0.48140   0.43190   0.01267  Uiso   1.00
H64    H     0.38770   0.61470   0.47030   0.01267  Uiso   1.00
H65    H     0.29750   0.29470   0.49230   0.01267  Uiso   1.00
H66    H     0.37940   0.46580   0.66060   0.01267  Uiso   1.00
H67    H     0.39800   0.62460   0.59170   0.01267  Uiso   1.00
H68    H     0.93480   0.27040   0.35970   0.01267  Uiso   1.00
H69    H     0.83370   0.35250   0.35330   0.01267  Uiso   1.00
H70    H     0.06570   0.25450   0.27030   0.01267  Uiso   1.00
H71    H     0.87870   0.40370   0.14970   0.01267  Uiso   1.00
H72    H     0.80110   0.44270   0.24770   0.01267  Uiso   1.00
C37    C     0.64869   0.03889   0.95328   0.01267  Uiso   1.00
C38    C     0.64047   0.15933   0.96974   0.01267  Uiso   1.00
C39    C     0.54056   0.20398   0.94534   0.01267  Uiso   1.00
C40    C     0.44824   0.12662   0.90505   0.01267  Uiso   1.00
C41    C     0.45329   0.00469   0.88870   0.01267  Uiso   1.00
C42    C     0.55457   0.96229   0.91269   0.01267  Uiso   1.00
C43    C     0.75512   0.98644   0.97897   0.01267  Uiso   1.00
C44    C     0.92932   0.11702   0.05110   0.01267  Uiso   1.00
C45    C     0.02485   0.22255   0.99003   0.01267  Uiso   1.00
C46    C     0.92939   0.14429   0.95577   0.01267  Uiso   1.00
C47    C     0.53188   0.33506   0.96462   0.01267  Uiso   1.00
C48    C     0.35719   0.32059   0.02626   0.01267  Uiso   1.00
C49    C     0.45070   0.36480   0.11735   0.01267  Uiso   1.00
C50    C     0.53862   0.37584   0.07995   0.01267  Uiso   1.00
C51    C     0.34858   0.91900   0.84727   0.01267  Uiso   1.00
C52    C     0.29764   0.00936   0.75206   0.01267  Uiso   1.00
C53    C     0.37838   0.90782   0.68699   0.01267  Uiso   1.00
C54    C     0.40003   0.86457   0.74042   0.01267  Uiso   1.00
C55    C     0.03889   0.64869   0.45328   0.01267  Uiso   1.00
C56    C     0.15933   0.64047   0.46974   0.01267  Uiso   1.00
C57    C     0.20398   0.54056   0.44534   0.01267  Uiso   1.00
C58    C     0.12662   0.44824   0.40505   0.01267  Uiso   1.00
C59    C     0.00469   0.45329   0.38870   0.01267  Uiso   1.00
C60    C     0.96229   0.55457   0.41269   0.01267  Uiso   1.00
C61    C     0.98644   0.75512   0.47897   0.01267  Uiso   1.00
C62    C     0.11702   0.92932   0.55110   0.01267  Uiso   1.00
C63    C     0.22255   0.02485   0.49003   0.01267  Uiso   1.00
C64    C     0.14429   0.92939   0.45577   0.01267  Uiso   1.00
C65    C     0.33506   0.53188   0.46462   0.01267  Uiso   1.00
C66    C     0.32059   0.35719   0.52626   0.01267  Uiso   1.00
C67    C     0.36480   0.45070   0.61735   0.01267  Uiso   1.00
C68    C     0.37584   0.53862   0.57995   0.01267  Uiso   1.00
C69    C     0.91900   0.34858   0.34727   0.01267  Uiso   1.00
C70    C     0.00936   0.29764   0.25206   0.01267  Uiso   1.00
C71    C     0.90782   0.37838   0.18699   0.01267  Uiso   1.00
C72    C     0.86457   0.40003   0.24042   0.01267  Uiso   1.00
N13    N     0.86807   0.07807   0.99537   0.01267  Uiso   1.00
N14    N     0.02482   0.20478   0.05030   0.01267  Uiso   1.00
N15    N     0.47772   0.34824   0.02163   0.01267  Uiso   1.00
N16    N     0.33664   0.32944   0.08386   0.01267  Uiso   1.00
N17    N     0.34837   0.93063   0.78224   0.01267  Uiso   1.00
N18    N     0.31448   0.99950   0.69417   0.01267  Uiso   1.00
N19    N     0.07807   0.86807   0.49537   0.01267  Uiso   1.00
N20    N     0.20478   0.02482   0.55030   0.01267  Uiso   1.00
N21    N     0.34824   0.47772   0.52163   0.01267  Uiso   1.00
N22    N     0.32944   0.33664   0.58386   0.01267  Uiso   1.00
N23    N     0.93063   0.34837   0.28224   0.01267  Uiso   1.00
N24    N     0.99950   0.31448   0.19417   0.01267  Uiso   1.00
