data_UFEXEJ_clean
_audit_creation_date              2014-07-02
_audit_creation_method            'Materials Studio'
_symmetry_space_group_name_H-M    'P1'
_symmetry_Int_Tables_number       1
_symmetry_cell_setting            triclinic
loop_
_symmetry_equiv_pos_as_xyz
  x,y,z
_cell_length_a                    7.0012
_cell_length_b                    16.0020
_cell_length_c                    16.0020
_cell_angle_alpha                 62.0892
_cell_angle_beta                  81.6141
_cell_angle_gamma                 98.3859
loop_
_atom_site_label
_atom_site_type_symbol
_atom_site_fract_x
_atom_site_fract_y
_atom_site_fract_z
_atom_site_U_iso_or_equiv
_atom_site_adp_type
_atom_site_occupancy
Dy1    Dy    0.28898   0.06436   0.84684   0.01267  Uiso   1.00
Dy2    Dy    0.13582   0.84684   0.08880   0.01267  Uiso   1.00
Dy3    Dy    0.22462   0.08880   0.06436   0.01267  Uiso   1.00
Dy4    Dy    0.71102   0.93564   0.15316   0.01267  Uiso   1.00
Dy5    Dy    0.86418   0.15316   0.91120   0.01267  Uiso   1.00
Dy6    Dy    0.77538   0.91120   0.93564   0.01267  Uiso   1.00
Cu1    Cu    0.50000   1.00000   0.50000   0.01267  Uiso   1.00
Cu2    Cu    0.00000   0.50000   0.50000   0.01267  Uiso   1.00
Cu3    Cu    0.50000   0.50000   0.00000   0.01267  Uiso   1.00
H1     H     0.84540   0.91120   0.57710   0.01267  Uiso   1.00
H2     H     0.95600   0.87510   0.71560   0.01267  Uiso   1.00
H3     H     0.42250   0.57710   0.51170   0.01267  Uiso   1.00
H4     H     0.67160   0.71560   0.40930   0.01267  Uiso   1.00
H5     H     0.93420   0.51170   0.91120   0.01267  Uiso   1.00
H6     H     0.08090   0.40930   0.87510   0.01267  Uiso   1.00
H7     H     0.15460   0.08880   0.42290   0.01267  Uiso   1.00
H8     H     0.04400   0.12490   0.28440   0.01267  Uiso   1.00
H9     H     0.57750   0.42290   0.48830   0.01267  Uiso   1.00
H10    H     0.32840   0.28440   0.59070   0.01267  Uiso   1.00
H11    H     0.06580   0.48830   0.08880   0.01267  Uiso   1.00
H12    H     0.91910   0.59070   0.12490   0.01267  Uiso   1.00
C1     C     0.61450   0.97010   0.75660   0.01267  Uiso   1.00
C2     C     0.54110   0.98740   0.67370   0.01267  Uiso   1.00
C3     C     0.78280   0.92480   0.62310   0.01267  Uiso   1.00
C4     C     0.85040   0.90480   0.70540   0.01267  Uiso   1.00
C5     C     0.36750   0.03030   0.64880   0.01267  Uiso   1.00
C6     C     0.37110   0.75660   0.27330   0.01267  Uiso   1.00
C7     C     0.21480   0.67370   0.33890   0.01267  Uiso   1.00
C8     C     0.40590   0.62310   0.45210   0.01267  Uiso   1.00
C9     C     0.55580   0.70540   0.38980   0.01267  Uiso   1.00
C10    C     0.01630   0.64880   0.32090   0.01267  Uiso   1.00
C11    C     0.64440   0.27330   0.97010   0.01267  Uiso   1.00
C12    C     0.55370   0.33890   0.98740   0.01267  Uiso   1.00
C13    C     0.85800   0.45210   0.92480   0.01267  Uiso   1.00
C14    C     0.94560   0.38980   0.90480   0.01267  Uiso   1.00
C15    C     0.33720   0.32090   0.03030   0.01267  Uiso   1.00
C16    C     0.38550   0.02990   0.24340   0.01267  Uiso   1.00
C17    C     0.45890   0.01260   0.32630   0.01267  Uiso   1.00
C18    C     0.21720   0.07520   0.37690   0.01267  Uiso   1.00
C19    C     0.14960   0.09520   0.29460   0.01267  Uiso   1.00
C20    C     0.63250   0.96970   0.35120   0.01267  Uiso   1.00
C21    C     0.62890   0.24340   0.72670   0.01267  Uiso   1.00
C22    C     0.78520   0.32630   0.66110   0.01267  Uiso   1.00
C23    C     0.59410   0.37690   0.54790   0.01267  Uiso   1.00
C24    C     0.44420   0.29460   0.61020   0.01267  Uiso   1.00
C25    C     0.98370   0.35120   0.67910   0.01267  Uiso   1.00
C26    C     0.35560   0.72670   0.02990   0.01267  Uiso   1.00
C27    C     0.44630   0.66110   0.01260   0.01267  Uiso   1.00
C28    C     0.14200   0.54790   0.07520   0.01267  Uiso   1.00
C29    C     0.05440   0.61020   0.09520   0.01267  Uiso   1.00
C30    C     0.66280   0.67910   0.96970   0.01267  Uiso   1.00
N1     N     0.76950   0.92670   0.77080   0.01267  Uiso   1.00
N2     N     0.62660   0.96410   0.60990   0.01267  Uiso   1.00
N3     N     0.54030   0.77080   0.30250   0.01267  Uiso   1.00
N4     N     0.23650   0.60990   0.42600   0.01267  Uiso   1.00
N5     N     0.84280   0.30250   0.92670   0.01267  Uiso   1.00
N6     N     0.66250   0.42600   0.96410   0.01267  Uiso   1.00
N7     N     0.23050   0.07330   0.22920   0.01267  Uiso   1.00
N8     N     0.37340   0.03590   0.39010   0.01267  Uiso   1.00
N9     N     0.45970   0.22920   0.69750   0.01267  Uiso   1.00
N10    N     0.76350   0.39010   0.57400   0.01267  Uiso   1.00
N11    N     0.15720   0.69750   0.07330   0.01267  Uiso   1.00
N12    N     0.33750   0.57400   0.03590   0.01267  Uiso   1.00
O1     O     0.54828   0.99113   0.82149   0.01267  Uiso   1.00
O2     O     0.27199   0.05107   0.70500   0.01267  Uiso   1.00
O3     O     0.32417   0.04037   0.57136   0.01267  Uiso   1.00
O4     O     0.10676   0.90130   0.92372   0.01267  Uiso   1.00
O5     O     0.36977   0.82149   0.18738   0.01267  Uiso   1.00
O6     O     0.97699   0.70500   0.24393   0.01267  Uiso   1.00
O7     O     0.89553   0.57136   0.38827   0.01267  Uiso   1.00
O8     O     0.03048   0.92372   0.17498   0.01267  Uiso   1.00
O9     O     0.55715   0.18738   0.99113   0.01267  Uiso   1.00
O10    O     0.22092   0.24393   0.05107   0.01267  Uiso   1.00
O11    O     0.28380   0.38827   0.04037   0.01267  Uiso   1.00
O12    O     0.20546   0.17498   0.90130   0.01267  Uiso   1.00
O13    O     0.45172   0.00887   0.17851   0.01267  Uiso   1.00
O14    O     0.72801   0.94893   0.29500   0.01267  Uiso   1.00
O15    O     0.67583   0.95963   0.42864   0.01267  Uiso   1.00
O16    O     0.89324   0.09870   0.07628   0.01267  Uiso   1.00
O17    O     0.63023   0.17851   0.81262   0.01267  Uiso   1.00
O18    O     0.02301   0.29500   0.75607   0.01267  Uiso   1.00
O19    O     0.10447   0.42864   0.61173   0.01267  Uiso   1.00
O20    O     0.96952   0.07628   0.82502   0.01267  Uiso   1.00
O21    O     0.44285   0.81262   0.00887   0.01267  Uiso   1.00
O22    O     0.77908   0.75607   0.94893   0.01267  Uiso   1.00
O23    O     0.71620   0.61173   0.95963   0.01267  Uiso   1.00
O24    O     0.79454   0.82502   0.09870   0.01267  Uiso   1.00
O25    O     0.31923  -0.00000   0.00000   0.01267  Uiso   1.00
O26    O     0.68077   1.00000   0.00000   0.01267  Uiso   1.00
O27    O     0.00000   0.00000   0.00000   0.01267  Uiso   1.00
