data_UFEXIN_clean
_audit_creation_date              2014-07-02
_audit_creation_method            'Materials Studio'
_symmetry_space_group_name_H-M    'P1'
_symmetry_Int_Tables_number       1
_symmetry_cell_setting            triclinic
loop_
_symmetry_equiv_pos_as_xyz
  x,y,z
_cell_length_a                    6.9816
_cell_length_b                    15.9669
_cell_length_c                    15.9669
_cell_angle_alpha                 62.0867
_cell_angle_beta                  81.6192
_cell_angle_gamma                 98.3808
loop_
_atom_site_label
_atom_site_type_symbol
_atom_site_fract_x
_atom_site_fract_y
_atom_site_fract_z
_atom_site_U_iso_or_equiv
_atom_site_adp_type
_atom_site_occupancy
Ho1    Ho    0.28915   0.06431   0.84704   0.01267  Uiso   1.00
Ho2    Ho    0.13619   0.84704   0.08865   0.01267  Uiso   1.00
Ho3    Ho    0.22484   0.08865   0.06431   0.01267  Uiso   1.00
Ho4    Ho    0.71085   0.93569   0.15296   0.01267  Uiso   1.00
Ho5    Ho    0.86381   0.15296   0.91135   0.01267  Uiso   1.00
Ho6    Ho    0.77516   0.91135   0.93569   0.01267  Uiso   1.00
Cu1    Cu    0.50000  -0.00000   0.50000   0.01267  Uiso   1.00
Cu2    Cu    0.00000   0.50000   0.50000   0.01267  Uiso   1.00
Cu3    Cu    0.50000   0.50000   0.00000   0.01267  Uiso   1.00
H1     H     0.84580   0.91000   0.57780   0.01267  Uiso   1.00
H2     H     0.95880   0.87550   0.71610   0.01267  Uiso   1.00
H3     H     0.42360   0.57780   0.51220   0.01267  Uiso   1.00
H4     H     0.67490   0.71610   0.40840   0.01267  Uiso   1.00
H5     H     0.93580   0.51220   0.91000   0.01267  Uiso   1.00
H6     H     0.08330   0.40840   0.87550   0.01267  Uiso   1.00
H7     H     0.15420   0.09000   0.42220   0.01267  Uiso   1.00
H8     H     0.04120   0.12450   0.28390   0.01267  Uiso   1.00
H9     H     0.57640   0.42220   0.48780   0.01267  Uiso   1.00
H10    H     0.32510   0.28390   0.59160   0.01267  Uiso   1.00
H11    H     0.06420   0.48780   0.09000   0.01267  Uiso   1.00
H12    H     0.91670   0.59160   0.12450   0.01267  Uiso   1.00
C1     C     0.61450   0.96990   0.75740   0.01267  Uiso   1.00
C2     C     0.54060   0.98700   0.67430   0.01267  Uiso   1.00
C3     C     0.78360   0.92420   0.62350   0.01267  Uiso   1.00
C4     C     0.85190   0.90450   0.70610   0.01267  Uiso   1.00
C5     C     0.36650   0.02900   0.65000   0.01267  Uiso   1.00
C6     C     0.37190   0.75740   0.27270   0.01267  Uiso   1.00
C7     C     0.21490   0.67430   0.33870   0.01267  Uiso   1.00
C8     C     0.40710   0.62350   0.45230   0.01267  Uiso   1.00
C9     C     0.55800   0.70610   0.38940   0.01267  Uiso   1.00
C10    C     0.01650   0.65000   0.32100   0.01267  Uiso   1.00
C11    C     0.64460   0.27270   0.96990   0.01267  Uiso   1.00
C12    C     0.55360   0.33870   0.98700   0.01267  Uiso   1.00
C13    C     0.85940   0.45230   0.92420   0.01267  Uiso   1.00
C14    C     0.94740   0.38940   0.90450   0.01267  Uiso   1.00
C15    C     0.33750   0.32100   0.02900   0.01267  Uiso   1.00
C16    C     0.38550   0.03010   0.24260   0.01267  Uiso   1.00
C17    C     0.45940   0.01300   0.32570   0.01267  Uiso   1.00
C18    C     0.21640   0.07580   0.37650   0.01267  Uiso   1.00
C19    C     0.14810   0.09550   0.29390   0.01267  Uiso   1.00
C20    C     0.63350   0.97100   0.35000   0.01267  Uiso   1.00
C21    C     0.62810   0.24260   0.72730   0.01267  Uiso   1.00
C22    C     0.78510   0.32570   0.66130   0.01267  Uiso   1.00
C23    C     0.59290   0.37650   0.54770   0.01267  Uiso   1.00
C24    C     0.44200   0.29390   0.61060   0.01267  Uiso   1.00
C25    C     0.98350   0.35000   0.67900   0.01267  Uiso   1.00
C26    C     0.35540   0.72730   0.03010   0.01267  Uiso   1.00
C27    C     0.44640   0.66130   0.01300   0.01267  Uiso   1.00
C28    C     0.14060   0.54770   0.07580   0.01267  Uiso   1.00
C29    C     0.05260   0.61060   0.09550   0.01267  Uiso   1.00
C30    C     0.66250   0.67900   0.97100   0.01267  Uiso   1.00
N1     N     0.76926   0.92606   0.77188   0.01267  Uiso   1.00
N2     N     0.62760   0.96370   0.61020   0.01267  Uiso   1.00
N3     N     0.54114   0.77188   0.30206   0.01267  Uiso   1.00
N4     N     0.23780   0.61020   0.42610   0.01267  Uiso   1.00
N5     N     0.84320   0.30206   0.92606   0.01267  Uiso   1.00
N6     N     0.66390   0.42610   0.96370   0.01267  Uiso   1.00
N7     N     0.23074   0.07394   0.22812   0.01267  Uiso   1.00
N8     N     0.37240   0.03630   0.38980   0.01267  Uiso   1.00
N9     N     0.45886   0.22812   0.69794   0.01267  Uiso   1.00
N10    N     0.76220   0.38980   0.57390   0.01267  Uiso   1.00
N11    N     0.15680   0.69794   0.07394   0.01267  Uiso   1.00
N12    N     0.33610   0.57390   0.03630   0.01267  Uiso   1.00
O1     O     0.54781   0.99116   0.82273   0.01267  Uiso   1.00
O2     O     0.27046   0.05082   0.70554   0.01267  Uiso   1.00
O3     O     0.32350   0.04090   0.57130   0.01267  Uiso   1.00
O4     O     0.20406   0.17334   0.90186   0.01267  Uiso   1.00
O5     O     0.37054   0.82273   0.18611   0.01267  Uiso   1.00
O6     O     0.97600   0.70554   0.24364   0.01267  Uiso   1.00
O7     O     0.89480   0.57130   0.38780   0.01267  Uiso   1.00
O8     O     0.10592   0.90186   0.92480   0.01267  Uiso   1.00
O9     O     0.55665   0.18611   0.99116   0.01267  Uiso   1.00
O10    O     0.21964   0.24364   0.05082   0.01267  Uiso   1.00
O11    O     0.28260   0.38780   0.04090   0.01267  Uiso   1.00
O12    O     0.03072   0.92480   0.17334   0.01267  Uiso   1.00
O13    O     0.45219   0.00884   0.17727   0.01267  Uiso   1.00
O14    O     0.72954   0.94918   0.29446   0.01267  Uiso   1.00
O15    O     0.67650   0.95910   0.42870   0.01267  Uiso   1.00
O16    O     0.79594   0.82666   0.09814   0.01267  Uiso   1.00
O17    O     0.62946   0.17727   0.81389   0.01267  Uiso   1.00
O18    O     0.02400   0.29446   0.75636   0.01267  Uiso   1.00
O19    O     0.10520   0.42870   0.61220   0.01267  Uiso   1.00
O20    O     0.89408   0.09814   0.07520   0.01267  Uiso   1.00
O21    O     0.44335   0.81389   0.00884   0.01267  Uiso   1.00
O22    O     0.78036   0.75636   0.94918   0.01267  Uiso   1.00
O23    O     0.71740   0.61220   0.95910   0.01267  Uiso   1.00
O24    O     0.96928   0.07520   0.82666   0.01267  Uiso   1.00
O25    O     0.32017   1.00000   0.00000   0.01267  Uiso   1.00
O26    O     0.67983   1.00000   0.00000   0.01267  Uiso   1.00
O27    O     0.00000   0.00000   0.00000   0.01267  Uiso   1.00
