data_image0
_cell_length_a       7.73
_cell_length_b       13.627
_cell_length_c       14.064
_cell_angle_alpha    90
_cell_angle_beta     90
_cell_angle_gamma    90

_symmetry_space_group_name_H-M    "P 1"
_symmetry_int_tables_number       1

loop_
  _symmetry_equiv_pos_as_xyz
  'x, y, z'

loop_
  _atom_site_label
  _atom_site_occupancy
  _atom_site_fract_x
  _atom_site_fract_y
  _atom_site_fract_z
  _atom_site_thermal_displace_type
  _atom_site_B_iso_or_equiv
  _atom_site_type_symbol
  C1       1.0000 0.44160  0.18650  0.26720  Biso   1.000  C
  N1       1.0000 0.54740  0.23250  0.30170  Biso   1.000  N
  C2       1.0000 0.43850  0.00260  0.15870  Biso   1.000  C
  N2       1.0000 0.54700  0.44970  0.36170  Biso   1.000  N
  C3       1.0000 0.55840  0.31350  0.76720  Biso   1.000  C
  N3       1.0000 0.45260  0.26750  0.80170  Biso   1.000  N
  C4       1.0000 0.56150  0.49740  0.65870  Biso   1.000  C
  N4       1.0000 0.45300  0.05030  0.86170  Biso   1.000  N
  C5       1.0000 0.94160  0.81350  0.73280  Biso   1.000  C
  N5       1.0000 0.04740  0.76750  0.69830  Biso   1.000  N
  C6       1.0000 0.93850  0.99740  0.84130  Biso   1.000  C
  N6       1.0000 0.04700  0.55030  0.63830  Biso   1.000  N
  C7       1.0000 0.05840  0.68650  0.23280  Biso   1.000  C
  N7       1.0000 0.95260  0.73250  0.19830  Biso   1.000  N
  C8       1.0000 0.06150  0.50260  0.34130  Biso   1.000  C
  N8       1.0000 0.95300  0.94970  0.13830  Biso   1.000  N
  C9       1.0000 0.55840  0.81350  0.73280  Biso   1.000  C
  N9       1.0000 0.45260  0.76750  0.69830  Biso   1.000  N
  C10      1.0000 0.56150  0.99740  0.84130  Biso   1.000  C
  N10      1.0000 0.45300  0.55030  0.63830  Biso   1.000  N
  C11      1.0000 0.44160  0.68650  0.23280  Biso   1.000  C
  N11      1.0000 0.54740  0.73250  0.19830  Biso   1.000  N
  C12      1.0000 0.43850  0.50260  0.34130  Biso   1.000  C
  N12      1.0000 0.54700  0.94970  0.13830  Biso   1.000  N
  C13      1.0000 0.05840  0.18650  0.26720  Biso   1.000  C
  N13      1.0000 0.95260  0.23250  0.30170  Biso   1.000  N
  C14      1.0000 0.06150  0.00260  0.15870  Biso   1.000  C
  N14      1.0000 0.95300  0.44970  0.36170  Biso   1.000  N
  C15      1.0000 0.94160  0.31350  0.76720  Biso   1.000  C
  N15      1.0000 0.04740  0.26750  0.80170  Biso   1.000  N
  C16      1.0000 0.93850  0.49740  0.65870  Biso   1.000  C
  N16      1.0000 0.04700  0.05030  0.86170  Biso   1.000  N
  Cr1      1.0000 0.25000  0.09631  0.20928  Biso   1.000  Cr
  C17      1.0000 0.25000  0.16700  0.07780  Biso   1.000  C
  C18      1.0000 0.25000  0.01750  0.32940  Biso   1.000  C
  N17      1.0000 0.25000  0.97040  0.39860  Biso   1.000  N
  Cr2      1.0000 0.75000  0.40369  0.70928  Biso   1.000  Cr
  C19      1.0000 0.75000  0.33300  0.57780  Biso   1.000  C
  C20      1.0000 0.75000  0.48250  0.82940  Biso   1.000  C
  N18      1.0000 0.75000  0.52960  0.89860  Biso   1.000  N
  Cr3      1.0000 0.75000  0.90369  0.79072  Biso   1.000  Cr
  C21      1.0000 0.75000  0.83300  0.92220  Biso   1.000  C
  C22      1.0000 0.75000  0.98250  0.67060  Biso   1.000  C
  N19      1.0000 0.75000  0.02960  0.60140  Biso   1.000  N
  Cr4      1.0000 0.25000  0.59631  0.29072  Biso   1.000  Cr
  C23      1.0000 0.25000  0.66700  0.42220  Biso   1.000  C
  C24      1.0000 0.25000  0.51750  0.17060  Biso   1.000  C
  N20      1.0000 0.25000  0.47040  0.10140  Biso   1.000  N
  Mn1      1.0000 0.75000  0.33876  0.34484  Biso   1.000  Mn
  N21      1.0000 0.75000  0.30390  0.50180  Biso   1.000  N
  Mn2      1.0000 0.25000  0.16124  0.84484  Biso   1.000  Mn
  N22      1.0000 0.25000  0.19610  0.00180  Biso   1.000  N
  Mn3      1.0000 0.25000  0.66124  0.65516  Biso   1.000  Mn
  N23      1.0000 0.25000  0.69610  0.49820  Biso   1.000  N
  Mn4      1.0000 0.75000  0.83876  0.15516  Biso   1.000  Mn
  N24      1.0000 0.75000  0.80390  0.99820  Biso   1.000  N
