data_image0
_cell_length_a       7.7245
_cell_length_b       13.609
_cell_length_c       14.061
_cell_angle_alpha    90
_cell_angle_beta     90
_cell_angle_gamma    90

_symmetry_space_group_name_H-M    "P 1"
_symmetry_int_tables_number       1

loop_
  _symmetry_equiv_pos_as_xyz
  'x, y, z'

loop_
  _atom_site_label
  _atom_site_occupancy
  _atom_site_fract_x
  _atom_site_fract_y
  _atom_site_fract_z
  _atom_site_thermal_displace_type
  _atom_site_B_iso_or_equiv
  _atom_site_type_symbol
  C1       1.0000 0.05760  0.18700  0.26750  Biso   1.000  C
  N1       1.0000 0.95180  0.23260  0.30170  Biso   1.000  N
  C2       1.0000 0.06060  0.00300  0.15830  Biso   1.000  C
  N2       1.0000 0.95320  0.94950  0.13820  Biso   1.000  N
  C3       1.0000 0.94240  0.31300  0.76750  Biso   1.000  C
  N3       1.0000 0.04820  0.26740  0.80170  Biso   1.000  N
  C4       1.0000 0.93940  0.49700  0.65830  Biso   1.000  C
  N4       1.0000 0.04680  0.55050  0.63820  Biso   1.000  N
  C5       1.0000 0.55760  0.81300  0.73250  Biso   1.000  C
  N5       1.0000 0.45180  0.76740  0.69830  Biso   1.000  N
  C6       1.0000 0.56060  0.99700  0.84170  Biso   1.000  C
  N6       1.0000 0.45320  0.05050  0.86180  Biso   1.000  N
  C7       1.0000 0.44240  0.68700  0.23250  Biso   1.000  C
  N7       1.0000 0.54820  0.73260  0.19830  Biso   1.000  N
  C8       1.0000 0.43940  0.50300  0.34170  Biso   1.000  C
  N8       1.0000 0.54680  0.44950  0.36180  Biso   1.000  N
  C9       1.0000 0.94240  0.81300  0.73250  Biso   1.000  C
  N9       1.0000 0.04820  0.76740  0.69830  Biso   1.000  N
  C10      1.0000 0.93940  0.99700  0.84170  Biso   1.000  C
  N10      1.0000 0.04680  0.05050  0.86180  Biso   1.000  N
  C11      1.0000 0.05760  0.68700  0.23250  Biso   1.000  C
  N11      1.0000 0.95180  0.73260  0.19830  Biso   1.000  N
  C12      1.0000 0.06060  0.50300  0.34170  Biso   1.000  C
  N12      1.0000 0.95320  0.44950  0.36180  Biso   1.000  N
  C13      1.0000 0.44240  0.18700  0.26750  Biso   1.000  C
  N13      1.0000 0.54820  0.23260  0.30170  Biso   1.000  N
  C14      1.0000 0.43940  0.00300  0.15830  Biso   1.000  C
  N14      1.0000 0.54680  0.94950  0.13820  Biso   1.000  N
  C15      1.0000 0.55760  0.31300  0.76750  Biso   1.000  C
  N15      1.0000 0.45180  0.26740  0.80170  Biso   1.000  N
  C16      1.0000 0.56060  0.49700  0.65830  Biso   1.000  C
  N16      1.0000 0.45320  0.55050  0.63820  Biso   1.000  N
  Cr1      1.0000 0.25000  0.09647  0.20897  Biso   1.000  Cr
  C17      1.0000 0.25000  0.16810  0.07690  Biso   1.000  C
  N17      1.0000 0.25000  0.19590  0.00060  Biso   1.000  N
  C18      1.0000 0.25000  0.01680  0.33030  Biso   1.000  C
  N18      1.0000 0.25000  0.97070  0.39940  Biso   1.000  N
  Cr2      1.0000 0.75000  0.40353  0.70897  Biso   1.000  Cr
  C19      1.0000 0.75000  0.33190  0.57690  Biso   1.000  C
  N19      1.0000 0.75000  0.30410  0.50060  Biso   1.000  N
  C20      1.0000 0.75000  0.48320  0.83030  Biso   1.000  C
  N20      1.0000 0.75000  0.52930  0.89940  Biso   1.000  N
  Cr3      1.0000 0.75000  0.90353  0.79103  Biso   1.000  Cr
  C21      1.0000 0.75000  0.83190  0.92310  Biso   1.000  C
  N21      1.0000 0.75000  0.80410  0.99940  Biso   1.000  N
  C22      1.0000 0.75000  0.98320  0.66970  Biso   1.000  C
  N22      1.0000 0.75000  0.02930  0.60060  Biso   1.000  N
  Cr4      1.0000 0.25000  0.59647  0.29103  Biso   1.000  Cr
  C23      1.0000 0.25000  0.66810  0.42310  Biso   1.000  C
  N23      1.0000 0.25000  0.69590  0.49940  Biso   1.000  N
  C24      1.0000 0.25000  0.51680  0.16970  Biso   1.000  C
  N24      1.0000 0.25000  0.47070  0.10060  Biso   1.000  N
  Mn1      1.0000 0.75000  0.33892  0.34467  Biso   1.000  Mn
  Mn2      1.0000 0.25000  0.16108  0.84467  Biso   1.000  Mn
  Mn3      1.0000 0.25000  0.66108  0.65533  Biso   1.000  Mn
  Mn4      1.0000 0.75000  0.83892  0.15533  Biso   1.000  Mn
