data_image0
_cell_length_a       14.986
_cell_length_b       23.552
_cell_length_c       9.051
_cell_angle_alpha    90
_cell_angle_beta     90
_cell_angle_gamma    90

_symmetry_space_group_name_H-M    "P 1"
_symmetry_int_tables_number       1

loop_
  _symmetry_equiv_pos_as_xyz
  'x, y, z'

loop_
  _atom_site_label
  _atom_site_occupancy
  _atom_site_fract_x
  _atom_site_fract_y
  _atom_site_fract_z
  _atom_site_thermal_displace_type
  _atom_site_B_iso_or_equiv
  _atom_site_type_symbol
  Fe1      1.0000 0.07179  0.05425  0.69772  Biso   1.000  Fe
  Cl1      1.0000 0.18147  0.99569  0.59890  Biso   1.000  Cl
  O1       1.0000 0.15920  0.12505  0.64010  Biso   1.000  O
  O2       1.0000 0.23090  0.13005  0.00390  Biso   1.000  O
  O3       1.0000 0.26450  0.17903  0.74470  Biso   1.000  O
  O4       1.0000 0.13150  0.07291  0.89610  Biso   1.000  O
  C1       1.0000 0.18820  0.11221  0.89470  Biso   1.000  C
  C2       1.0000 0.20470  0.14158  0.74530  Biso   1.000  C
  Fe2      1.0000 0.07179  0.55425  0.19772  Biso   1.000  Fe
  Cl2      1.0000 0.18147  0.49569  0.09890  Biso   1.000  Cl
  O5       1.0000 0.15920  0.62505  0.14010  Biso   1.000  O
  O6       1.0000 0.23090  0.63005  0.50390  Biso   1.000  O
  O7       1.0000 0.26450  0.67903  0.24470  Biso   1.000  O
  O8       1.0000 0.13150  0.57291  0.39610  Biso   1.000  O
  C3       1.0000 0.18820  0.61221  0.39470  Biso   1.000  C
  C4       1.0000 0.20470  0.64158  0.24530  Biso   1.000  C
  Fe3      1.0000 0.57179  0.05425  0.19772  Biso   1.000  Fe
  Cl3      1.0000 0.68147  0.99569  0.09890  Biso   1.000  Cl
  O9       1.0000 0.65920  0.12505  0.14010  Biso   1.000  O
  O10      1.0000 0.73090  0.13005  0.50390  Biso   1.000  O
  O11      1.0000 0.76450  0.17903  0.24470  Biso   1.000  O
  O12      1.0000 0.63150  0.07291  0.39610  Biso   1.000  O
  C5       1.0000 0.68820  0.11221  0.39470  Biso   1.000  C
  C6       1.0000 0.70470  0.14158  0.24530  Biso   1.000  C
  Fe4      1.0000 0.57179  0.55425  0.69772  Biso   1.000  Fe
  Cl4      1.0000 0.68147  0.49569  0.59890  Biso   1.000  Cl
  O13      1.0000 0.65920  0.62505  0.64010  Biso   1.000  O
  O14      1.0000 0.73090  0.63005  0.00390  Biso   1.000  O
  O15      1.0000 0.76450  0.67903  0.74470  Biso   1.000  O
  O16      1.0000 0.63150  0.57291  0.89610  Biso   1.000  O
  C7       1.0000 0.68820  0.61221  0.89470  Biso   1.000  C
  C8       1.0000 0.70470  0.64158  0.74530  Biso   1.000  C
  Fe5      1.0000 0.92821  0.94575  0.69772  Biso   1.000  Fe
  Cl5      1.0000 0.81853  0.00431  0.59890  Biso   1.000  Cl
  O17      1.0000 0.84080  0.87495  0.64010  Biso   1.000  O
  O18      1.0000 0.76910  0.86995  0.00390  Biso   1.000  O
  O19      1.0000 0.73550  0.82097  0.74470  Biso   1.000  O
  O20      1.0000 0.86850  0.92709  0.89610  Biso   1.000  O
  C9       1.0000 0.81180  0.88779  0.89470  Biso   1.000  C
  C10      1.0000 0.79530  0.85842  0.74530  Biso   1.000  C
  Fe6      1.0000 0.92821  0.44575  0.19772  Biso   1.000  Fe
  Cl6      1.0000 0.81853  0.50431  0.09890  Biso   1.000  Cl
  O21      1.0000 0.84080  0.37495  0.14010  Biso   1.000  O
  O22      1.0000 0.76910  0.36995  0.50390  Biso   1.000  O
  O23      1.0000 0.73550  0.32097  0.24470  Biso   1.000  O
  O24      1.0000 0.86850  0.42709  0.39610  Biso   1.000  O
  C11      1.0000 0.81180  0.38779  0.39470  Biso   1.000  C
  C12      1.0000 0.79530  0.35842  0.24530  Biso   1.000  C
  Fe7      1.0000 0.42821  0.94575  0.19772  Biso   1.000  Fe
  Cl7      1.0000 0.31853  0.00431  0.09890  Biso   1.000  Cl
  O25      1.0000 0.34080  0.87495  0.14010  Biso   1.000  O
  O26      1.0000 0.26910  0.86995  0.50390  Biso   1.000  O
  O27      1.0000 0.23550  0.82097  0.24470  Biso   1.000  O
  O28      1.0000 0.36850  0.92709  0.39610  Biso   1.000  O
  C13      1.0000 0.31180  0.88779  0.39470  Biso   1.000  C
  C14      1.0000 0.29530  0.85842  0.24530  Biso   1.000  C
  Fe8      1.0000 0.42821  0.44575  0.69772  Biso   1.000  Fe
  Cl8      1.0000 0.31853  0.50431  0.59890  Biso   1.000  Cl
  O29      1.0000 0.34080  0.37495  0.64010  Biso   1.000  O
  O30      1.0000 0.26910  0.36995  0.00390  Biso   1.000  O
  O31      1.0000 0.23550  0.32097  0.74470  Biso   1.000  O
  O32      1.0000 0.36850  0.42709  0.89610  Biso   1.000  O
  C15      1.0000 0.31180  0.38779  0.89470  Biso   1.000  C
  C16      1.0000 0.29530  0.35842  0.74530  Biso   1.000  C
  Fe9      1.0000 0.32179  0.19575  0.94772  Biso   1.000  Fe
  Cl9      1.0000 0.43147  0.25431  0.84890  Biso   1.000  Cl
  O33      1.0000 0.40920  0.12495  0.89010  Biso   1.000  O
  O34      1.0000 0.48090  0.11995  0.25390  Biso   1.000  O
  O35      1.0000 0.51450  0.07097  0.99470  Biso   1.000  O
  O36      1.0000 0.38150  0.17709  0.14610  Biso   1.000  O
  C17      1.0000 0.43820  0.13779  0.14470  Biso   1.000  C
  C18      1.0000 0.45470  0.10842  0.99530  Biso   1.000  C
  Fe10     1.0000 0.32179  0.69575  0.44772  Biso   1.000  Fe
  Cl10     1.0000 0.43147  0.75431  0.34890  Biso   1.000  Cl
  O37      1.0000 0.40920  0.62495  0.39010  Biso   1.000  O
  O38      1.0000 0.48090  0.61995  0.75390  Biso   1.000  O
  O39      1.0000 0.51450  0.57097  0.49470  Biso   1.000  O
  O40      1.0000 0.38150  0.67709  0.64610  Biso   1.000  O
  C19      1.0000 0.43820  0.63779  0.64470  Biso   1.000  C
  C20      1.0000 0.45470  0.60842  0.49530  Biso   1.000  C
  Fe11     1.0000 0.82179  0.19575  0.44772  Biso   1.000  Fe
  Cl11     1.0000 0.93147  0.25431  0.34890  Biso   1.000  Cl
  O41      1.0000 0.90920  0.12495  0.39010  Biso   1.000  O
  O42      1.0000 0.98090  0.11995  0.75390  Biso   1.000  O
  O43      1.0000 0.01450  0.07097  0.49470  Biso   1.000  O
  O44      1.0000 0.88150  0.17709  0.64610  Biso   1.000  O
  C21      1.0000 0.93820  0.13779  0.64470  Biso   1.000  C
  C22      1.0000 0.95470  0.10842  0.49530  Biso   1.000  C
  Fe12     1.0000 0.82179  0.69575  0.94772  Biso   1.000  Fe
  Cl12     1.0000 0.93147  0.75431  0.84890  Biso   1.000  Cl
  O45      1.0000 0.90920  0.62495  0.89010  Biso   1.000  O
  O46      1.0000 0.98090  0.61995  0.25390  Biso   1.000  O
  O47      1.0000 0.01450  0.57097  0.99470  Biso   1.000  O
  O48      1.0000 0.88150  0.67709  0.14610  Biso   1.000  O
  C23      1.0000 0.93820  0.63779  0.14470  Biso   1.000  C
  C24      1.0000 0.95470  0.60842  0.99530  Biso   1.000  C
  Fe13     1.0000 0.17821  0.30425  0.94772  Biso   1.000  Fe
  Cl13     1.0000 0.06853  0.24569  0.84890  Biso   1.000  Cl
  O49      1.0000 0.09080  0.37505  0.89010  Biso   1.000  O
  O50      1.0000 0.01910  0.38005  0.25390  Biso   1.000  O
  O51      1.0000 0.98550  0.42903  0.99470  Biso   1.000  O
  O52      1.0000 0.11850  0.32291  0.14610  Biso   1.000  O
  C25      1.0000 0.06180  0.36221  0.14470  Biso   1.000  C
  C26      1.0000 0.04530  0.39158  0.99530  Biso   1.000  C
  Fe14     1.0000 0.17821  0.80425  0.44772  Biso   1.000  Fe
  Cl14     1.0000 0.06853  0.74569  0.34890  Biso   1.000  Cl
  O53      1.0000 0.09080  0.87505  0.39010  Biso   1.000  O
  O54      1.0000 0.01910  0.88005  0.75390  Biso   1.000  O
  O55      1.0000 0.98550  0.92903  0.49470  Biso   1.000  O
  O56      1.0000 0.11850  0.82291  0.64610  Biso   1.000  O
  C27      1.0000 0.06180  0.86221  0.64470  Biso   1.000  C
  C28      1.0000 0.04530  0.89158  0.49530  Biso   1.000  C
  Fe15     1.0000 0.67821  0.30425  0.44772  Biso   1.000  Fe
  Cl15     1.0000 0.56853  0.24569  0.34890  Biso   1.000  Cl
  O57      1.0000 0.59080  0.37505  0.39010  Biso   1.000  O
  O58      1.0000 0.51910  0.38005  0.75390  Biso   1.000  O
  O59      1.0000 0.48550  0.42903  0.49470  Biso   1.000  O
  O60      1.0000 0.61850  0.32291  0.64610  Biso   1.000  O
  C29      1.0000 0.56180  0.36221  0.64470  Biso   1.000  C
  C30      1.0000 0.54530  0.39158  0.49530  Biso   1.000  C
  Fe16     1.0000 0.67821  0.80425  0.94772  Biso   1.000  Fe
  Cl16     1.0000 0.56853  0.74569  0.84890  Biso   1.000  Cl
  O61      1.0000 0.59080  0.87505  0.89010  Biso   1.000  O
  O62      1.0000 0.51910  0.88005  0.25390  Biso   1.000  O
  O63      1.0000 0.48550  0.92903  0.99470  Biso   1.000  O
  O64      1.0000 0.61850  0.82291  0.14610  Biso   1.000  O
  C31      1.0000 0.56180  0.86221  0.14470  Biso   1.000  C
  C32      1.0000 0.54530  0.89158  0.99530  Biso   1.000  C
  O65      1.0000 0.00000  0.00000  0.77200  Biso   1.000  O
  O66      1.0000 0.00000  0.50000  0.27200  Biso   1.000  O
  O67      1.0000 0.50000  0.00000  0.27200  Biso   1.000  O
  O68      1.0000 0.50000  0.50000  0.77200  Biso   1.000  O
  O69      1.0000 0.25000  0.25000  0.02200  Biso   1.000  O
  O70      1.0000 0.25000  0.75000  0.52200  Biso   1.000  O
  O71      1.0000 0.75000  0.25000  0.52200  Biso   1.000  O
  O72      1.0000 0.75000  0.75000  0.02200  Biso   1.000  O
