data_image0
_cell_length_a       14.8825
_cell_length_b       23.3281
_cell_length_c       9.1087
_cell_angle_alpha    90
_cell_angle_beta     90
_cell_angle_gamma    90

_symmetry_space_group_name_H-M    "P 1"
_symmetry_int_tables_number       1

loop_
  _symmetry_equiv_pos_as_xyz
  'x, y, z'

loop_
  _atom_site_label
  _atom_site_occupancy
  _atom_site_fract_x
  _atom_site_fract_y
  _atom_site_fract_z
  _atom_site_thermal_displace_type
  _atom_site_B_iso_or_equiv
  _atom_site_type_symbol
  Fe1      1.0000 0.57784  0.05464  0.26258  Biso   1.000  Fe
  Cl1      1.0000 0.68191  0.99408  0.16597  Biso   1.000  Cl
  O1       1.0000 0.66363  0.12498  0.20788  Biso   1.000  O
  O2       1.0000 0.63440  0.07199  0.46158  Biso   1.000  O
  C1       1.0000 0.70883  0.14183  0.31480  Biso   1.000  C
  C2       1.0000 0.69113  0.11189  0.46190  Biso   1.000  C
  O3       1.0000 0.73414  0.13020  0.56996  Biso   1.000  O
  O4       1.0000 0.76842  0.18048  0.31479  Biso   1.000  O
  Fe2      1.0000 0.57784  0.55464  0.76258  Biso   1.000  Fe
  Cl2      1.0000 0.68191  0.49408  0.66597  Biso   1.000  Cl
  O5       1.0000 0.66363  0.62498  0.70788  Biso   1.000  O
  O6       1.0000 0.63440  0.57199  0.96158  Biso   1.000  O
  C3       1.0000 0.70883  0.64183  0.81480  Biso   1.000  C
  C4       1.0000 0.69113  0.61189  0.96190  Biso   1.000  C
  O7       1.0000 0.73414  0.63020  0.06996  Biso   1.000  O
  O8       1.0000 0.76842  0.68048  0.81479  Biso   1.000  O
  Fe3      1.0000 0.07784  0.05464  0.76258  Biso   1.000  Fe
  Cl3      1.0000 0.18191  0.99408  0.66597  Biso   1.000  Cl
  O9       1.0000 0.16363  0.12498  0.70788  Biso   1.000  O
  O10      1.0000 0.13440  0.07199  0.96158  Biso   1.000  O
  C5       1.0000 0.20883  0.14183  0.81480  Biso   1.000  C
  C6       1.0000 0.19113  0.11189  0.96190  Biso   1.000  C
  O11      1.0000 0.23414  0.13020  0.06996  Biso   1.000  O
  O12      1.0000 0.26842  0.18048  0.81479  Biso   1.000  O
  Fe4      1.0000 0.07784  0.55464  0.26258  Biso   1.000  Fe
  Cl4      1.0000 0.18191  0.49408  0.16597  Biso   1.000  Cl
  O13      1.0000 0.16363  0.62498  0.20788  Biso   1.000  O
  O14      1.0000 0.13440  0.57199  0.46158  Biso   1.000  O
  C7       1.0000 0.20883  0.64183  0.31480  Biso   1.000  C
  C8       1.0000 0.19113  0.61189  0.46190  Biso   1.000  C
  O15      1.0000 0.23414  0.63020  0.56996  Biso   1.000  O
  O16      1.0000 0.26842  0.68048  0.31479  Biso   1.000  O
  Fe5      1.0000 0.42216  0.94536  0.26258  Biso   1.000  Fe
  Cl5      1.0000 0.31809  0.00592  0.16597  Biso   1.000  Cl
  O17      1.0000 0.33637  0.87502  0.20788  Biso   1.000  O
  O18      1.0000 0.36560  0.92801  0.46158  Biso   1.000  O
  C9       1.0000 0.29117  0.85817  0.31480  Biso   1.000  C
  C10      1.0000 0.30887  0.88811  0.46190  Biso   1.000  C
  O19      1.0000 0.26586  0.86980  0.56996  Biso   1.000  O
  O20      1.0000 0.23158  0.81952  0.31479  Biso   1.000  O
  Fe6      1.0000 0.42216  0.44536  0.76258  Biso   1.000  Fe
  Cl6      1.0000 0.31809  0.50592  0.66597  Biso   1.000  Cl
  O21      1.0000 0.33637  0.37502  0.70788  Biso   1.000  O
  O22      1.0000 0.36560  0.42801  0.96158  Biso   1.000  O
  C11      1.0000 0.29117  0.35817  0.81480  Biso   1.000  C
  C12      1.0000 0.30887  0.38811  0.96190  Biso   1.000  C
  O23      1.0000 0.26586  0.36980  0.06996  Biso   1.000  O
  O24      1.0000 0.23158  0.31952  0.81479  Biso   1.000  O
  Fe7      1.0000 0.92216  0.94536  0.76258  Biso   1.000  Fe
  Cl7      1.0000 0.81809  0.00592  0.66597  Biso   1.000  Cl
  O25      1.0000 0.83637  0.87502  0.70788  Biso   1.000  O
  O26      1.0000 0.86560  0.92801  0.96158  Biso   1.000  O
  C13      1.0000 0.79117  0.85817  0.81480  Biso   1.000  C
  C14      1.0000 0.80887  0.88811  0.96190  Biso   1.000  C
  O27      1.0000 0.76586  0.86980  0.06996  Biso   1.000  O
  O28      1.0000 0.73158  0.81952  0.81479  Biso   1.000  O
  Fe8      1.0000 0.92216  0.44536  0.26258  Biso   1.000  Fe
  Cl8      1.0000 0.81809  0.50592  0.16597  Biso   1.000  Cl
  O29      1.0000 0.83637  0.37502  0.20788  Biso   1.000  O
  O30      1.0000 0.86560  0.42801  0.46158  Biso   1.000  O
  C15      1.0000 0.79117  0.35817  0.31480  Biso   1.000  C
  C16      1.0000 0.80887  0.38811  0.46190  Biso   1.000  C
  O31      1.0000 0.76586  0.36980  0.56996  Biso   1.000  O
  O32      1.0000 0.73158  0.31952  0.31479  Biso   1.000  O
  Fe9      1.0000 0.82784  0.19536  0.51258  Biso   1.000  Fe
  Cl9      1.0000 0.93191  0.25592  0.41597  Biso   1.000  Cl
  O33      1.0000 0.91363  0.12502  0.45788  Biso   1.000  O
  O34      1.0000 0.88440  0.17801  0.71158  Biso   1.000  O
  C17      1.0000 0.95883  0.10817  0.56480  Biso   1.000  C
  C18      1.0000 0.94113  0.13811  0.71190  Biso   1.000  C
  O35      1.0000 0.98414  0.11980  0.81996  Biso   1.000  O
  O36      1.0000 0.01842  0.06952  0.56479  Biso   1.000  O
  Fe10     1.0000 0.82784  0.69536  0.01258  Biso   1.000  Fe
  Cl10     1.0000 0.93191  0.75592  0.91597  Biso   1.000  Cl
  O37      1.0000 0.91363  0.62502  0.95788  Biso   1.000  O
  O38      1.0000 0.88440  0.67801  0.21158  Biso   1.000  O
  C19      1.0000 0.95883  0.60817  0.06480  Biso   1.000  C
  C20      1.0000 0.94113  0.63811  0.21190  Biso   1.000  C
  O39      1.0000 0.98414  0.61980  0.31996  Biso   1.000  O
  O40      1.0000 0.01842  0.56952  0.06479  Biso   1.000  O
  Fe11     1.0000 0.32784  0.19536  0.01258  Biso   1.000  Fe
  Cl11     1.0000 0.43191  0.25592  0.91597  Biso   1.000  Cl
  O41      1.0000 0.41363  0.12502  0.95788  Biso   1.000  O
  O42      1.0000 0.38440  0.17801  0.21158  Biso   1.000  O
  C21      1.0000 0.45883  0.10817  0.06480  Biso   1.000  C
  C22      1.0000 0.44113  0.13811  0.21190  Biso   1.000  C
  O43      1.0000 0.48414  0.11980  0.31996  Biso   1.000  O
  O44      1.0000 0.51842  0.06952  0.06479  Biso   1.000  O
  Fe12     1.0000 0.32784  0.69536  0.51258  Biso   1.000  Fe
  Cl12     1.0000 0.43191  0.75592  0.41597  Biso   1.000  Cl
  O45      1.0000 0.41363  0.62502  0.45788  Biso   1.000  O
  O46      1.0000 0.38440  0.67801  0.71158  Biso   1.000  O
  C23      1.0000 0.45883  0.60817  0.56480  Biso   1.000  C
  C24      1.0000 0.44113  0.63811  0.71190  Biso   1.000  C
  O47      1.0000 0.48414  0.61980  0.81996  Biso   1.000  O
  O48      1.0000 0.51842  0.56952  0.56479  Biso   1.000  O
  Fe13     1.0000 0.67216  0.30464  0.51258  Biso   1.000  Fe
  Cl13     1.0000 0.56809  0.24408  0.41597  Biso   1.000  Cl
  O49      1.0000 0.58637  0.37498  0.45788  Biso   1.000  O
  O50      1.0000 0.61560  0.32199  0.71158  Biso   1.000  O
  C25      1.0000 0.54117  0.39183  0.56480  Biso   1.000  C
  C26      1.0000 0.55887  0.36189  0.71190  Biso   1.000  C
  O51      1.0000 0.51586  0.38020  0.81996  Biso   1.000  O
  O52      1.0000 0.48158  0.43048  0.56479  Biso   1.000  O
  Fe14     1.0000 0.67216  0.80464  0.01258  Biso   1.000  Fe
  Cl14     1.0000 0.56809  0.74408  0.91597  Biso   1.000  Cl
  O53      1.0000 0.58637  0.87498  0.95788  Biso   1.000  O
  O54      1.0000 0.61560  0.82199  0.21158  Biso   1.000  O
  C27      1.0000 0.54117  0.89183  0.06480  Biso   1.000  C
  C28      1.0000 0.55887  0.86189  0.21190  Biso   1.000  C
  O55      1.0000 0.51586  0.88020  0.31996  Biso   1.000  O
  O56      1.0000 0.48158  0.93048  0.06479  Biso   1.000  O
  Fe15     1.0000 0.17216  0.30464  0.01258  Biso   1.000  Fe
  Cl15     1.0000 0.06809  0.24408  0.91597  Biso   1.000  Cl
  O57      1.0000 0.08637  0.37498  0.95788  Biso   1.000  O
  O58      1.0000 0.11560  0.32199  0.21158  Biso   1.000  O
  C29      1.0000 0.04117  0.39183  0.06480  Biso   1.000  C
  C30      1.0000 0.05887  0.36189  0.21190  Biso   1.000  C
  O59      1.0000 0.01586  0.38020  0.31996  Biso   1.000  O
  O60      1.0000 0.98158  0.43048  0.06479  Biso   1.000  O
  Fe16     1.0000 0.17216  0.80464  0.51258  Biso   1.000  Fe
  Cl16     1.0000 0.06809  0.74408  0.41597  Biso   1.000  Cl
  O61      1.0000 0.08637  0.87498  0.45788  Biso   1.000  O
  O62      1.0000 0.11560  0.82199  0.71158  Biso   1.000  O
  C31      1.0000 0.04117  0.89183  0.56480  Biso   1.000  C
  C32      1.0000 0.05887  0.86189  0.71190  Biso   1.000  C
  O63      1.0000 0.01586  0.88020  0.81996  Biso   1.000  O
  O64      1.0000 0.98158  0.93048  0.56479  Biso   1.000  O
  O65      1.0000 0.50000  0.00000  0.34370  Biso   1.000  O
  O66      1.0000 0.50000  0.50000  0.84370  Biso   1.000  O
  O67      1.0000 0.00000  0.00000  0.84370  Biso   1.000  O
  O68      1.0000 0.00000  0.50000  0.34370  Biso   1.000  O
  O69      1.0000 0.75000  0.25000  0.59370  Biso   1.000  O
  O70      1.0000 0.75000  0.75000  0.09370  Biso   1.000  O
  O71      1.0000 0.25000  0.25000  0.09370  Biso   1.000  O
  O72      1.0000 0.25000  0.75000  0.59370  Biso   1.000  O
