data_image0
_cell_length_a       9.6445
_cell_length_b       14.747
_cell_length_c       12.31
_cell_angle_alpha    90
_cell_angle_beta     108.457
_cell_angle_gamma    90

_symmetry_space_group_name_H-M    "P 1"
_symmetry_int_tables_number       1

loop_
  _symmetry_equiv_pos_as_xyz
  'x, y, z'

loop_
  _atom_site_label
  _atom_site_occupancy
  _atom_site_fract_x
  _atom_site_fract_y
  _atom_site_fract_z
  _atom_site_thermal_displace_type
  _atom_site_B_iso_or_equiv
  _atom_site_type_symbol
  Fe1      1.0000 0.94516  0.05297  0.33709  Biso   1.000  Fe
  Fe2      1.0000 0.84090  0.21031  0.10724  Biso   1.000  Fe
  Cl1      1.0000 0.96560  0.94904  0.20840  Biso   1.000  Cl
  Cl2      1.0000 0.99470  0.31512  0.21630  Biso   1.000  Cl
  O1       1.0000 0.82150  0.14030  0.23370  Biso   1.000  O
  H1       1.0000 0.73380  0.15070  0.24810  Biso   1.000  H
  O2       1.0000 0.96720  0.14690  0.47200  Biso   1.000  O
  O3       1.0000 0.14390  0.11150  0.34950  Biso   1.000  O
  O4       1.0000 0.14000  0.23420  0.58920  Biso   1.000  O
  O5       1.0000 0.30980  0.20790  0.45890  Biso   1.000  O
  O6       1.0000 0.72910  0.88780  0.48850  Biso   1.000  O
  O7       1.0000 0.01070  0.85450  0.57700  Biso   1.000  O
  O8       1.0000 0.05900  0.96590  0.46970  Biso   1.000  O
  O9       1.0000 0.77290  0.99800  0.37870  Biso   1.000  O
  C1       1.0000 0.09070  0.18420  0.50440  Biso   1.000  C
  C2       1.0000 0.19100  0.16670  0.43120  Biso   1.000  C
  C3       1.0000 0.81130  0.93700  0.45270  Biso   1.000  C
  C4       1.0000 0.97330  0.91800  0.50410  Biso   1.000  C
  Fe3      1.0000 0.44516  0.55297  0.33709  Biso   1.000  Fe
  Fe4      1.0000 0.34090  0.71031  0.10724  Biso   1.000  Fe
  Cl3      1.0000 0.46560  0.44904  0.20840  Biso   1.000  Cl
  Cl4      1.0000 0.49470  0.81512  0.21630  Biso   1.000  Cl
  O10      1.0000 0.32150  0.64030  0.23370  Biso   1.000  O
  H2       1.0000 0.23380  0.65070  0.24810  Biso   1.000  H
  O11      1.0000 0.46720  0.64690  0.47200  Biso   1.000  O
  O12      1.0000 0.64390  0.61150  0.34950  Biso   1.000  O
  O13      1.0000 0.64000  0.73420  0.58920  Biso   1.000  O
  O14      1.0000 0.80980  0.70790  0.45890  Biso   1.000  O
  O15      1.0000 0.22910  0.38780  0.48850  Biso   1.000  O
  O16      1.0000 0.51070  0.35450  0.57700  Biso   1.000  O
  O17      1.0000 0.55900  0.46590  0.46970  Biso   1.000  O
  O18      1.0000 0.27290  0.49800  0.37870  Biso   1.000  O
  C5       1.0000 0.59070  0.68420  0.50440  Biso   1.000  C
  C6       1.0000 0.69100  0.66670  0.43120  Biso   1.000  C
  C7       1.0000 0.31130  0.43700  0.45270  Biso   1.000  C
  C8       1.0000 0.47330  0.41800  0.50410  Biso   1.000  C
  Fe5      1.0000 0.94516  0.94703  0.83709  Biso   1.000  Fe
  Fe6      1.0000 0.84090  0.78969  0.60724  Biso   1.000  Fe
  Cl5      1.0000 0.96560  0.05096  0.70840  Biso   1.000  Cl
  Cl6      1.0000 0.99470  0.68488  0.71630  Biso   1.000  Cl
  O19      1.0000 0.82150  0.85970  0.73370  Biso   1.000  O
  H3       1.0000 0.73380  0.84930  0.74810  Biso   1.000  H
  O20      1.0000 0.96720  0.85310  0.97200  Biso   1.000  O
  O21      1.0000 0.14390  0.88850  0.84950  Biso   1.000  O
  O22      1.0000 0.14000  0.76580  0.08920  Biso   1.000  O
  O23      1.0000 0.30980  0.79210  0.95890  Biso   1.000  O
  O24      1.0000 0.72910  0.11220  0.98850  Biso   1.000  O
  O25      1.0000 0.01070  0.14550  0.07700  Biso   1.000  O
  O26      1.0000 0.05900  0.03410  0.96970  Biso   1.000  O
  O27      1.0000 0.77290  0.00200  0.87870  Biso   1.000  O
  C9       1.0000 0.09070  0.81580  0.00440  Biso   1.000  C
  C10      1.0000 0.19100  0.83330  0.93120  Biso   1.000  C
  C11      1.0000 0.81130  0.06300  0.95270  Biso   1.000  C
  C12      1.0000 0.97330  0.08200  0.00410  Biso   1.000  C
  Fe7      1.0000 0.44516  0.44703  0.83709  Biso   1.000  Fe
  Fe8      1.0000 0.34090  0.28969  0.60724  Biso   1.000  Fe
  Cl7      1.0000 0.46560  0.55096  0.70840  Biso   1.000  Cl
  Cl8      1.0000 0.49470  0.18488  0.71630  Biso   1.000  Cl
  O28      1.0000 0.32150  0.35970  0.73370  Biso   1.000  O
  H4       1.0000 0.23380  0.34930  0.74810  Biso   1.000  H
  O29      1.0000 0.46720  0.35310  0.97200  Biso   1.000  O
  O30      1.0000 0.64390  0.38850  0.84950  Biso   1.000  O
  O31      1.0000 0.64000  0.26580  0.08920  Biso   1.000  O
  O32      1.0000 0.80980  0.29210  0.95890  Biso   1.000  O
  O33      1.0000 0.22910  0.61220  0.98850  Biso   1.000  O
  O34      1.0000 0.51070  0.64550  0.07700  Biso   1.000  O
  O35      1.0000 0.55900  0.53410  0.96970  Biso   1.000  O
  O36      1.0000 0.27290  0.50200  0.87870  Biso   1.000  O
  C13      1.0000 0.59070  0.31580  0.00440  Biso   1.000  C
  C14      1.0000 0.69100  0.33330  0.93120  Biso   1.000  C
  C15      1.0000 0.31130  0.56300  0.95270  Biso   1.000  C
  C16      1.0000 0.47330  0.58200  0.00410  Biso   1.000  C
