data_UFOFIF_clean
_audit_creation_date              2014-07-02
_audit_creation_method            'Materials Studio'
_symmetry_space_group_name_H-M    'P1'
_symmetry_Int_Tables_number       1
_symmetry_cell_setting            triclinic
loop_
_symmetry_equiv_pos_as_xyz
  x,y,z
_cell_length_a                    7.3785
_cell_length_b                    11.7625
_cell_length_c                    14.4288
_cell_angle_alpha                 90.0000
_cell_angle_beta                  90.0000
_cell_angle_gamma                 98.9990
loop_
_atom_site_label
_atom_site_type_symbol
_atom_site_fract_x
_atom_site_fract_y
_atom_site_fract_z
_atom_site_U_iso_or_equiv
_atom_site_adp_type
_atom_site_occupancy
Mn1    Mn    0.50053   0.52418   0.50002   0.01267  Uiso   1.00
Mn2    Mn    0.97104   0.97307   0.02671   0.01267  Uiso   1.00
Mn3    Mn    0.49947   0.47582   0.00002   0.01267  Uiso   1.00
Mn4    Mn    0.02896   0.02693   0.52671   0.01267  Uiso   1.00
Nb1    Nb    0.94357   0.33979   0.25848   0.01267  Uiso   1.00
Nb2    Nb    0.05643   0.66021   0.75848   0.01267  Uiso   1.00
H1     H     0.67100   0.14150   0.04670   0.01267  Uiso   1.00
H2     H     0.35820   0.14390   0.04190   0.01267  Uiso   1.00
H3     H     0.27360   0.80700   0.00490   0.01267  Uiso   1.00
H4     H     0.58600   0.80620   0.00740   0.01267  Uiso   1.00
H5     H     0.32900   0.85850   0.54670   0.01267  Uiso   1.00
H6     H     0.64180   0.85610   0.54190   0.01267  Uiso   1.00
H7     H     0.72640   0.19300   0.50490   0.01267  Uiso   1.00
H8     H     0.41400   0.19380   0.50740   0.01267  Uiso   1.00
C1     C     0.69320   0.20130   0.27250   0.01267  Uiso   1.00
C2     C     0.94830   0.53090   0.23220   0.01267  Uiso   1.00
C3     C     0.77060   0.39240   0.37330   0.01267  Uiso   1.00
C4     C     0.16620   0.43200   0.34920   0.01267  Uiso   1.00
C5     C     0.17290   0.39310   0.15780   0.01267  Uiso   1.00
C6     C     0.76690   0.35810   0.13560   0.01267  Uiso   1.00
C7     C     0.99310   0.18880   0.17300   0.01267  Uiso   1.00
C8     C     0.02040   0.21820   0.36540   0.01267  Uiso   1.00
C9     C     0.59030   0.07110   0.03760   0.01267  Uiso   1.00
C10    C     0.40270   0.07270   0.03540   0.01267  Uiso   1.00
C11    C     0.35420   0.87750   0.01350   0.01267  Uiso   1.00
C12    C     0.54100   0.87700   0.01520   0.01267  Uiso   1.00
C13    C     0.30680   0.79870   0.77250   0.01267  Uiso   1.00
C14    C     0.05170   0.46910   0.73220   0.01267  Uiso   1.00
C15    C     0.22940   0.60760   0.87330   0.01267  Uiso   1.00
C16    C     0.83380   0.56800   0.84920   0.01267  Uiso   1.00
C17    C     0.82710   0.60690   0.65780   0.01267  Uiso   1.00
C18    C     0.23310   0.64190   0.63560   0.01267  Uiso   1.00
C19    C     0.00690   0.81120   0.67300   0.01267  Uiso   1.00
C20    C     0.97960   0.78180   0.86540   0.01267  Uiso   1.00
C21    C     0.40970   0.92890   0.53760   0.01267  Uiso   1.00
C22    C     0.59730   0.92730   0.53540   0.01267  Uiso   1.00
C23    C     0.64580   0.12250   0.51350   0.01267  Uiso   1.00
C24    C     0.45900   0.12300   0.51520   0.01267  Uiso   1.00
N1     N     0.56940   0.12900   0.27770   0.01267  Uiso   1.00
N2     N     0.95560   0.62610   0.21380   0.01267  Uiso   1.00
N3     N     0.67880   0.41850   0.43080   0.01267  Uiso   1.00
N4     N     0.27620   0.47640   0.39940   0.01267  Uiso   1.00
N5     N     0.28280   0.41940   0.10160   0.01267  Uiso   1.00
N6     N     0.67690   0.37120   0.07305   0.01267  Uiso   1.00
N7     N     0.01050   0.11300   0.12539   0.01267  Uiso   1.00
N8     N     0.05450   0.15880   0.42360   0.01267  Uiso   1.00
N9     N     0.66200   0.97430   0.02763   0.01267  Uiso   1.00
N10    N     0.28260   0.97530   0.02418   0.01267  Uiso   1.00
N11    N     0.43060   0.87100   0.77770   0.01267  Uiso   1.00
N12    N     0.04440   0.37390   0.71380   0.01267  Uiso   1.00
N13    N     0.32120   0.58150   0.93080   0.01267  Uiso   1.00
N14    N     0.72380   0.52360   0.89940   0.01267  Uiso   1.00
N15    N     0.71720   0.58060   0.60160   0.01267  Uiso   1.00
N16    N     0.32310   0.62880   0.57305   0.01267  Uiso   1.00
N17    N     0.98950   0.88700   0.62539   0.01267  Uiso   1.00
N18    N     0.94550   0.84120   0.92360   0.01267  Uiso   1.00
N19    N     0.33800   0.02570   0.52763   0.01267  Uiso   1.00
N20    N     0.71740   0.02470   0.52418   0.01267  Uiso   1.00
