data_UFUNAK_clean
_audit_creation_date              2014-07-02
_audit_creation_method            'Materials Studio'
_symmetry_space_group_name_H-M    'P1'
_symmetry_Int_Tables_number       1
_symmetry_cell_setting            triclinic
loop_
_symmetry_equiv_pos_as_xyz
  x,y,z
_cell_length_a                    4.9213
_cell_length_b                    10.8011
_cell_length_c                    12.8097
_cell_angle_alpha                 91.3262
_cell_angle_beta                  101.0750
_cell_angle_gamma                 83.0799
loop_
_atom_site_label
_atom_site_type_symbol
_atom_site_fract_x
_atom_site_fract_y
_atom_site_fract_z
_atom_site_U_iso_or_equiv
_atom_site_adp_type
_atom_site_occupancy
Cu1    Cu    0.05619   0.78433   0.22658   0.01267  Uiso   1.00
Cu2    Cu    0.82961   0.28433   0.77342   0.01267  Uiso   1.00
H1     H     0.84750   0.52660   0.66060   0.01267  Uiso   1.00
H2     H     0.62740   0.62930   0.50660   0.01267  Uiso   1.00
H3     H     0.09880   0.36640   0.45440   0.01267  Uiso   1.00
H4     H     0.33330   0.27170   0.61040   0.01267  Uiso   1.00
H5     H     0.32270   0.09480   0.80640   0.01267  Uiso   1.00
H6     H     0.58620   0.96270   0.93560   0.01267  Uiso   1.00
H7     H     0.07870   0.09180   0.13560   0.01267  Uiso   1.00
H8     H     0.83910   0.22710   0.00380   0.01267  Uiso   1.00
H9     H     0.18690   0.02660   0.33940   0.01267  Uiso   1.00
H10    H     0.12080   0.12930   0.49340   0.01267  Uiso   1.00
H11    H     0.64440   0.86640   0.54560   0.01267  Uiso   1.00
H12    H     0.72290   0.77170   0.38960   0.01267  Uiso   1.00
H13    H     0.51630   0.59480   0.19360   0.01267  Uiso   1.00
H14    H     0.65060   0.46270   0.06440   0.01267  Uiso   1.00
H15    H     0.94310   0.59180   0.86440   0.01267  Uiso   1.00
H16    H     0.83530   0.72710   0.99620   0.01267  Uiso   1.00
C1     C     0.69595   0.49360   0.61770   0.01267  Uiso   1.00
C2     C     0.56513   0.55570   0.52586   0.01267  Uiso   1.00
C3     C     0.33979   0.50860   0.46178   0.01267  Uiso   1.00
C4     C     0.25239   0.40030   0.49498   0.01267  Uiso   1.00
C5     C     0.39444   0.34410   0.58808   0.01267  Uiso   1.00
C6     C     0.18296   0.57600   0.36032   0.01267  Uiso   1.00
C7     C     0.27307   0.09430   0.87374   0.01267  Uiso   1.00
C8     C     0.43059   0.01440   0.95058   0.01267  Uiso   1.00
C9     C     0.35982   0.01010   0.05024   0.01267  Uiso   1.00
C10    C     0.13316   0.09110   0.06912   0.01267  Uiso   1.00
C11    C     0.98827   0.17080   0.98914   0.01267  Uiso   1.00
C12    C     0.52255   0.92130   0.13570   0.01267  Uiso   1.00
C13    C     0.07825   0.99360   0.38230   0.01267  Uiso   1.00
C14    C     0.03927   0.05570   0.47414   0.01267  Uiso   1.00
C15    C     0.87801   0.00860   0.53822   0.01267  Uiso   1.00
C16    C     0.75741   0.90030   0.50502   0.01267  Uiso   1.00
C17    C     0.80636   0.84410   0.41192   0.01267  Uiso   1.00
C18    C     0.82264   0.07600   0.63968   0.01267  Uiso   1.00
C19    C     0.39933   0.59430   0.12626   0.01267  Uiso   1.00
C20    C     0.48001   0.51440   0.04942   0.01267  Uiso   1.00
C21    C     0.30958   0.51010   0.94976   0.01267  Uiso   1.00
C22    C     0.06404   0.59110   0.93088   0.01267  Uiso   1.00
C23    C     0.99913   0.67080   0.01086   0.01267  Uiso   1.00
C24    C     0.38685   0.42130   0.86430   0.01267  Uiso   1.00
N1     N     0.61650   0.38790   0.64860   0.01267  Uiso   1.00
N2     N     0.04971   0.17190   0.89142   0.01267  Uiso   1.00
N3     N     0.96790   0.88790   0.35140   0.01267  Uiso   1.00
N4     N     0.15829   0.67190   0.10858   0.01267  Uiso   1.00
O1     O     0.28557   0.67180   0.33794   0.01267  Uiso   1.00
O2     O     0.97327   0.53550   0.31014   0.01267  Uiso   1.00
O3     O     0.76875   0.88220   0.12350   0.01267  Uiso   1.00
O4     O     0.41212   0.89390   0.20964   0.01267  Uiso   1.00
O5     O     0.94763   0.17180   0.66206   0.01267  Uiso   1.00
O6     O     0.66313   0.03550   0.68986   0.01267  Uiso   1.00
O7     O     0.64525   0.38220   0.87650   0.01267  Uiso   1.00
O8     O     0.20248   0.39390   0.79036   0.01267  Uiso   1.00
