data_image0
_cell_length_a       5.1646
_cell_length_b       24.466
_cell_length_c       11.585
_cell_angle_alpha    90
_cell_angle_beta     101.559
_cell_angle_gamma    90

_symmetry_space_group_name_H-M    "P 1"
_symmetry_int_tables_number       1

loop_
  _symmetry_equiv_pos_as_xyz
  'x, y, z'

loop_
  _atom_site_label
  _atom_site_occupancy
  _atom_site_fract_x
  _atom_site_fract_y
  _atom_site_fract_z
  _atom_site_thermal_displace_type
  _atom_site_B_iso_or_equiv
  _atom_site_type_symbol
  Cu1      1.0000 0.05799  0.11343  0.78326  Biso   1.000  Cu
  O1       1.0000 0.86650  0.17304  0.68610  Biso   1.000  O
  O2       1.0000 0.18920  0.16186  0.58710  Biso   1.000  O
  O3       1.0000 0.29410  0.05855  0.87150  Biso   1.000  O
  O4       1.0000 0.68830  0.09770  0.87390  Biso   1.000  O
  N1       1.0000 0.70920  0.32642  0.39530  Biso   1.000  N
  N2       1.0000 0.89350  0.94341  0.16460  Biso   1.000  N
  C1       1.0000 0.60000  0.31156  0.48500  Biso   1.000  C
  H1       1.0000 0.45910  0.33250  0.50140  Biso   1.000  H
  C2       1.0000 0.68400  0.26663  0.55550  Biso   1.000  C
  H2       1.0000 0.60320  0.25790  0.61890  Biso   1.000  H
  C3       1.0000 0.88700  0.23504  0.53150  Biso   1.000  C
  C4       1.0000 0.00170  0.25013  0.43700  Biso   1.000  C
  H3       1.0000 0.14160  0.22950  0.41860  Biso   1.000  H
  C5       1.0000 0.90870  0.29555  0.37050  Biso   1.000  C
  H4       1.0000 0.98580  0.30520  0.30640  Biso   1.000  H
  C6       1.0000 0.98940  0.18540  0.60610  Biso   1.000  C
  C7       1.0000 0.65260  0.93595  0.09940  Biso   1.000  C
  H5       1.0000 0.55980  0.90400  0.11090  Biso   1.000  H
  C8       1.0000 0.53350  0.97303  0.01600  Biso   1.000  C
  H6       1.0000 0.36130  0.96660  0.97330  Biso   1.000  H
  C9       1.0000 0.66900  0.02008  0.99490  Biso   1.000  C
  C10      1.0000 0.91880  0.02705  0.06000  Biso   1.000  C
  H7       1.0000 0.01830  0.05790  0.04760  Biso   1.000  H
  C11      1.0000 0.02510  0.98855  0.14420  Biso   1.000  C
  H8       1.0000 0.19600  0.99430  0.18880  Biso   1.000  H
  C12      1.0000 0.54460  0.06266  0.90580  Biso   1.000  C
  Cu2      1.0000 0.55799  0.61343  0.78326  Biso   1.000  Cu
  O5       1.0000 0.36650  0.67304  0.68610  Biso   1.000  O
  O6       1.0000 0.68920  0.66186  0.58710  Biso   1.000  O
  O7       1.0000 0.79410  0.55855  0.87150  Biso   1.000  O
  O8       1.0000 0.18830  0.59770  0.87390  Biso   1.000  O
  N3       1.0000 0.20920  0.82642  0.39530  Biso   1.000  N
  N4       1.0000 0.39350  0.44341  0.16460  Biso   1.000  N
  C13      1.0000 0.10000  0.81156  0.48500  Biso   1.000  C
  H9       1.0000 0.95910  0.83250  0.50140  Biso   1.000  H
  C14      1.0000 0.18400  0.76663  0.55550  Biso   1.000  C
  H10      1.0000 0.10320  0.75790  0.61890  Biso   1.000  H
  C15      1.0000 0.38700  0.73504  0.53150  Biso   1.000  C
  C16      1.0000 0.50170  0.75013  0.43700  Biso   1.000  C
  H11      1.0000 0.64160  0.72950  0.41860  Biso   1.000  H
  C17      1.0000 0.40870  0.79555  0.37050  Biso   1.000  C
  H12      1.0000 0.48580  0.80520  0.30640  Biso   1.000  H
  C18      1.0000 0.48940  0.68540  0.60610  Biso   1.000  C
  C19      1.0000 0.15260  0.43595  0.09940  Biso   1.000  C
  H13      1.0000 0.05980  0.40400  0.11090  Biso   1.000  H
  C20      1.0000 0.03350  0.47303  0.01600  Biso   1.000  C
  H14      1.0000 0.86130  0.46660  0.97330  Biso   1.000  H
  C21      1.0000 0.16900  0.52008  0.99490  Biso   1.000  C
  C22      1.0000 0.41880  0.52705  0.06000  Biso   1.000  C
  H15      1.0000 0.51830  0.55790  0.04760  Biso   1.000  H
  C23      1.0000 0.52510  0.48855  0.14420  Biso   1.000  C
  H16      1.0000 0.69600  0.49430  0.18880  Biso   1.000  H
  C24      1.0000 0.04460  0.56266  0.90580  Biso   1.000  C
  Cu3      1.0000 0.05799  0.88657  0.28326  Biso   1.000  Cu
  O9       1.0000 0.86650  0.82696  0.18610  Biso   1.000  O
  O10      1.0000 0.18920  0.83814  0.08710  Biso   1.000  O
  O11      1.0000 0.29410  0.94145  0.37150  Biso   1.000  O
  O12      1.0000 0.68830  0.90230  0.37390  Biso   1.000  O
  N5       1.0000 0.70920  0.67358  0.89530  Biso   1.000  N
  N6       1.0000 0.89350  0.05659  0.66460  Biso   1.000  N
  C25      1.0000 0.60000  0.68844  0.98500  Biso   1.000  C
  H17      1.0000 0.45910  0.66750  0.00140  Biso   1.000  H
  C26      1.0000 0.68400  0.73337  0.05550  Biso   1.000  C
  H18      1.0000 0.60320  0.74210  0.11890  Biso   1.000  H
  C27      1.0000 0.88700  0.76496  0.03150  Biso   1.000  C
  C28      1.0000 0.00170  0.74987  0.93700  Biso   1.000  C
  H19      1.0000 0.14160  0.77050  0.91860  Biso   1.000  H
  C29      1.0000 0.90870  0.70445  0.87050  Biso   1.000  C
  H20      1.0000 0.98580  0.69480  0.80640  Biso   1.000  H
  C30      1.0000 0.98940  0.81460  0.10610  Biso   1.000  C
  C31      1.0000 0.65260  0.06405  0.59940  Biso   1.000  C
  H21      1.0000 0.55980  0.09600  0.61090  Biso   1.000  H
  C32      1.0000 0.53350  0.02697  0.51600  Biso   1.000  C
  H22      1.0000 0.36130  0.03340  0.47330  Biso   1.000  H
  C33      1.0000 0.66900  0.97992  0.49490  Biso   1.000  C
  C34      1.0000 0.91880  0.97295  0.56000  Biso   1.000  C
  H23      1.0000 0.01830  0.94210  0.54760  Biso   1.000  H
  C35      1.0000 0.02510  0.01145  0.64420  Biso   1.000  C
  H24      1.0000 0.19600  0.00570  0.68880  Biso   1.000  H
  C36      1.0000 0.54460  0.93734  0.40580  Biso   1.000  C
  Cu4      1.0000 0.55799  0.38657  0.28326  Biso   1.000  Cu
  O13      1.0000 0.36650  0.32696  0.18610  Biso   1.000  O
  O14      1.0000 0.68920  0.33814  0.08710  Biso   1.000  O
  O15      1.0000 0.79410  0.44145  0.37150  Biso   1.000  O
  O16      1.0000 0.18830  0.40230  0.37390  Biso   1.000  O
  N7       1.0000 0.20920  0.17358  0.89530  Biso   1.000  N
  N8       1.0000 0.39350  0.55659  0.66460  Biso   1.000  N
  C37      1.0000 0.10000  0.18844  0.98500  Biso   1.000  C
  H25      1.0000 0.95910  0.16750  0.00140  Biso   1.000  H
  C38      1.0000 0.18400  0.23337  0.05550  Biso   1.000  C
  H26      1.0000 0.10320  0.24210  0.11890  Biso   1.000  H
  C39      1.0000 0.38700  0.26496  0.03150  Biso   1.000  C
  C40      1.0000 0.50170  0.24987  0.93700  Biso   1.000  C
  H27      1.0000 0.64160  0.27050  0.91860  Biso   1.000  H
  C41      1.0000 0.40870  0.20445  0.87050  Biso   1.000  C
  H28      1.0000 0.48580  0.19480  0.80640  Biso   1.000  H
  C42      1.0000 0.48940  0.31460  0.10610  Biso   1.000  C
  C43      1.0000 0.15260  0.56405  0.59940  Biso   1.000  C
  H29      1.0000 0.05980  0.59600  0.61090  Biso   1.000  H
  C44      1.0000 0.03350  0.52697  0.51600  Biso   1.000  C
  H30      1.0000 0.86130  0.53340  0.47330  Biso   1.000  H
  C45      1.0000 0.16900  0.47992  0.49490  Biso   1.000  C
  C46      1.0000 0.41880  0.47295  0.56000  Biso   1.000  C
  H31      1.0000 0.51830  0.44210  0.54760  Biso   1.000  H
  C47      1.0000 0.52510  0.51145  0.64420  Biso   1.000  C
  H32      1.0000 0.69600  0.50570  0.68880  Biso   1.000  H
  C48      1.0000 0.04460  0.43734  0.40580  Biso   1.000  C
