data_image0
_cell_length_a       9.7528
_cell_length_b       16.1943
_cell_length_c       17.2751
_cell_angle_alpha    90
_cell_angle_beta     104.763
_cell_angle_gamma    90

_symmetry_space_group_name_H-M    "P 1"
_symmetry_int_tables_number       1

loop_
  _symmetry_equiv_pos_as_xyz
  'x, y, z'

loop_
  _atom_site_label
  _atom_site_occupancy
  _atom_site_fract_x
  _atom_site_fract_y
  _atom_site_fract_z
  _atom_site_thermal_displace_type
  _atom_site_B_iso_or_equiv
  _atom_site_type_symbol
  Na1      1.0000 0.70027  0.13524  0.23277  Biso   1.000  Na
  N1       1.0000 0.90379  0.18470  0.33038  Biso   1.000  N
  C1       1.0000 0.02149  0.22123  0.31816  Biso   1.000  C
  H1       1.0000 0.02200  0.23330  0.26440  Biso   1.000  H
  C2       1.0000 0.13942  0.24223  0.37657  Biso   1.000  C
  H2       1.0000 0.21770  0.26700  0.36220  Biso   1.000  H
  C3       1.0000 0.14639  0.22743  0.45888  Biso   1.000  C
  C4       1.0000 0.02260  0.18892  0.47132  Biso   1.000  C
  H3       1.0000 0.01790  0.17630  0.52430  Biso   1.000  H
  C5       1.0000 0.91022  0.16969  0.40841  Biso   1.000  C
  H4       1.0000 0.83060  0.14380  0.42030  Biso   1.000  H
  N2       1.0000 0.81024  0.06907  0.14139  Biso   1.000  N
  C6       1.0000 0.81250  0.98936  0.11839  Biso   1.000  C
  H5       1.0000 0.75990  0.95080  0.14070  Biso   1.000  H
  C7       1.0000 0.88428  0.95949  0.06564  Biso   1.000  C
  H6       1.0000 0.88060  0.90220  0.05340  Biso   1.000  H
  C8       1.0000 0.96439  0.01352  0.02891  Biso   1.000  C
  C9       1.0000 0.96529  0.09714  0.05499  Biso   1.000  C
  H7       1.0000 0.01900  0.13730  0.03530  Biso   1.000  H
  C10      1.0000 0.88938  0.12008  0.10823  Biso   1.000  C
  H8       1.0000 0.89260  0.17670  0.12310  Biso   1.000  H
  N3       1.0000 0.58825  0.06555  0.31983  Biso   1.000  N
  C11      1.0000 0.63731  0.99470  0.35851  Biso   1.000  C
  H9       1.0000 0.69670  0.96110  0.33570  Biso   1.000  H
  C12      1.0000 0.60873  0.96730  0.42747  Biso   1.000  C
  H10      1.0000 0.64900  0.91690  0.45080  Biso   1.000  H
  C13      1.0000 0.51915  0.01360  0.46489  Biso   1.000  C
  C14      1.0000 0.46937  0.08880  0.42495  Biso   1.000  C
  H11      1.0000 0.41040  0.12430  0.44620  Biso   1.000  H
  C15      1.0000 0.50550  0.11041  0.35645  Biso   1.000  C
  H12      1.0000 0.46960  0.16130  0.33230  Biso   1.000  H
  N4       1.0000 0.51569  0.28363  0.64962  Biso   1.000  N
  C16      1.0000 0.50655  0.30006  0.57165  Biso   1.000  C
  H13      1.0000 0.58720  0.32390  0.55910  Biso   1.000  H
  C17      1.0000 0.39076  0.28509  0.50945  Biso   1.000  C
  H14      1.0000 0.39390  0.29910  0.45650  Biso   1.000  H
  C18      1.0000 0.26582  0.24886  0.52258  Biso   1.000  C
  C19      1.0000 0.27377  0.23448  0.60493  Biso   1.000  C
  H15      1.0000 0.19370  0.21280  0.61990  Biso   1.000  H
  C20      1.0000 0.39495  0.25147  0.66275  Biso   1.000  C
  H16      1.0000 0.39470  0.23980  0.71660  Biso   1.000  H
  Na2      1.0000 0.29973  0.63524  0.26723  Biso   1.000  Na
  N5       1.0000 0.09621  0.68470  0.16962  Biso   1.000  N
  C21      1.0000 0.97851  0.72123  0.18184  Biso   1.000  C
  H17      1.0000 0.97800  0.73330  0.23560  Biso   1.000  H
  C22      1.0000 0.86058  0.74223  0.12343  Biso   1.000  C
  H18      1.0000 0.78230  0.76700  0.13780  Biso   1.000  H
  C23      1.0000 0.85361  0.72743  0.04112  Biso   1.000  C
  C24      1.0000 0.97740  0.68892  0.02868  Biso   1.000  C
  H19      1.0000 0.98210  0.67630  0.97570  Biso   1.000  H
  C25      1.0000 0.08978  0.66969  0.09159  Biso   1.000  C
  H20      1.0000 0.16940  0.64380  0.07970  Biso   1.000  H
  N6       1.0000 0.18976  0.56907  0.35861  Biso   1.000  N
  C26      1.0000 0.18750  0.48936  0.38161  Biso   1.000  C
  H21      1.0000 0.24010  0.45080  0.35930  Biso   1.000  H
  C27      1.0000 0.11572  0.45949  0.43436  Biso   1.000  C
  H22      1.0000 0.11940  0.40220  0.44660  Biso   1.000  H
  C28      1.0000 0.03561  0.51352  0.47109  Biso   1.000  C
  C29      1.0000 0.03471  0.59714  0.44501  Biso   1.000  C
  H23      1.0000 0.98100  0.63730  0.46470  Biso   1.000  H
  C30      1.0000 0.11062  0.62008  0.39177  Biso   1.000  C
  H24      1.0000 0.10740  0.67670  0.37690  Biso   1.000  H
  N7       1.0000 0.41175  0.56555  0.18017  Biso   1.000  N
  C31      1.0000 0.36269  0.49470  0.14149  Biso   1.000  C
  H25      1.0000 0.30330  0.46110  0.16430  Biso   1.000  H
  C32      1.0000 0.39127  0.46730  0.07253  Biso   1.000  C
  H26      1.0000 0.35100  0.41690  0.04920  Biso   1.000  H
  C33      1.0000 0.48085  0.51360  0.03511  Biso   1.000  C
  C34      1.0000 0.53063  0.58880  0.07505  Biso   1.000  C
  H27      1.0000 0.58960  0.62430  0.05380  Biso   1.000  H
  C35      1.0000 0.49450  0.61041  0.14355  Biso   1.000  C
  H28      1.0000 0.53040  0.66130  0.16770  Biso   1.000  H
  N8       1.0000 0.48431  0.78363  0.85038  Biso   1.000  N
  C36      1.0000 0.49345  0.80006  0.92835  Biso   1.000  C
  H29      1.0000 0.41280  0.82390  0.94090  Biso   1.000  H
  C37      1.0000 0.60924  0.78509  0.99055  Biso   1.000  C
  H30      1.0000 0.60610  0.79910  0.04350  Biso   1.000  H
  C38      1.0000 0.73418  0.74886  0.97742  Biso   1.000  C
  C39      1.0000 0.72623  0.73448  0.89507  Biso   1.000  C
  H31      1.0000 0.80630  0.71280  0.88010  Biso   1.000  H
  C40      1.0000 0.60505  0.75147  0.83725  Biso   1.000  C
  H32      1.0000 0.60530  0.73980  0.78340  Biso   1.000  H
  Na3      1.0000 0.29973  0.86476  0.76723  Biso   1.000  Na
  N9       1.0000 0.09621  0.81530  0.66962  Biso   1.000  N
  C41      1.0000 0.97851  0.77877  0.68184  Biso   1.000  C
  H33      1.0000 0.97800  0.76670  0.73560  Biso   1.000  H
  C42      1.0000 0.86058  0.75777  0.62343  Biso   1.000  C
  H34      1.0000 0.78230  0.73300  0.63780  Biso   1.000  H
  C43      1.0000 0.85361  0.77257  0.54112  Biso   1.000  C
  C44      1.0000 0.97740  0.81108  0.52868  Biso   1.000  C
  H35      1.0000 0.98210  0.82370  0.47570  Biso   1.000  H
  C45      1.0000 0.08978  0.83031  0.59159  Biso   1.000  C
  H36      1.0000 0.16940  0.85620  0.57970  Biso   1.000  H
  N10      1.0000 0.18976  0.93093  0.85861  Biso   1.000  N
  C46      1.0000 0.18750  0.01064  0.88161  Biso   1.000  C
  H37      1.0000 0.24010  0.04920  0.85930  Biso   1.000  H
  C47      1.0000 0.11572  0.04051  0.93436  Biso   1.000  C
  H38      1.0000 0.11940  0.09780  0.94660  Biso   1.000  H
  C48      1.0000 0.03561  0.98648  0.97109  Biso   1.000  C
  C49      1.0000 0.03471  0.90286  0.94501  Biso   1.000  C
  H39      1.0000 0.98100  0.86270  0.96470  Biso   1.000  H
  C50      1.0000 0.11062  0.87992  0.89177  Biso   1.000  C
  H40      1.0000 0.10740  0.82330  0.87690  Biso   1.000  H
  N11      1.0000 0.41175  0.93445  0.68017  Biso   1.000  N
  C51      1.0000 0.36269  0.00530  0.64149  Biso   1.000  C
  H41      1.0000 0.30330  0.03890  0.66430  Biso   1.000  H
  C52      1.0000 0.39127  0.03270  0.57253  Biso   1.000  C
  H42      1.0000 0.35100  0.08310  0.54920  Biso   1.000  H
  C53      1.0000 0.48085  0.98640  0.53511  Biso   1.000  C
  C54      1.0000 0.53063  0.91120  0.57505  Biso   1.000  C
  H43      1.0000 0.58960  0.87570  0.55380  Biso   1.000  H
  C55      1.0000 0.49450  0.88959  0.64355  Biso   1.000  C
  H44      1.0000 0.53040  0.83870  0.66770  Biso   1.000  H
  N12      1.0000 0.48431  0.71637  0.35038  Biso   1.000  N
  C56      1.0000 0.49345  0.69994  0.42835  Biso   1.000  C
  H45      1.0000 0.41280  0.67610  0.44090  Biso   1.000  H
  C57      1.0000 0.60924  0.71491  0.49055  Biso   1.000  C
  H46      1.0000 0.60610  0.70090  0.54350  Biso   1.000  H
  C58      1.0000 0.73418  0.75114  0.47742  Biso   1.000  C
  C59      1.0000 0.72623  0.76552  0.39507  Biso   1.000  C
  H47      1.0000 0.80630  0.78720  0.38010  Biso   1.000  H
  C60      1.0000 0.60505  0.74853  0.33725  Biso   1.000  C
  H48      1.0000 0.60530  0.76020  0.28340  Biso   1.000  H
  Na4      1.0000 0.70027  0.36476  0.73277  Biso   1.000  Na
  N13      1.0000 0.90379  0.31530  0.83038  Biso   1.000  N
  C61      1.0000 0.02149  0.27877  0.81816  Biso   1.000  C
  H49      1.0000 0.02200  0.26670  0.76440  Biso   1.000  H
  C62      1.0000 0.13942  0.25777  0.87657  Biso   1.000  C
  H50      1.0000 0.21770  0.23300  0.86220  Biso   1.000  H
  C63      1.0000 0.14639  0.27257  0.95888  Biso   1.000  C
  C64      1.0000 0.02260  0.31108  0.97132  Biso   1.000  C
  H51      1.0000 0.01790  0.32370  0.02430  Biso   1.000  H
  C65      1.0000 0.91022  0.33031  0.90841  Biso   1.000  C
  H52      1.0000 0.83060  0.35620  0.92030  Biso   1.000  H
  N14      1.0000 0.81024  0.43093  0.64139  Biso   1.000  N
  C66      1.0000 0.81250  0.51064  0.61839  Biso   1.000  C
  H53      1.0000 0.75990  0.54920  0.64070  Biso   1.000  H
  C67      1.0000 0.88428  0.54051  0.56564  Biso   1.000  C
  H54      1.0000 0.88060  0.59780  0.55340  Biso   1.000  H
  C68      1.0000 0.96439  0.48648  0.52891  Biso   1.000  C
  C69      1.0000 0.96529  0.40286  0.55499  Biso   1.000  C
  H55      1.0000 0.01900  0.36270  0.53530  Biso   1.000  H
  C70      1.0000 0.88938  0.37992  0.60823  Biso   1.000  C
  H56      1.0000 0.89260  0.32330  0.62310  Biso   1.000  H
  N15      1.0000 0.58825  0.43445  0.81983  Biso   1.000  N
  C71      1.0000 0.63731  0.50530  0.85851  Biso   1.000  C
  H57      1.0000 0.69670  0.53890  0.83570  Biso   1.000  H
  C72      1.0000 0.60873  0.53270  0.92747  Biso   1.000  C
  H58      1.0000 0.64900  0.58310  0.95080  Biso   1.000  H
  C73      1.0000 0.51915  0.48640  0.96489  Biso   1.000  C
  C74      1.0000 0.46937  0.41120  0.92495  Biso   1.000  C
  H59      1.0000 0.41040  0.37570  0.94620  Biso   1.000  H
  C75      1.0000 0.50550  0.38959  0.85645  Biso   1.000  C
  H60      1.0000 0.46960  0.33870  0.83230  Biso   1.000  H
  N16      1.0000 0.51569  0.21637  0.14962  Biso   1.000  N
  C76      1.0000 0.50655  0.19994  0.07165  Biso   1.000  C
  H61      1.0000 0.58720  0.17610  0.05910  Biso   1.000  H
  C77      1.0000 0.39076  0.21491  0.00945  Biso   1.000  C
  H62      1.0000 0.39390  0.20090  0.95650  Biso   1.000  H
  C78      1.0000 0.26582  0.25114  0.02258  Biso   1.000  C
  C79      1.0000 0.27377  0.26552  0.10493  Biso   1.000  C
  H63      1.0000 0.19370  0.28720  0.11990  Biso   1.000  H
  C80      1.0000 0.39495  0.24853  0.16275  Biso   1.000  C
  H64      1.0000 0.39470  0.26020  0.21660  Biso   1.000  H
