data_UGAQEY_clean
_audit_creation_date              2014-07-02
_audit_creation_method            'Materials Studio'
_symmetry_space_group_name_H-M    'P1'
_symmetry_Int_Tables_number       1
_symmetry_cell_setting            triclinic
loop_
_symmetry_equiv_pos_as_xyz
  x,y,z
_cell_length_a                    13.1866
_cell_length_b                    13.1866
_cell_length_c                    29.4577
_cell_angle_alpha                 90.0000
_cell_angle_beta                  90.0000
_cell_angle_gamma                 90.0000
loop_
_atom_site_label
_atom_site_type_symbol
_atom_site_fract_x
_atom_site_fract_y
_atom_site_fract_z
_atom_site_U_iso_or_equiv
_atom_site_adp_type
_atom_site_occupancy
Ni1    Ni    0.73851   0.71969   0.36708   0.01267  Uiso   1.00
Ni2    Ni    0.26149   0.28031   0.86708   0.01267  Uiso   1.00
Ni3    Ni    0.78031   0.23851   0.11708   0.01267  Uiso   1.00
Ni4    Ni    0.21969   0.76149   0.61708   0.01267  Uiso   1.00
Ni5    Ni    0.76149   0.21969   0.38292   0.01267  Uiso   1.00
Ni6    Ni    0.23851   0.78031   0.88292   0.01267  Uiso   1.00
Ni7    Ni    0.71969   0.73851   0.63292   0.01267  Uiso   1.00
Ni8    Ni    0.28031   0.26149   0.13292   0.01267  Uiso   1.00
Mo1    Mo    0.61903   0.46371   0.38003   0.01267  Uiso   1.00
Mo2    Mo    0.38097   0.53629   0.88003   0.01267  Uiso   1.00
Mo3    Mo    0.03629   0.11903   0.13003   0.01267  Uiso   1.00
Mo4    Mo    0.96371   0.88097   0.63003   0.01267  Uiso   1.00
Mo5    Mo    0.88097   0.96371   0.36997   0.01267  Uiso   1.00
Mo6    Mo    0.11903   0.03629   0.86997   0.01267  Uiso   1.00
Mo7    Mo    0.46371   0.61903   0.61997   0.01267  Uiso   1.00
Mo8    Mo    0.53629   0.38097   0.11997   0.01267  Uiso   1.00
H1     H     0.85770   0.53610   0.39380   0.01267  Uiso   1.00
H2     H     0.99150   0.48840   0.43950   0.01267  Uiso   1.00
H3     H     0.94710   0.74990   0.50890   0.01267  Uiso   1.00
H4     H     0.82520   0.79030   0.45750   0.01267  Uiso   1.00
H5     H     0.15110   0.93910   0.56210   0.01267  Uiso   1.00
H6     H     0.17550   0.01820   0.49200   0.01267  Uiso   1.00
H7     H     0.30060   0.95780   0.44290   0.01267  Uiso   1.00
H8     H     0.37530   0.75540   0.53950   0.01267  Uiso   1.00
H9     H     0.62710   0.65780   0.45590   0.01267  Uiso   1.00
H10    H     0.49170   0.70000   0.49790   0.01267  Uiso   1.00
H11    H     0.43870   0.92710   0.41140   0.01267  Uiso   1.00
H12    H     0.57520   0.87840   0.37170   0.01267  Uiso   1.00
H13    H     0.25770   0.53080   0.60030   0.01267  Uiso   1.00
H14    H     0.20460   0.40260   0.55220   0.01267  Uiso   1.00
H15    H     0.08510   0.43440   0.49800   0.01267  Uiso   1.00
H16    H     0.09260   0.72590   0.53760   0.01267  Uiso   1.00
H17    H     0.14230   0.46390   0.89380   0.01267  Uiso   1.00
H18    H     0.00850   0.51160   0.93950   0.01267  Uiso   1.00
H19    H     0.05290   0.25010   0.00890   0.01267  Uiso   1.00
H20    H     0.17480   0.20970   0.95750   0.01267  Uiso   1.00
H21    H     0.84890   0.06090   0.06210   0.01267  Uiso   1.00
H22    H     0.82450   0.98180   0.99200   0.01267  Uiso   1.00
H23    H     0.69940   0.04220   0.94290   0.01267  Uiso   1.00
H24    H     0.62470   0.24460   0.03950   0.01267  Uiso   1.00
H25    H     0.37290   0.34220   0.95590   0.01267  Uiso   1.00
H26    H     0.50830   0.30000   0.99790   0.01267  Uiso   1.00
H27    H     0.56130   0.07290   0.91140   0.01267  Uiso   1.00
H28    H     0.42480   0.12160   0.87170   0.01267  Uiso   1.00
H29    H     0.74230   0.46920   0.10030   0.01267  Uiso   1.00
H30    H     0.79540   0.59740   0.05220   0.01267  Uiso   1.00
H31    H     0.91490   0.56560   0.99800   0.01267  Uiso   1.00
H32    H     0.90740   0.27410   0.03760   0.01267  Uiso   1.00
H33    H     0.96390   0.35770   0.14380   0.01267  Uiso   1.00
H34    H     0.01160   0.49150   0.18950   0.01267  Uiso   1.00
H35    H     0.75010   0.44710   0.25890   0.01267  Uiso   1.00
H36    H     0.70970   0.32520   0.20750   0.01267  Uiso   1.00
H37    H     0.56090   0.65110   0.31210   0.01267  Uiso   1.00
H38    H     0.48180   0.67550   0.24200   0.01267  Uiso   1.00
H39    H     0.54220   0.80060   0.19290   0.01267  Uiso   1.00
H40    H     0.74460   0.87530   0.28950   0.01267  Uiso   1.00
H41    H     0.84220   0.12710   0.20590   0.01267  Uiso   1.00
H42    H     0.80000   0.99170   0.24790   0.01267  Uiso   1.00
H43    H     0.57290   0.93870   0.16140   0.01267  Uiso   1.00
H44    H     0.62160   0.07520   0.12170   0.01267  Uiso   1.00
H45    H     0.96920   0.75770   0.35030   0.01267  Uiso   1.00
H46    H     0.09740   0.70460   0.30220   0.01267  Uiso   1.00
H47    H     0.06560   0.58510   0.24800   0.01267  Uiso   1.00
H48    H     0.77410   0.59260   0.28760   0.01267  Uiso   1.00
H49    H     0.03610   0.64230   0.64380   0.01267  Uiso   1.00
H50    H     0.98840   0.50850   0.68950   0.01267  Uiso   1.00
H51    H     0.24990   0.55290   0.75890   0.01267  Uiso   1.00
H52    H     0.29030   0.67480   0.70750   0.01267  Uiso   1.00
H53    H     0.43910   0.34890   0.81210   0.01267  Uiso   1.00
H54    H     0.51820   0.32450   0.74200   0.01267  Uiso   1.00
H55    H     0.45780   0.19940   0.69290   0.01267  Uiso   1.00
H56    H     0.25540   0.12470   0.78950   0.01267  Uiso   1.00
H57    H     0.15780   0.87290   0.70590   0.01267  Uiso   1.00
H58    H     0.20000   0.00830   0.74790   0.01267  Uiso   1.00
H59    H     0.42710   0.06130   0.66140   0.01267  Uiso   1.00
H60    H     0.37840   0.92480   0.62170   0.01267  Uiso   1.00
H61    H     0.03080   0.24230   0.85030   0.01267  Uiso   1.00
H62    H     0.90260   0.29540   0.80220   0.01267  Uiso   1.00
H63    H     0.93440   0.41490   0.74800   0.01267  Uiso   1.00
H64    H     0.22590   0.40740   0.78760   0.01267  Uiso   1.00
H65    H     0.64230   0.03610   0.35620   0.01267  Uiso   1.00
H66    H     0.50850   0.98840   0.31050   0.01267  Uiso   1.00
H67    H     0.55290   0.24990   0.24110   0.01267  Uiso   1.00
H68    H     0.67480   0.29030   0.29250   0.01267  Uiso   1.00
H69    H     0.34890   0.43910   0.18790   0.01267  Uiso   1.00
H70    H     0.32450   0.51820   0.25800   0.01267  Uiso   1.00
H71    H     0.19940   0.45780   0.30710   0.01267  Uiso   1.00
H72    H     0.12470   0.25540   0.21050   0.01267  Uiso   1.00
H73    H     0.87290   0.15780   0.29410   0.01267  Uiso   1.00
H74    H     0.00830   0.20000   0.25210   0.01267  Uiso   1.00
H75    H     0.06130   0.42710   0.33860   0.01267  Uiso   1.00
H76    H     0.92480   0.37840   0.37830   0.01267  Uiso   1.00
H77    H     0.24230   0.03080   0.14970   0.01267  Uiso   1.00
H78    H     0.29540   0.90260   0.19780   0.01267  Uiso   1.00
H79    H     0.41490   0.93440   0.25200   0.01267  Uiso   1.00
H80    H     0.40740   0.22590   0.21240   0.01267  Uiso   1.00
H81    H     0.35770   0.96390   0.85620   0.01267  Uiso   1.00
H82    H     0.49150   0.01160   0.81050   0.01267  Uiso   1.00
H83    H     0.44710   0.75010   0.74110   0.01267  Uiso   1.00
H84    H     0.32520   0.70970   0.79250   0.01267  Uiso   1.00
H85    H     0.65110   0.56090   0.68790   0.01267  Uiso   1.00
H86    H     0.67550   0.48180   0.75800   0.01267  Uiso   1.00
H87    H     0.80060   0.54220   0.80710   0.01267  Uiso   1.00
H88    H     0.87530   0.74460   0.71050   0.01267  Uiso   1.00
H89    H     0.12710   0.84220   0.79410   0.01267  Uiso   1.00
H90    H     0.99170   0.80000   0.75210   0.01267  Uiso   1.00
H91    H     0.93870   0.57290   0.83860   0.01267  Uiso   1.00
H92    H     0.07520   0.62160   0.87830   0.01267  Uiso   1.00
H93    H     0.75770   0.96920   0.64970   0.01267  Uiso   1.00
H94    H     0.70460   0.09740   0.69780   0.01267  Uiso   1.00
H95    H     0.58510   0.06560   0.75200   0.01267  Uiso   1.00
H96    H     0.59260   0.77410   0.71240   0.01267  Uiso   1.00
H97    H     0.53610   0.85770   0.60620   0.01267  Uiso   1.00
H98    H     0.48840   0.99150   0.56050   0.01267  Uiso   1.00
H99    H     0.74990   0.94710   0.49110   0.01267  Uiso   1.00
H100   H     0.79030   0.82520   0.54250   0.01267  Uiso   1.00
H101   H     0.93910   0.15110   0.43790   0.01267  Uiso   1.00
H102   H     0.01820   0.17550   0.50800   0.01267  Uiso   1.00
H103   H     0.95780   0.30060   0.55710   0.01267  Uiso   1.00
H104   H     0.75540   0.37530   0.46050   0.01267  Uiso   1.00
H105   H     0.65780   0.62710   0.54410   0.01267  Uiso   1.00
H106   H     0.70000   0.49170   0.50210   0.01267  Uiso   1.00
H107   H     0.92710   0.43870   0.58860   0.01267  Uiso   1.00
H108   H     0.87840   0.57520   0.62830   0.01267  Uiso   1.00
H109   H     0.53080   0.25770   0.39970   0.01267  Uiso   1.00
H110   H     0.40260   0.20460   0.44780   0.01267  Uiso   1.00
H111   H     0.43440   0.08510   0.50200   0.01267  Uiso   1.00
H112   H     0.72590   0.09260   0.46240   0.01267  Uiso   1.00
H113   H     0.46390   0.14230   0.10620   0.01267  Uiso   1.00
H114   H     0.51160   0.00850   0.06050   0.01267  Uiso   1.00
H115   H     0.25010   0.05290   0.99110   0.01267  Uiso   1.00
H116   H     0.20970   0.17480   0.04250   0.01267  Uiso   1.00
H117   H     0.06090   0.84890   0.93790   0.01267  Uiso   1.00
H118   H     0.98180   0.82450   0.00800   0.01267  Uiso   1.00
H119   H     0.04220   0.69940   0.05710   0.01267  Uiso   1.00
H120   H     0.24460   0.62470   0.96050   0.01267  Uiso   1.00
H121   H     0.34220   0.37290   0.04410   0.01267  Uiso   1.00
H122   H     0.30000   0.50830   0.00210   0.01267  Uiso   1.00
H123   H     0.07290   0.56130   0.08860   0.01267  Uiso   1.00
H124   H     0.12160   0.42480   0.12830   0.01267  Uiso   1.00
H125   H     0.46920   0.74230   0.89970   0.01267  Uiso   1.00
H126   H     0.59740   0.79540   0.94780   0.01267  Uiso   1.00
H127   H     0.56560   0.91490   0.00200   0.01267  Uiso   1.00
H128   H     0.27410   0.90740   0.96240   0.01267  Uiso   1.00
C1     C     0.87840   0.58050   0.41660   0.01267  Uiso   1.00
C2     C     0.95840   0.54960   0.44470   0.01267  Uiso   1.00
C3     C     0.98750   0.61220   0.48060   0.01267  Uiso   1.00
C4     C     0.93250   0.70560   0.48520   0.01267  Uiso   1.00
C5     C     0.85840   0.72850   0.45440   0.01267  Uiso   1.00
C6     C     0.20280   0.91640   0.54320   0.01267  Uiso   1.00
C7     C     0.21680   0.96430   0.50060   0.01267  Uiso   1.00
C8     C     0.29270   0.92990   0.47170   0.01267  Uiso   1.00
C9     C     0.35720   0.85220   0.48670   0.01267  Uiso   1.00
C10    C     0.33530   0.80910   0.52960   0.01267  Uiso   1.00
C11    C     0.58810   0.71260   0.44640   0.01267  Uiso   1.00
C12    C     0.50680   0.73760   0.47210   0.01267  Uiso   1.00
C13    C     0.44570   0.81930   0.45990   0.01267  Uiso   1.00
C14    C     0.47570   0.87110   0.42110   0.01267  Uiso   1.00
C15    C     0.55770   0.84140   0.39740   0.01267  Uiso   1.00
C16    C     0.21130   0.54590   0.57750   0.01267  Uiso   1.00
C17    C     0.17800   0.46750   0.54900   0.01267  Uiso   1.00
C18    C     0.10750   0.48610   0.51700   0.01267  Uiso   1.00
C19    C     0.06790   0.58590   0.51270   0.01267  Uiso   1.00
C20    C     0.11270   0.65890   0.54160   0.01267  Uiso   1.00
C21    C     0.12160   0.41950   0.91660   0.01267  Uiso   1.00
C22    C     0.04160   0.45040   0.94470   0.01267  Uiso   1.00
C23    C     0.01250   0.38780   0.98060   0.01267  Uiso   1.00
C24    C     0.06750   0.29440   0.98520   0.01267  Uiso   1.00
C25    C     0.14160   0.27150   0.95440   0.01267  Uiso   1.00
C26    C     0.79720   0.08360   0.04320   0.01267  Uiso   1.00
C27    C     0.78320   0.03570   0.00060   0.01267  Uiso   1.00
C28    C     0.70730   0.07010   0.97170   0.01267  Uiso   1.00
C29    C     0.64280   0.14780   0.98670   0.01267  Uiso   1.00
C30    C     0.66470   0.19090   0.02960   0.01267  Uiso   1.00
C31    C     0.41190   0.28740   0.94640   0.01267  Uiso   1.00
C32    C     0.49320   0.26240   0.97210   0.01267  Uiso   1.00
C33    C     0.55430   0.18070   0.95990   0.01267  Uiso   1.00
C34    C     0.52430   0.12890   0.92110   0.01267  Uiso   1.00
C35    C     0.44230   0.15860   0.89740   0.01267  Uiso   1.00
C36    C     0.78870   0.45410   0.07750   0.01267  Uiso   1.00
C37    C     0.82200   0.53250   0.04900   0.01267  Uiso   1.00
C38    C     0.89250   0.51390   0.01700   0.01267  Uiso   1.00
C39    C     0.93210   0.41410   0.01270   0.01267  Uiso   1.00
C40    C     0.88730   0.34110   0.04160   0.01267  Uiso   1.00
C41    C     0.91950   0.37840   0.16660   0.01267  Uiso   1.00
C42    C     0.95040   0.45840   0.19470   0.01267  Uiso   1.00
C43    C     0.88780   0.48750   0.23060   0.01267  Uiso   1.00
C44    C     0.79440   0.43250   0.23520   0.01267  Uiso   1.00
C45    C     0.77150   0.35840   0.20440   0.01267  Uiso   1.00
C46    C     0.58360   0.70280   0.29320   0.01267  Uiso   1.00
C47    C     0.53570   0.71680   0.25060   0.01267  Uiso   1.00
C48    C     0.57010   0.79270   0.22170   0.01267  Uiso   1.00
C49    C     0.64780   0.85720   0.23670   0.01267  Uiso   1.00
C50    C     0.69090   0.83530   0.27960   0.01267  Uiso   1.00
C51    C     0.78740   0.08810   0.19640   0.01267  Uiso   1.00
C52    C     0.76240   0.00680   0.22210   0.01267  Uiso   1.00
C53    C     0.68070   0.94570   0.20990   0.01267  Uiso   1.00
C54    C     0.62890   0.97570   0.17110   0.01267  Uiso   1.00
C55    C     0.65860   0.05770   0.14740   0.01267  Uiso   1.00
C56    C     0.95410   0.71130   0.32750   0.01267  Uiso   1.00
C57    C     0.03250   0.67800   0.29900   0.01267  Uiso   1.00
C58    C     0.01390   0.60750   0.26700   0.01267  Uiso   1.00
C59    C     0.91410   0.56790   0.26270   0.01267  Uiso   1.00
C60    C     0.84110   0.61270   0.29160   0.01267  Uiso   1.00
C61    C     0.08050   0.62160   0.66660   0.01267  Uiso   1.00
C62    C     0.04960   0.54160   0.69470   0.01267  Uiso   1.00
C63    C     0.11220   0.51250   0.73060   0.01267  Uiso   1.00
C64    C     0.20560   0.56750   0.73520   0.01267  Uiso   1.00
C65    C     0.22850   0.64160   0.70440   0.01267  Uiso   1.00
C66    C     0.41640   0.29720   0.79320   0.01267  Uiso   1.00
C67    C     0.46430   0.28320   0.75060   0.01267  Uiso   1.00
C68    C     0.42990   0.20730   0.72170   0.01267  Uiso   1.00
C69    C     0.35220   0.14280   0.73670   0.01267  Uiso   1.00
C70    C     0.30910   0.16470   0.77960   0.01267  Uiso   1.00
C71    C     0.21260   0.91190   0.69640   0.01267  Uiso   1.00
C72    C     0.23760   0.99320   0.72210   0.01267  Uiso   1.00
C73    C     0.31930   0.05430   0.70990   0.01267  Uiso   1.00
C74    C     0.37110   0.02430   0.67110   0.01267  Uiso   1.00
C75    C     0.34140   0.94230   0.64740   0.01267  Uiso   1.00
C76    C     0.04590   0.28870   0.82750   0.01267  Uiso   1.00
C77    C     0.96750   0.32200   0.79900   0.01267  Uiso   1.00
C78    C     0.98610   0.39250   0.76700   0.01267  Uiso   1.00
C79    C     0.08590   0.43210   0.76270   0.01267  Uiso   1.00
C80    C     0.15890   0.38730   0.79160   0.01267  Uiso   1.00
C81    C     0.62160   0.08050   0.33340   0.01267  Uiso   1.00
C82    C     0.54160   0.04960   0.30530   0.01267  Uiso   1.00
C83    C     0.51250   0.11220   0.26940   0.01267  Uiso   1.00
C84    C     0.56750   0.20560   0.26480   0.01267  Uiso   1.00
C85    C     0.64160   0.22850   0.29560   0.01267  Uiso   1.00
C86    C     0.29720   0.41640   0.20680   0.01267  Uiso   1.00
C87    C     0.28320   0.46430   0.24940   0.01267  Uiso   1.00
C88    C     0.20730   0.42990   0.27830   0.01267  Uiso   1.00
C89    C     0.14280   0.35220   0.26330   0.01267  Uiso   1.00
C90    C     0.16470   0.30910   0.22040   0.01267  Uiso   1.00
C91    C     0.91190   0.21260   0.30360   0.01267  Uiso   1.00
C92    C     0.99320   0.23760   0.27790   0.01267  Uiso   1.00
C93    C     0.05430   0.31930   0.29010   0.01267  Uiso   1.00
C94    C     0.02430   0.37110   0.32890   0.01267  Uiso   1.00
C95    C     0.94230   0.34140   0.35260   0.01267  Uiso   1.00
C96    C     0.28870   0.04590   0.17250   0.01267  Uiso   1.00
C97    C     0.32200   0.96750   0.20100   0.01267  Uiso   1.00
C98    C     0.39250   0.98610   0.23300   0.01267  Uiso   1.00
C99    C     0.43210   0.08590   0.23730   0.01267  Uiso   1.00
C100   C     0.38730   0.15890   0.20840   0.01267  Uiso   1.00
C101   C     0.37840   0.91950   0.83340   0.01267  Uiso   1.00
C102   C     0.45840   0.95040   0.80530   0.01267  Uiso   1.00
C103   C     0.48750   0.88780   0.76940   0.01267  Uiso   1.00
C104   C     0.43250   0.79440   0.76480   0.01267  Uiso   1.00
C105   C     0.35840   0.77150   0.79560   0.01267  Uiso   1.00
C106   C     0.70280   0.58360   0.70680   0.01267  Uiso   1.00
C107   C     0.71680   0.53570   0.74940   0.01267  Uiso   1.00
C108   C     0.79270   0.57010   0.77830   0.01267  Uiso   1.00
C109   C     0.85720   0.64780   0.76330   0.01267  Uiso   1.00
C110   C     0.83530   0.69090   0.72040   0.01267  Uiso   1.00
C111   C     0.08810   0.78740   0.80360   0.01267  Uiso   1.00
C112   C     0.00680   0.76240   0.77790   0.01267  Uiso   1.00
C113   C     0.94570   0.68070   0.79010   0.01267  Uiso   1.00
C114   C     0.97570   0.62890   0.82890   0.01267  Uiso   1.00
C115   C     0.05770   0.65860   0.85260   0.01267  Uiso   1.00
C116   C     0.71130   0.95410   0.67250   0.01267  Uiso   1.00
C117   C     0.67800   0.03250   0.70100   0.01267  Uiso   1.00
C118   C     0.60750   0.01390   0.73300   0.01267  Uiso   1.00
C119   C     0.56790   0.91410   0.73730   0.01267  Uiso   1.00
C120   C     0.61270   0.84110   0.70840   0.01267  Uiso   1.00
C121   C     0.58050   0.87840   0.58340   0.01267  Uiso   1.00
C122   C     0.54960   0.95840   0.55530   0.01267  Uiso   1.00
C123   C     0.61220   0.98750   0.51940   0.01267  Uiso   1.00
C124   C     0.70560   0.93250   0.51480   0.01267  Uiso   1.00
C125   C     0.72850   0.85840   0.54560   0.01267  Uiso   1.00
C126   C     0.91640   0.20280   0.45680   0.01267  Uiso   1.00
C127   C     0.96430   0.21680   0.49940   0.01267  Uiso   1.00
C128   C     0.92990   0.29270   0.52830   0.01267  Uiso   1.00
C129   C     0.85220   0.35720   0.51330   0.01267  Uiso   1.00
C130   C     0.80910   0.33530   0.47040   0.01267  Uiso   1.00
C131   C     0.71260   0.58810   0.55360   0.01267  Uiso   1.00
C132   C     0.73760   0.50680   0.52790   0.01267  Uiso   1.00
C133   C     0.81930   0.44570   0.54010   0.01267  Uiso   1.00
C134   C     0.87110   0.47570   0.57890   0.01267  Uiso   1.00
C135   C     0.84140   0.55770   0.60260   0.01267  Uiso   1.00
C136   C     0.54590   0.21130   0.42250   0.01267  Uiso   1.00
C137   C     0.46750   0.17800   0.45100   0.01267  Uiso   1.00
C138   C     0.48610   0.10750   0.48300   0.01267  Uiso   1.00
C139   C     0.58590   0.06790   0.48730   0.01267  Uiso   1.00
C140   C     0.65890   0.11270   0.45840   0.01267  Uiso   1.00
C141   C     0.41950   0.12160   0.08340   0.01267  Uiso   1.00
C142   C     0.45040   0.04160   0.05530   0.01267  Uiso   1.00
C143   C     0.38780   0.01250   0.01940   0.01267  Uiso   1.00
C144   C     0.29440   0.06750   0.01480   0.01267  Uiso   1.00
C145   C     0.27150   0.14160   0.04560   0.01267  Uiso   1.00
C146   C     0.08360   0.79720   0.95680   0.01267  Uiso   1.00
C147   C     0.03570   0.78320   0.99940   0.01267  Uiso   1.00
C148   C     0.07010   0.70730   0.02830   0.01267  Uiso   1.00
C149   C     0.14780   0.64280   0.01330   0.01267  Uiso   1.00
C150   C     0.19090   0.66470   0.97040   0.01267  Uiso   1.00
C151   C     0.28740   0.41190   0.05360   0.01267  Uiso   1.00
C152   C     0.26240   0.49320   0.02790   0.01267  Uiso   1.00
C153   C     0.18070   0.55430   0.04010   0.01267  Uiso   1.00
C154   C     0.12890   0.52430   0.07890   0.01267  Uiso   1.00
C155   C     0.15860   0.44230   0.10260   0.01267  Uiso   1.00
C156   C     0.45410   0.78870   0.92250   0.01267  Uiso   1.00
C157   C     0.53250   0.82200   0.95100   0.01267  Uiso   1.00
C158   C     0.51390   0.89250   0.98300   0.01267  Uiso   1.00
C159   C     0.41410   0.93210   0.98730   0.01267  Uiso   1.00
C160   C     0.34110   0.88730   0.95840   0.01267  Uiso   1.00
N1     N     0.83020   0.66790   0.41990   0.01267  Uiso   1.00
N2     N     0.61680   0.76040   0.40870   0.01267  Uiso   1.00
N3     N     0.26050   0.84080   0.55700   0.01267  Uiso   1.00
N4     N     0.17890   0.64160   0.57310   0.01267  Uiso   1.00
N5     N     0.16980   0.33210   0.91990   0.01267  Uiso   1.00
N6     N     0.38320   0.23960   0.90870   0.01267  Uiso   1.00
N7     N     0.73950   0.15920   0.05700   0.01267  Uiso   1.00
N8     N     0.82110   0.35840   0.07310   0.01267  Uiso   1.00
N9     N     0.83210   0.33020   0.16990   0.01267  Uiso   1.00
N10    N     0.73960   0.11680   0.15870   0.01267  Uiso   1.00
N11    N     0.65920   0.76050   0.30700   0.01267  Uiso   1.00
N12    N     0.85840   0.67890   0.32310   0.01267  Uiso   1.00
N13    N     0.16790   0.66980   0.66990   0.01267  Uiso   1.00
N14    N     0.26040   0.88320   0.65870   0.01267  Uiso   1.00
N15    N     0.34080   0.23950   0.80700   0.01267  Uiso   1.00
N16    N     0.14160   0.32110   0.82310   0.01267  Uiso   1.00
N17    N     0.66980   0.16790   0.33010   0.01267  Uiso   1.00
N18    N     0.88320   0.26040   0.34130   0.01267  Uiso   1.00
N19    N     0.23950   0.34080   0.19300   0.01267  Uiso   1.00
N20    N     0.32110   0.14160   0.17690   0.01267  Uiso   1.00
N21    N     0.33020   0.83210   0.83010   0.01267  Uiso   1.00
N22    N     0.11680   0.73960   0.84130   0.01267  Uiso   1.00
N23    N     0.76050   0.65920   0.69300   0.01267  Uiso   1.00
N24    N     0.67890   0.85840   0.67690   0.01267  Uiso   1.00
N25    N     0.66790   0.83020   0.58010   0.01267  Uiso   1.00
N26    N     0.76040   0.61680   0.59130   0.01267  Uiso   1.00
N27    N     0.84080   0.26050   0.44300   0.01267  Uiso   1.00
N28    N     0.64160   0.17890   0.42690   0.01267  Uiso   1.00
N29    N     0.33210   0.16980   0.08010   0.01267  Uiso   1.00
N30    N     0.23960   0.38320   0.09130   0.01267  Uiso   1.00
N31    N     0.15920   0.73950   0.94300   0.01267  Uiso   1.00
N32    N     0.35840   0.82110   0.92690   0.01267  Uiso   1.00
O1     O     0.68140   0.57770   0.36310   0.01267  Uiso   1.00
O2     O     0.70600   0.36250   0.37530   0.01267  Uiso   1.00
O3     O     0.31860   0.42230   0.86310   0.01267  Uiso   1.00
O4     O     0.29400   0.63750   0.87530   0.01267  Uiso   1.00
O5     O     0.92230   0.18140   0.11310   0.01267  Uiso   1.00
O6     O     0.13750   0.20600   0.12530   0.01267  Uiso   1.00
O7     O     0.07770   0.81860   0.61310   0.01267  Uiso   1.00
O8     O     0.86250   0.79400   0.62530   0.01267  Uiso   1.00
O9     O     0.81860   0.07770   0.38690   0.01267  Uiso   1.00
O10    O     0.79400   0.86250   0.37470   0.01267  Uiso   1.00
O11    O     0.18140   0.92230   0.88690   0.01267  Uiso   1.00
O12    O     0.20600   0.13750   0.87470   0.01267  Uiso   1.00
O13    O     0.57770   0.68140   0.63690   0.01267  Uiso   1.00
O14    O     0.36250   0.70600   0.62470   0.01267  Uiso   1.00
O15    O     0.42230   0.31860   0.13690   0.01267  Uiso   1.00
O16    O     0.63750   0.29400   0.12470   0.01267  Uiso   1.00
