data_image0
_cell_length_a       27.316
_cell_length_b       17.472
_cell_length_c       10.197
_cell_angle_alpha    90
_cell_angle_beta     90
_cell_angle_gamma    90

_symmetry_space_group_name_H-M    "P 1"
_symmetry_int_tables_number       1

loop_
  _symmetry_equiv_pos_as_xyz
  'x, y, z'

loop_
  _atom_site_label
  _atom_site_occupancy
  _atom_site_fract_x
  _atom_site_fract_y
  _atom_site_fract_z
  _atom_site_thermal_displace_type
  _atom_site_B_iso_or_equiv
  _atom_site_type_symbol
  Ga1      1.0000 0.22030  0.23920  0.08840  Biso   1.000  Ga
  Ga2      1.0000 0.34410  0.17930  0.11050  Biso   1.000  Ga
  Ga3      1.0000 0.05400  0.42350  0.90250  Biso   1.000  Ga
  Ga4      1.0000 0.24150  0.41270  0.92600  Biso   1.000  Ga
  P1       1.0000 0.14160  0.31980  0.90400  Biso   1.000  P
  P2       1.0000 0.25520  0.06570  0.11050  Biso   1.000  P
  P3       1.0000 0.44040  0.07420  0.09480  Biso   1.000  P
  P4       1.0000 0.30400  0.27340  0.88600  Biso   1.000  P
  F1       1.0000 0.28390  0.23020  0.17930  Biso   1.000  F
  F2       1.0000 0.23250  0.35240  0.09370  Biso   1.000  F
  O1       1.0000 0.21730  0.12810  0.08710  Biso   1.000  O
  O2       1.0000 0.25680  0.23390  0.92610  Biso   1.000  O
  O3       1.0000 0.40410  0.13210  0.04790  Biso   1.000  O
  O4       1.0000 0.17650  0.38790  0.88790  Biso   1.000  O
  O5       1.0000 0.43870  0.00420  0.00830  Biso   1.000  O
  O6       1.0000 0.09370  0.35030  0.96960  Biso   1.000  O
  O7       1.0000 0.29920  0.36060  0.89840  Biso   1.000  O
  O8       1.0000 0.24290  0.00080  0.01600  Biso   1.000  O
  O9       1.0000 0.31720  0.25100  0.74550  Biso   1.000  O
  O10      1.0000 0.25350  0.03480  0.25220  Biso   1.000  O
  O11      1.0000 0.16070  0.25500  0.98730  Biso   1.000  O
  O12      1.0000 0.34730  0.24790  0.97280  Biso   1.000  O
  O13      1.0000 0.30820  0.09150  0.07850  Biso   1.000  O
  O14      1.0000 0.12690  0.29170  0.76690  Biso   1.000  O
  O15      1.0000 0.43030  0.04700  0.23600  Biso   1.000  O
  O16      1.0000 0.49150  0.11160  0.08880  Biso   1.000  O
  Ga5      1.0000 0.27970  0.26080  0.58840  Biso   1.000  Ga
  Ga6      1.0000 0.15590  0.32070  0.61050  Biso   1.000  Ga
  Ga7      1.0000 0.44600  0.07650  0.40250  Biso   1.000  Ga
  Ga8      1.0000 0.25850  0.08730  0.42600  Biso   1.000  Ga
  P5       1.0000 0.35840  0.18020  0.40400  Biso   1.000  P
  P6       1.0000 0.24480  0.43430  0.61050  Biso   1.000  P
  P7       1.0000 0.05960  0.42580  0.59480  Biso   1.000  P
  P8       1.0000 0.19600  0.22660  0.38600  Biso   1.000  P
  F3       1.0000 0.21610  0.26980  0.67930  Biso   1.000  F
  F4       1.0000 0.26750  0.14760  0.59370  Biso   1.000  F
  O17      1.0000 0.28270  0.37190  0.58710  Biso   1.000  O
  O18      1.0000 0.24320  0.26610  0.42610  Biso   1.000  O
  O19      1.0000 0.09590  0.36790  0.54790  Biso   1.000  O
  O20      1.0000 0.32350  0.11210  0.38790  Biso   1.000  O
  O21      1.0000 0.06130  0.49580  0.50830  Biso   1.000  O
  O22      1.0000 0.40630  0.14970  0.46960  Biso   1.000  O
  O23      1.0000 0.20080  0.13940  0.39840  Biso   1.000  O
  O24      1.0000 0.25710  0.49920  0.51600  Biso   1.000  O
  O25      1.0000 0.18280  0.24900  0.24550  Biso   1.000  O
  O26      1.0000 0.24650  0.46520  0.75220  Biso   1.000  O
  O27      1.0000 0.33930  0.24500  0.48730  Biso   1.000  O
  O28      1.0000 0.15270  0.25210  0.47280  Biso   1.000  O
  O29      1.0000 0.19180  0.40850  0.57850  Biso   1.000  O
  O30      1.0000 0.37310  0.20830  0.26690  Biso   1.000  O
  O31      1.0000 0.06970  0.45300  0.73600  Biso   1.000  O
  O32      1.0000 0.00850  0.38840  0.58880  Biso   1.000  O
  Ga9      1.0000 0.77970  0.23920  0.41160  Biso   1.000  Ga
  Ga10     1.0000 0.65590  0.17930  0.38950  Biso   1.000  Ga
  Ga11     1.0000 0.94600  0.42350  0.59750  Biso   1.000  Ga
  Ga12     1.0000 0.75850  0.41270  0.57400  Biso   1.000  Ga
  P9       1.0000 0.85840  0.31980  0.59600  Biso   1.000  P
  P10      1.0000 0.74480  0.06570  0.38950  Biso   1.000  P
  P11      1.0000 0.55960  0.07420  0.40520  Biso   1.000  P
  P12      1.0000 0.69600  0.27340  0.61400  Biso   1.000  P
  F5       1.0000 0.71610  0.23020  0.32070  Biso   1.000  F
  F6       1.0000 0.76750  0.35240  0.40630  Biso   1.000  F
  O33      1.0000 0.78270  0.12810  0.41290  Biso   1.000  O
  O34      1.0000 0.74320  0.23390  0.57390  Biso   1.000  O
  O35      1.0000 0.59590  0.13210  0.45210  Biso   1.000  O
  O36      1.0000 0.82350  0.38790  0.61210  Biso   1.000  O
  O37      1.0000 0.56130  0.00420  0.49170  Biso   1.000  O
  O38      1.0000 0.90630  0.35030  0.53040  Biso   1.000  O
  O39      1.0000 0.70080  0.36060  0.60160  Biso   1.000  O
  O40      1.0000 0.75710  0.00080  0.48400  Biso   1.000  O
  O41      1.0000 0.68280  0.25100  0.75450  Biso   1.000  O
  O42      1.0000 0.74650  0.03480  0.24780  Biso   1.000  O
  O43      1.0000 0.83930  0.25500  0.51270  Biso   1.000  O
  O44      1.0000 0.65270  0.24790  0.52720  Biso   1.000  O
  O45      1.0000 0.69180  0.09150  0.42150  Biso   1.000  O
  O46      1.0000 0.87310  0.29170  0.73310  Biso   1.000  O
  O47      1.0000 0.56970  0.04700  0.26400  Biso   1.000  O
  O48      1.0000 0.50850  0.11160  0.41120  Biso   1.000  O
  Ga13     1.0000 0.72030  0.26080  0.91160  Biso   1.000  Ga
  Ga14     1.0000 0.84410  0.32070  0.88950  Biso   1.000  Ga
  Ga15     1.0000 0.55400  0.07650  0.09750  Biso   1.000  Ga
  Ga16     1.0000 0.74150  0.08730  0.07400  Biso   1.000  Ga
  P13      1.0000 0.64160  0.18020  0.09600  Biso   1.000  P
  P14      1.0000 0.75520  0.43430  0.88950  Biso   1.000  P
  P15      1.0000 0.94040  0.42580  0.90520  Biso   1.000  P
  P16      1.0000 0.80400  0.22660  0.11400  Biso   1.000  P
  F7       1.0000 0.78390  0.26980  0.82070  Biso   1.000  F
  F8       1.0000 0.73250  0.14760  0.90630  Biso   1.000  F
  O49      1.0000 0.71730  0.37190  0.91290  Biso   1.000  O
  O50      1.0000 0.75680  0.26610  0.07390  Biso   1.000  O
  O51      1.0000 0.90410  0.36790  0.95210  Biso   1.000  O
  O52      1.0000 0.67650  0.11210  0.11210  Biso   1.000  O
  O53      1.0000 0.93870  0.49580  0.99170  Biso   1.000  O
  O54      1.0000 0.59370  0.14970  0.03040  Biso   1.000  O
  O55      1.0000 0.79920  0.13940  0.10160  Biso   1.000  O
  O56      1.0000 0.74290  0.49920  0.98400  Biso   1.000  O
  O57      1.0000 0.81720  0.24900  0.25450  Biso   1.000  O
  O58      1.0000 0.75350  0.46520  0.74780  Biso   1.000  O
  O59      1.0000 0.66070  0.24500  0.01270  Biso   1.000  O
  O60      1.0000 0.84730  0.25210  0.02720  Biso   1.000  O
  O61      1.0000 0.80820  0.40850  0.92150  Biso   1.000  O
  O62      1.0000 0.62690  0.20830  0.23310  Biso   1.000  O
  O63      1.0000 0.93030  0.45300  0.76400  Biso   1.000  O
  O64      1.0000 0.99150  0.38840  0.91120  Biso   1.000  O
  Ga17     1.0000 0.77970  0.76080  0.91160  Biso   1.000  Ga
  Ga18     1.0000 0.65590  0.82070  0.88950  Biso   1.000  Ga
  Ga19     1.0000 0.94600  0.57650  0.09750  Biso   1.000  Ga
  Ga20     1.0000 0.75850  0.58730  0.07400  Biso   1.000  Ga
  P17      1.0000 0.85840  0.68020  0.09600  Biso   1.000  P
  P18      1.0000 0.74480  0.93430  0.88950  Biso   1.000  P
  P19      1.0000 0.55960  0.92580  0.90520  Biso   1.000  P
  P20      1.0000 0.69600  0.72660  0.11400  Biso   1.000  P
  F9       1.0000 0.71610  0.76980  0.82070  Biso   1.000  F
  F10      1.0000 0.76750  0.64760  0.90630  Biso   1.000  F
  O65      1.0000 0.78270  0.87190  0.91290  Biso   1.000  O
  O66      1.0000 0.74320  0.76610  0.07390  Biso   1.000  O
  O67      1.0000 0.59590  0.86790  0.95210  Biso   1.000  O
  O68      1.0000 0.82350  0.61210  0.11210  Biso   1.000  O
  O69      1.0000 0.56130  0.99580  0.99170  Biso   1.000  O
  O70      1.0000 0.90630  0.64970  0.03040  Biso   1.000  O
  O71      1.0000 0.70080  0.63940  0.10160  Biso   1.000  O
  O72      1.0000 0.75710  0.99920  0.98400  Biso   1.000  O
  O73      1.0000 0.68280  0.74900  0.25450  Biso   1.000  O
  O74      1.0000 0.74650  0.96520  0.74780  Biso   1.000  O
  O75      1.0000 0.83930  0.74500  0.01270  Biso   1.000  O
  O76      1.0000 0.65270  0.75210  0.02720  Biso   1.000  O
  O77      1.0000 0.69180  0.90850  0.92150  Biso   1.000  O
  O78      1.0000 0.87310  0.70830  0.23310  Biso   1.000  O
  O79      1.0000 0.56970  0.95300  0.76400  Biso   1.000  O
  O80      1.0000 0.50850  0.88840  0.91120  Biso   1.000  O
  Ga21     1.0000 0.72030  0.73920  0.41160  Biso   1.000  Ga
  Ga22     1.0000 0.84410  0.67930  0.38950  Biso   1.000  Ga
  Ga23     1.0000 0.55400  0.92350  0.59750  Biso   1.000  Ga
  Ga24     1.0000 0.74150  0.91270  0.57400  Biso   1.000  Ga
  P21      1.0000 0.64160  0.81980  0.59600  Biso   1.000  P
  P22      1.0000 0.75520  0.56570  0.38950  Biso   1.000  P
  P23      1.0000 0.94040  0.57420  0.40520  Biso   1.000  P
  P24      1.0000 0.80400  0.77340  0.61400  Biso   1.000  P
  F11      1.0000 0.78390  0.73020  0.32070  Biso   1.000  F
  F12      1.0000 0.73250  0.85240  0.40630  Biso   1.000  F
  O81      1.0000 0.71730  0.62810  0.41290  Biso   1.000  O
  O82      1.0000 0.75680  0.73390  0.57390  Biso   1.000  O
  O83      1.0000 0.90410  0.63210  0.45210  Biso   1.000  O
  O84      1.0000 0.67650  0.88790  0.61210  Biso   1.000  O
  O85      1.0000 0.93870  0.50420  0.49170  Biso   1.000  O
  O86      1.0000 0.59370  0.85030  0.53040  Biso   1.000  O
  O87      1.0000 0.79920  0.86060  0.60160  Biso   1.000  O
  O88      1.0000 0.74290  0.50080  0.48400  Biso   1.000  O
  O89      1.0000 0.81720  0.75100  0.75450  Biso   1.000  O
  O90      1.0000 0.75350  0.53480  0.24780  Biso   1.000  O
  O91      1.0000 0.66070  0.75500  0.51270  Biso   1.000  O
  O92      1.0000 0.84730  0.74790  0.52720  Biso   1.000  O
  O93      1.0000 0.80820  0.59150  0.42150  Biso   1.000  O
  O94      1.0000 0.62690  0.79170  0.73310  Biso   1.000  O
  O95      1.0000 0.93030  0.54700  0.26400  Biso   1.000  O
  O96      1.0000 0.99150  0.61160  0.41120  Biso   1.000  O
  Ga25     1.0000 0.22030  0.76080  0.58840  Biso   1.000  Ga
  Ga26     1.0000 0.34410  0.82070  0.61050  Biso   1.000  Ga
  Ga27     1.0000 0.05400  0.57650  0.40250  Biso   1.000  Ga
  Ga28     1.0000 0.24150  0.58730  0.42600  Biso   1.000  Ga
  P25      1.0000 0.14160  0.68020  0.40400  Biso   1.000  P
  P26      1.0000 0.25520  0.93430  0.61050  Biso   1.000  P
  P27      1.0000 0.44040  0.92580  0.59480  Biso   1.000  P
  P28      1.0000 0.30400  0.72660  0.38600  Biso   1.000  P
  F13      1.0000 0.28390  0.76980  0.67930  Biso   1.000  F
  F14      1.0000 0.23250  0.64760  0.59370  Biso   1.000  F
  O97      1.0000 0.21730  0.87190  0.58710  Biso   1.000  O
  O98      1.0000 0.25680  0.76610  0.42610  Biso   1.000  O
  O99      1.0000 0.40410  0.86790  0.54790  Biso   1.000  O
  O100     1.0000 0.17650  0.61210  0.38790  Biso   1.000  O
  O101     1.0000 0.43870  0.99580  0.50830  Biso   1.000  O
  O102     1.0000 0.09370  0.64970  0.46960  Biso   1.000  O
  O103     1.0000 0.29920  0.63940  0.39840  Biso   1.000  O
  O104     1.0000 0.24290  0.99920  0.51600  Biso   1.000  O
  O105     1.0000 0.31720  0.74900  0.24550  Biso   1.000  O
  O106     1.0000 0.25350  0.96520  0.75220  Biso   1.000  O
  O107     1.0000 0.16070  0.74500  0.48730  Biso   1.000  O
  O108     1.0000 0.34730  0.75210  0.47280  Biso   1.000  O
  O109     1.0000 0.30820  0.90850  0.57850  Biso   1.000  O
  O110     1.0000 0.12690  0.70830  0.26690  Biso   1.000  O
  O111     1.0000 0.43030  0.95300  0.73600  Biso   1.000  O
  O112     1.0000 0.49150  0.88840  0.58880  Biso   1.000  O
  Ga29     1.0000 0.27970  0.73920  0.08840  Biso   1.000  Ga
  Ga30     1.0000 0.15590  0.67930  0.11050  Biso   1.000  Ga
  Ga31     1.0000 0.44600  0.92350  0.90250  Biso   1.000  Ga
  Ga32     1.0000 0.25850  0.91270  0.92600  Biso   1.000  Ga
  P29      1.0000 0.35840  0.81980  0.90400  Biso   1.000  P
  P30      1.0000 0.24480  0.56570  0.11050  Biso   1.000  P
  P31      1.0000 0.05960  0.57420  0.09480  Biso   1.000  P
  P32      1.0000 0.19600  0.77340  0.88600  Biso   1.000  P
  F15      1.0000 0.21610  0.73020  0.17930  Biso   1.000  F
  F16      1.0000 0.26750  0.85240  0.09370  Biso   1.000  F
  O113     1.0000 0.28270  0.62810  0.08710  Biso   1.000  O
  O114     1.0000 0.24320  0.73390  0.92610  Biso   1.000  O
  O115     1.0000 0.09590  0.63210  0.04790  Biso   1.000  O
  O116     1.0000 0.32350  0.88790  0.88790  Biso   1.000  O
  O117     1.0000 0.06130  0.50420  0.00830  Biso   1.000  O
  O118     1.0000 0.40630  0.85030  0.96960  Biso   1.000  O
  O119     1.0000 0.20080  0.86060  0.89840  Biso   1.000  O
  O120     1.0000 0.25710  0.50080  0.01600  Biso   1.000  O
  O121     1.0000 0.18280  0.75100  0.74550  Biso   1.000  O
  O122     1.0000 0.24650  0.53480  0.25220  Biso   1.000  O
  O123     1.0000 0.33930  0.75500  0.98730  Biso   1.000  O
  O124     1.0000 0.15270  0.74790  0.97280  Biso   1.000  O
  O125     1.0000 0.19180  0.59150  0.07850  Biso   1.000  O
  O126     1.0000 0.37310  0.79170  0.76690  Biso   1.000  O
  O127     1.0000 0.06970  0.54700  0.23600  Biso   1.000  O
  O128     1.0000 0.00850  0.61160  0.08880  Biso   1.000  O
