data_image0
_cell_length_a       9.4088
_cell_length_b       9.0924
_cell_length_c       9.6884
_cell_angle_alpha    90
_cell_angle_beta     117.252
_cell_angle_gamma    90

_symmetry_space_group_name_H-M    "P 1"
_symmetry_int_tables_number       1

loop_
  _symmetry_equiv_pos_as_xyz
  'x, y, z'

loop_
  _atom_site_label
  _atom_site_occupancy
  _atom_site_fract_x
  _atom_site_fract_y
  _atom_site_fract_z
  _atom_site_thermal_displace_type
  _atom_site_B_iso_or_equiv
  _atom_site_type_symbol
  P1       1.0000 0.33220  0.60210  0.06440  Biso   1.000  P
  P2       1.0000 0.14320  0.15730  0.97210  Biso   1.000  P
  O1       1.0000 0.24850  0.55960  0.89300  Biso   1.000  O
  O2       1.0000 0.23510  0.72310  0.09160  Biso   1.000  O
  O3       1.0000 0.24930  0.05120  0.09630  Biso   1.000  O
  O4       1.0000 0.24310  0.23370  0.90790  Biso   1.000  O
  O5       1.0000 0.50390  0.64490  0.11750  Biso   1.000  O
  O6       1.0000 0.99490  0.08710  0.84740  Biso   1.000  O
  O7       1.0000 0.34120  0.46400  0.16570  Biso   1.000  O
  O8       1.0000 0.08750  0.27830  0.05570  Biso   1.000  O
  H1       1.0000 0.24940  0.43330  0.13310  Biso   1.000  H
  H2       1.0000 0.01430  0.28840  0.03110  Biso   1.000  H
  P3       1.0000 0.16780  0.60210  0.43560  Biso   1.000  P
  P4       1.0000 0.35680  0.15730  0.52790  Biso   1.000  P
  O9       1.0000 0.25150  0.55960  0.60700  Biso   1.000  O
  O10      1.0000 0.26490  0.72310  0.40840  Biso   1.000  O
  O11      1.0000 0.25070  0.05120  0.40370  Biso   1.000  O
  O12      1.0000 0.25690  0.23370  0.59210  Biso   1.000  O
  O13      1.0000 0.99610  0.64490  0.38250  Biso   1.000  O
  O14      1.0000 0.50510  0.08710  0.65260  Biso   1.000  O
  O15      1.0000 0.15880  0.46400  0.33430  Biso   1.000  O
  O16      1.0000 0.41250  0.27830  0.44430  Biso   1.000  O
  H3       1.0000 0.25060  0.43330  0.36690  Biso   1.000  H
  H4       1.0000 0.48570  0.28840  0.46890  Biso   1.000  H
  P5       1.0000 0.66780  0.39790  0.93560  Biso   1.000  P
  P6       1.0000 0.85680  0.84270  0.02790  Biso   1.000  P
  O17      1.0000 0.75150  0.44040  0.10700  Biso   1.000  O
  O18      1.0000 0.76490  0.27690  0.90840  Biso   1.000  O
  O19      1.0000 0.75070  0.94880  0.90370  Biso   1.000  O
  O20      1.0000 0.75690  0.76630  0.09210  Biso   1.000  O
  O21      1.0000 0.49610  0.35510  0.88250  Biso   1.000  O
  O22      1.0000 0.00510  0.91290  0.15260  Biso   1.000  O
  O23      1.0000 0.65880  0.53600  0.83430  Biso   1.000  O
  O24      1.0000 0.91250  0.72170  0.94430  Biso   1.000  O
  H5       1.0000 0.75060  0.56670  0.86690  Biso   1.000  H
  H6       1.0000 0.98570  0.71160  0.96890  Biso   1.000  H
  P7       1.0000 0.83220  0.39790  0.56440  Biso   1.000  P
  P8       1.0000 0.64320  0.84270  0.47210  Biso   1.000  P
  O25      1.0000 0.74850  0.44040  0.39300  Biso   1.000  O
  O26      1.0000 0.73510  0.27690  0.59160  Biso   1.000  O
  O27      1.0000 0.74930  0.94880  0.59630  Biso   1.000  O
  O28      1.0000 0.74310  0.76630  0.40790  Biso   1.000  O
  O29      1.0000 0.00390  0.35510  0.61750  Biso   1.000  O
  O30      1.0000 0.49490  0.91290  0.34740  Biso   1.000  O
  O31      1.0000 0.84120  0.53600  0.66570  Biso   1.000  O
  O32      1.0000 0.58750  0.72170  0.55570  Biso   1.000  O
  H7       1.0000 0.74940  0.56670  0.63310  Biso   1.000  H
  H8       1.0000 0.51430  0.71160  0.53110  Biso   1.000  H
  Sc1      1.0000 0.25000  0.89430  0.25000  Biso   1.000  Sc
  Sc2      1.0000 0.75000  0.10570  0.75000  Biso   1.000  Sc
  Sc3      1.0000 0.25000  0.38270  0.75000  Biso   1.000  Sc
  Sc4      1.0000 0.75000  0.61730  0.25000  Biso   1.000  Sc
