data_image0
_cell_length_a       9.4111
_cell_length_b       9.1066
_cell_length_c       9.695
_cell_angle_alpha    90
_cell_angle_beta     117.272
_cell_angle_gamma    90

_symmetry_space_group_name_H-M    "P 1"
_symmetry_int_tables_number       1

loop_
  _symmetry_equiv_pos_as_xyz
  'x, y, z'

loop_
  _atom_site_label
  _atom_site_occupancy
  _atom_site_fract_x
  _atom_site_fract_y
  _atom_site_fract_z
  _atom_site_thermal_displace_type
  _atom_site_B_iso_or_equiv
  _atom_site_type_symbol
  P1       1.0000 0.83172  0.10162  0.06395  Biso   1.000  P
  P2       1.0000 0.35592  0.34309  0.02725  Biso   1.000  P
  O1       1.0000 0.73368  0.22278  0.09113  Biso   1.000  O
  O2       1.0000 0.74714  0.05986  0.89182  Biso   1.000  O
  O3       1.0000 0.84059  0.96350  0.16485  Biso   1.000  O
  H1       1.0000 0.74910  0.92630  0.13200  Biso   1.000  H
  O4       1.0000 0.00394  0.14504  0.11785  Biso   1.000  O
  O5       1.0000 0.25602  0.26612  0.09126  Biso   1.000  O
  O6       1.0000 0.41231  0.22249  0.94313  Biso   1.000  O
  H2       1.0000 0.51110  0.20860  0.99510  Biso   1.000  H
  O7       1.0000 0.50552  0.41304  0.15275  Biso   1.000  O
  O8       1.0000 0.24952  0.44982  0.90361  Biso   1.000  O
  P3       1.0000 0.66828  0.10162  0.43605  Biso   1.000  P
  P4       1.0000 0.14408  0.34309  0.47275  Biso   1.000  P
  O9       1.0000 0.76632  0.22278  0.40887  Biso   1.000  O
  O10      1.0000 0.75286  0.05986  0.60818  Biso   1.000  O
  O11      1.0000 0.65941  0.96350  0.33515  Biso   1.000  O
  H3       1.0000 0.75090  0.92630  0.36800  Biso   1.000  H
  O12      1.0000 0.49606  0.14504  0.38215  Biso   1.000  O
  O13      1.0000 0.24398  0.26612  0.40874  Biso   1.000  O
  O14      1.0000 0.08769  0.22249  0.55687  Biso   1.000  O
  H4       1.0000 0.98890  0.20860  0.50490  Biso   1.000  H
  O15      1.0000 0.99448  0.41304  0.34725  Biso   1.000  O
  O16      1.0000 0.25048  0.44982  0.59639  Biso   1.000  O
  P5       1.0000 0.16828  0.89838  0.93605  Biso   1.000  P
  P6       1.0000 0.64408  0.65691  0.97275  Biso   1.000  P
  O17      1.0000 0.26632  0.77722  0.90887  Biso   1.000  O
  O18      1.0000 0.25286  0.94014  0.10818  Biso   1.000  O
  O19      1.0000 0.15941  0.03650  0.83515  Biso   1.000  O
  H5       1.0000 0.25090  0.07370  0.86800  Biso   1.000  H
  O20      1.0000 0.99606  0.85496  0.88215  Biso   1.000  O
  O21      1.0000 0.74398  0.73388  0.90874  Biso   1.000  O
  O22      1.0000 0.58769  0.77751  0.05687  Biso   1.000  O
  H6       1.0000 0.48890  0.79140  0.00490  Biso   1.000  H
  O23      1.0000 0.49448  0.58696  0.84725  Biso   1.000  O
  O24      1.0000 0.75048  0.55018  0.09639  Biso   1.000  O
  P7       1.0000 0.33172  0.89838  0.56395  Biso   1.000  P
  P8       1.0000 0.85592  0.65691  0.52725  Biso   1.000  P
  O25      1.0000 0.23368  0.77722  0.59113  Biso   1.000  O
  O26      1.0000 0.24714  0.94014  0.39182  Biso   1.000  O
  O27      1.0000 0.34059  0.03650  0.66485  Biso   1.000  O
  H7       1.0000 0.24910  0.07370  0.63200  Biso   1.000  H
  O28      1.0000 0.50394  0.85496  0.61785  Biso   1.000  O
  O29      1.0000 0.75602  0.73388  0.59126  Biso   1.000  O
  O30      1.0000 0.91231  0.77751  0.44313  Biso   1.000  O
  H8       1.0000 0.01110  0.79140  0.49510  Biso   1.000  H
  O31      1.0000 0.00552  0.58696  0.65275  Biso   1.000  O
  O32      1.0000 0.74952  0.55018  0.40361  Biso   1.000  O
  Sc1      1.0000 0.75000  0.39364  0.25000  Biso   1.000  Sc
  Sc2      1.0000 0.25000  0.60636  0.75000  Biso   1.000  Sc
  Sc3      1.0000 0.75000  0.88254  0.75000  Biso   1.000  Sc
  Sc4      1.0000 0.25000  0.11746  0.25000  Biso   1.000  Sc
