data_image0
_cell_length_a       7.4416
_cell_length_b       24.8056
_cell_length_c       30.314
_cell_angle_alpha    90
_cell_angle_beta     91.637
_cell_angle_gamma    90

_symmetry_space_group_name_H-M    "P 1"
_symmetry_int_tables_number       1

loop_
  _symmetry_equiv_pos_as_xyz
  'x, y, z'

loop_
  _atom_site_label
  _atom_site_occupancy
  _atom_site_fract_x
  _atom_site_fract_y
  _atom_site_fract_z
  _atom_site_thermal_displace_type
  _atom_site_B_iso_or_equiv
  _atom_site_type_symbol
  O1       1.0000 0.25170  0.35729  0.73456  Biso   1.000  O
  C1       1.0000 0.19480  0.38900  0.70425  Biso   1.000  C
  O2       1.0000 0.02920  0.39574  0.70023  Biso   1.000  O
  C2       1.0000 0.32340  0.41380  0.67391  Biso   1.000  C
  C3       1.0000 0.26260  0.44490  0.63850  Biso   1.000  C
  C4       1.0000 0.38220  0.46380  0.60770  Biso   1.000  C
  C5       1.0000 0.56390  0.45160  0.61251  Biso   1.000  C
  C6       1.0000 0.62440  0.42250  0.64880  Biso   1.000  C
  C7       1.0000 0.50520  0.40340  0.67900  Biso   1.000  C
  C8       1.0000 0.69190  0.46820  0.57768  Biso   1.000  C
  C9       1.0000 0.17940  0.49300  0.41167  Biso   1.000  C
  N1       1.0000 0.04750  0.47510  0.43882  Biso   1.000  N
  N2       1.0000 0.79080  0.45050  0.50228  Biso   1.000  N
  C10      1.0000 0.68180  0.44210  0.53730  Biso   1.000  C
  C11      1.0000 0.55450  0.40080  0.52690  Biso   1.000  C
  C12      1.0000 0.58910  0.38270  0.48670  Biso   1.000  C
  C13      1.0000 0.73450  0.41420  0.47010  Biso   1.000  C
  C14      1.0000 0.81180  0.40670  0.42960  Biso   1.000  C
  C15      1.0000 0.95790  0.43600  0.41532  Biso   1.000  C
  C16      1.0000 0.03460  0.42930  0.37200  Biso   1.000  C
  C17      1.0000 0.16930  0.46510  0.37042  Biso   1.000  C
  C18      1.0000 0.73160  0.36550  0.39940  Biso   1.000  C
  C19      1.0000 0.82430  0.31910  0.38890  Biso   1.000  C
  C20      1.0000 0.74650  0.28170  0.35950  Biso   1.000  C
  C21      1.0000 0.58270  0.29050  0.34080  Biso   1.000  C
  C22      1.0000 0.48860  0.33540  0.35190  Biso   1.000  C
  C23      1.0000 0.56310  0.37320  0.38010  Biso   1.000  C
  C24      1.0000 0.49460  0.25340  0.30760  Biso   1.000  C
  O3       1.0000 0.59310  0.21420  0.29499  Biso   1.000  O
  O4       1.0000 0.34440  0.26060  0.29300  Biso   1.000  O
  H1       1.0000 0.13980  0.45300  0.63530  Biso   1.000  H
  H2       1.0000 0.34030  0.48480  0.58430  Biso   1.000  H
  H3       1.0000 0.74590  0.41510  0.65290  Biso   1.000  H
  H4       1.0000 0.54650  0.38320  0.70320  Biso   1.000  H
  H5       1.0000 0.46720  0.38840  0.54540  Biso   1.000  H
  H6       1.0000 0.52760  0.35580  0.47170  Biso   1.000  H
  H7       1.0000 0.99640  0.40550  0.34990  Biso   1.000  H
  H8       1.0000 0.24560  0.47050  0.34680  Biso   1.000  H
  H9       1.0000 0.93560  0.31240  0.40200  Biso   1.000  H
  H10      1.0000 0.81020  0.25060  0.35280  Biso   1.000  H
  H11      1.0000 0.37310  0.34060  0.34030  Biso   1.000  H
  H12      1.0000 0.49980  0.40440  0.38680  Biso   1.000  H
  O5       1.0000 0.75170  0.85729  0.73456  Biso   1.000  O
  C25      1.0000 0.69480  0.88900  0.70425  Biso   1.000  C
  O6       1.0000 0.52920  0.89574  0.70023  Biso   1.000  O
  C26      1.0000 0.82340  0.91380  0.67391  Biso   1.000  C
  C27      1.0000 0.76260  0.94490  0.63850  Biso   1.000  C
  C28      1.0000 0.88220  0.96380  0.60770  Biso   1.000  C
  C29      1.0000 0.06390  0.95160  0.61251  Biso   1.000  C
  C30      1.0000 0.12440  0.92250  0.64880  Biso   1.000  C
  C31      1.0000 0.00520  0.90340  0.67900  Biso   1.000  C
  C32      1.0000 0.19190  0.96820  0.57768  Biso   1.000  C
  C33      1.0000 0.67940  0.99300  0.41167  Biso   1.000  C
  N3       1.0000 0.54750  0.97510  0.43882  Biso   1.000  N
  N4       1.0000 0.29080  0.95050  0.50228  Biso   1.000  N
  C34      1.0000 0.18180  0.94210  0.53730  Biso   1.000  C
  C35      1.0000 0.05450  0.90080  0.52690  Biso   1.000  C
  C36      1.0000 0.08910  0.88270  0.48670  Biso   1.000  C
  C37      1.0000 0.23450  0.91420  0.47010  Biso   1.000  C
  C38      1.0000 0.31180  0.90670  0.42960  Biso   1.000  C
  C39      1.0000 0.45790  0.93600  0.41532  Biso   1.000  C
  C40      1.0000 0.53460  0.92930  0.37200  Biso   1.000  C
  C41      1.0000 0.66930  0.96510  0.37042  Biso   1.000  C
  C42      1.0000 0.23160  0.86550  0.39940  Biso   1.000  C
  C43      1.0000 0.32430  0.81910  0.38890  Biso   1.000  C
  C44      1.0000 0.24650  0.78170  0.35950  Biso   1.000  C
  C45      1.0000 0.08270  0.79050  0.34080  Biso   1.000  C
  C46      1.0000 0.98860  0.83540  0.35190  Biso   1.000  C
  C47      1.0000 0.06310  0.87320  0.38010  Biso   1.000  C
  C48      1.0000 0.99460  0.75340  0.30760  Biso   1.000  C
  O7       1.0000 0.09310  0.71420  0.29499  Biso   1.000  O
  O8       1.0000 0.84440  0.76060  0.29300  Biso   1.000  O
  H13      1.0000 0.63980  0.95300  0.63530  Biso   1.000  H
  H14      1.0000 0.84030  0.98480  0.58430  Biso   1.000  H
  H15      1.0000 0.24590  0.91510  0.65290  Biso   1.000  H
  H16      1.0000 0.04650  0.88320  0.70320  Biso   1.000  H
  H17      1.0000 0.96720  0.88840  0.54540  Biso   1.000  H
  H18      1.0000 0.02760  0.85580  0.47170  Biso   1.000  H
  H19      1.0000 0.49640  0.90550  0.34990  Biso   1.000  H
  H20      1.0000 0.74560  0.97050  0.34680  Biso   1.000  H
  H21      1.0000 0.43560  0.81240  0.40200  Biso   1.000  H
  H22      1.0000 0.31020  0.75060  0.35280  Biso   1.000  H
  H23      1.0000 0.87310  0.84060  0.34030  Biso   1.000  H
  H24      1.0000 0.99980  0.90440  0.38680  Biso   1.000  H
  O9       1.0000 0.74830  0.35729  0.76544  Biso   1.000  O
  C49      1.0000 0.80520  0.38900  0.79575  Biso   1.000  C
  O10      1.0000 0.97080  0.39574  0.79977  Biso   1.000  O
  C50      1.0000 0.67660  0.41380  0.82609  Biso   1.000  C
  C51      1.0000 0.73740  0.44490  0.86150  Biso   1.000  C
  C52      1.0000 0.61780  0.46380  0.89230  Biso   1.000  C
  C53      1.0000 0.43610  0.45160  0.88749  Biso   1.000  C
  C54      1.0000 0.37560  0.42250  0.85120  Biso   1.000  C
  C55      1.0000 0.49480  0.40340  0.82100  Biso   1.000  C
  C56      1.0000 0.30810  0.46820  0.92232  Biso   1.000  C
  C57      1.0000 0.82060  0.49300  0.08833  Biso   1.000  C
  N5       1.0000 0.95250  0.47510  0.06118  Biso   1.000  N
  N6       1.0000 0.20920  0.45050  0.99772  Biso   1.000  N
  C58      1.0000 0.31820  0.44210  0.96270  Biso   1.000  C
  C59      1.0000 0.44550  0.40080  0.97310  Biso   1.000  C
  C60      1.0000 0.41090  0.38270  0.01330  Biso   1.000  C
  C61      1.0000 0.26550  0.41420  0.02990  Biso   1.000  C
  C62      1.0000 0.18820  0.40670  0.07040  Biso   1.000  C
  C63      1.0000 0.04210  0.43600  0.08468  Biso   1.000  C
  C64      1.0000 0.96540  0.42930  0.12800  Biso   1.000  C
  C65      1.0000 0.83070  0.46510  0.12958  Biso   1.000  C
  C66      1.0000 0.26840  0.36550  0.10060  Biso   1.000  C
  C67      1.0000 0.17570  0.31910  0.11110  Biso   1.000  C
  C68      1.0000 0.25350  0.28170  0.14050  Biso   1.000  C
  C69      1.0000 0.41730  0.29050  0.15920  Biso   1.000  C
  C70      1.0000 0.51140  0.33540  0.14810  Biso   1.000  C
  C71      1.0000 0.43690  0.37320  0.11990  Biso   1.000  C
  C72      1.0000 0.50540  0.25340  0.19240  Biso   1.000  C
  O11      1.0000 0.40690  0.21420  0.20501  Biso   1.000  O
  O12      1.0000 0.65560  0.26060  0.20700  Biso   1.000  O
  H25      1.0000 0.86020  0.45300  0.86470  Biso   1.000  H
  H26      1.0000 0.65970  0.48480  0.91570  Biso   1.000  H
  H27      1.0000 0.25410  0.41510  0.84710  Biso   1.000  H
  H28      1.0000 0.45350  0.38320  0.79680  Biso   1.000  H
  H29      1.0000 0.53280  0.38840  0.95460  Biso   1.000  H
  H30      1.0000 0.47240  0.35580  0.02830  Biso   1.000  H
  H31      1.0000 0.00360  0.40550  0.15010  Biso   1.000  H
  H32      1.0000 0.75440  0.47050  0.15320  Biso   1.000  H
  H33      1.0000 0.06440  0.31240  0.09800  Biso   1.000  H
  H34      1.0000 0.18980  0.25060  0.14720  Biso   1.000  H
  H35      1.0000 0.62690  0.34060  0.15970  Biso   1.000  H
  H36      1.0000 0.50020  0.40440  0.11320  Biso   1.000  H
  O13      1.0000 0.24830  0.85729  0.76544  Biso   1.000  O
  C73      1.0000 0.30520  0.88900  0.79575  Biso   1.000  C
  O14      1.0000 0.47080  0.89574  0.79977  Biso   1.000  O
  C74      1.0000 0.17660  0.91380  0.82609  Biso   1.000  C
  C75      1.0000 0.23740  0.94490  0.86150  Biso   1.000  C
  C76      1.0000 0.11780  0.96380  0.89230  Biso   1.000  C
  C77      1.0000 0.93610  0.95160  0.88749  Biso   1.000  C
  C78      1.0000 0.87560  0.92250  0.85120  Biso   1.000  C
  C79      1.0000 0.99480  0.90340  0.82100  Biso   1.000  C
  C80      1.0000 0.80810  0.96820  0.92232  Biso   1.000  C
  C81      1.0000 0.32060  0.99300  0.08833  Biso   1.000  C
  N7       1.0000 0.45250  0.97510  0.06118  Biso   1.000  N
  N8       1.0000 0.70920  0.95050  0.99772  Biso   1.000  N
  C82      1.0000 0.81820  0.94210  0.96270  Biso   1.000  C
  C83      1.0000 0.94550  0.90080  0.97310  Biso   1.000  C
  C84      1.0000 0.91090  0.88270  0.01330  Biso   1.000  C
  C85      1.0000 0.76550  0.91420  0.02990  Biso   1.000  C
  C86      1.0000 0.68820  0.90670  0.07040  Biso   1.000  C
  C87      1.0000 0.54210  0.93600  0.08468  Biso   1.000  C
  C88      1.0000 0.46540  0.92930  0.12800  Biso   1.000  C
  C89      1.0000 0.33070  0.96510  0.12958  Biso   1.000  C
  C90      1.0000 0.76840  0.86550  0.10060  Biso   1.000  C
  C91      1.0000 0.67570  0.81910  0.11110  Biso   1.000  C
  C92      1.0000 0.75350  0.78170  0.14050  Biso   1.000  C
  C93      1.0000 0.91730  0.79050  0.15920  Biso   1.000  C
  C94      1.0000 0.01140  0.83540  0.14810  Biso   1.000  C
  C95      1.0000 0.93690  0.87320  0.11990  Biso   1.000  C
  C96      1.0000 0.00540  0.75340  0.19240  Biso   1.000  C
  O15      1.0000 0.90690  0.71420  0.20501  Biso   1.000  O
  O16      1.0000 0.15560  0.76060  0.20700  Biso   1.000  O
  H37      1.0000 0.36020  0.95300  0.86470  Biso   1.000  H
  H38      1.0000 0.15970  0.98480  0.91570  Biso   1.000  H
  H39      1.0000 0.75410  0.91510  0.84710  Biso   1.000  H
  H40      1.0000 0.95350  0.88320  0.79680  Biso   1.000  H
  H41      1.0000 0.03280  0.88840  0.95460  Biso   1.000  H
  H42      1.0000 0.97240  0.85580  0.02830  Biso   1.000  H
  H43      1.0000 0.50360  0.90550  0.15010  Biso   1.000  H
  H44      1.0000 0.25440  0.97050  0.15320  Biso   1.000  H
  H45      1.0000 0.56440  0.81240  0.09800  Biso   1.000  H
  H46      1.0000 0.68980  0.75060  0.14720  Biso   1.000  H
  H47      1.0000 0.12690  0.84060  0.15970  Biso   1.000  H
  H48      1.0000 0.00020  0.90440  0.11320  Biso   1.000  H
  O17      1.0000 0.74830  0.64271  0.26544  Biso   1.000  O
  C97      1.0000 0.80520  0.61100  0.29575  Biso   1.000  C
  O18      1.0000 0.97080  0.60426  0.29977  Biso   1.000  O
  C98      1.0000 0.67660  0.58620  0.32609  Biso   1.000  C
  C99      1.0000 0.73740  0.55510  0.36150  Biso   1.000  C
  C100     1.0000 0.61780  0.53620  0.39230  Biso   1.000  C
  C101     1.0000 0.43610  0.54840  0.38749  Biso   1.000  C
  C102     1.0000 0.37560  0.57750  0.35120  Biso   1.000  C
  C103     1.0000 0.49480  0.59660  0.32100  Biso   1.000  C
  C104     1.0000 0.30810  0.53180  0.42232  Biso   1.000  C
  C105     1.0000 0.82060  0.50700  0.58833  Biso   1.000  C
  N9       1.0000 0.95250  0.52490  0.56118  Biso   1.000  N
  N10      1.0000 0.20920  0.54950  0.49772  Biso   1.000  N
  C106     1.0000 0.31820  0.55790  0.46270  Biso   1.000  C
  C107     1.0000 0.44550  0.59920  0.47310  Biso   1.000  C
  C108     1.0000 0.41090  0.61730  0.51330  Biso   1.000  C
  C109     1.0000 0.26550  0.58580  0.52990  Biso   1.000  C
  C110     1.0000 0.18820  0.59330  0.57040  Biso   1.000  C
  C111     1.0000 0.04210  0.56400  0.58468  Biso   1.000  C
  C112     1.0000 0.96540  0.57070  0.62800  Biso   1.000  C
  C113     1.0000 0.83070  0.53490  0.62958  Biso   1.000  C
  C114     1.0000 0.26840  0.63450  0.60060  Biso   1.000  C
  C115     1.0000 0.17570  0.68090  0.61110  Biso   1.000  C
  C116     1.0000 0.25350  0.71830  0.64050  Biso   1.000  C
  C117     1.0000 0.41730  0.70950  0.65920  Biso   1.000  C
  C118     1.0000 0.51140  0.66460  0.64810  Biso   1.000  C
  C119     1.0000 0.43690  0.62680  0.61990  Biso   1.000  C
  C120     1.0000 0.50540  0.74660  0.69240  Biso   1.000  C
  O19      1.0000 0.40690  0.78580  0.70501  Biso   1.000  O
  O20      1.0000 0.65560  0.73940  0.70700  Biso   1.000  O
  H49      1.0000 0.86020  0.54700  0.36470  Biso   1.000  H
  H50      1.0000 0.65970  0.51520  0.41570  Biso   1.000  H
  H51      1.0000 0.25410  0.58490  0.34710  Biso   1.000  H
  H52      1.0000 0.45350  0.61680  0.29680  Biso   1.000  H
  H53      1.0000 0.53280  0.61160  0.45460  Biso   1.000  H
  H54      1.0000 0.47240  0.64420  0.52830  Biso   1.000  H
  H55      1.0000 0.00360  0.59450  0.65010  Biso   1.000  H
  H56      1.0000 0.75440  0.52950  0.65320  Biso   1.000  H
  H57      1.0000 0.06440  0.68760  0.59800  Biso   1.000  H
  H58      1.0000 0.18980  0.74940  0.64720  Biso   1.000  H
  H59      1.0000 0.62690  0.65940  0.65970  Biso   1.000  H
  H60      1.0000 0.50020  0.59560  0.61320  Biso   1.000  H
  O21      1.0000 0.24830  0.14271  0.26544  Biso   1.000  O
  C121     1.0000 0.30520  0.11100  0.29575  Biso   1.000  C
  O22      1.0000 0.47080  0.10426  0.29977  Biso   1.000  O
  C122     1.0000 0.17660  0.08620  0.32609  Biso   1.000  C
  C123     1.0000 0.23740  0.05510  0.36150  Biso   1.000  C
  C124     1.0000 0.11780  0.03620  0.39230  Biso   1.000  C
  C125     1.0000 0.93610  0.04840  0.38749  Biso   1.000  C
  C126     1.0000 0.87560  0.07750  0.35120  Biso   1.000  C
  C127     1.0000 0.99480  0.09660  0.32100  Biso   1.000  C
  C128     1.0000 0.80810  0.03180  0.42232  Biso   1.000  C
  C129     1.0000 0.32060  0.00700  0.58833  Biso   1.000  C
  N11      1.0000 0.45250  0.02490  0.56118  Biso   1.000  N
  N12      1.0000 0.70920  0.04950  0.49772  Biso   1.000  N
  C130     1.0000 0.81820  0.05790  0.46270  Biso   1.000  C
  C131     1.0000 0.94550  0.09920  0.47310  Biso   1.000  C
  C132     1.0000 0.91090  0.11730  0.51330  Biso   1.000  C
  C133     1.0000 0.76550  0.08580  0.52990  Biso   1.000  C
  C134     1.0000 0.68820  0.09330  0.57040  Biso   1.000  C
  C135     1.0000 0.54210  0.06400  0.58468  Biso   1.000  C
  C136     1.0000 0.46540  0.07070  0.62800  Biso   1.000  C
  C137     1.0000 0.33070  0.03490  0.62958  Biso   1.000  C
  C138     1.0000 0.76840  0.13450  0.60060  Biso   1.000  C
  C139     1.0000 0.67570  0.18090  0.61110  Biso   1.000  C
  C140     1.0000 0.75350  0.21830  0.64050  Biso   1.000  C
  C141     1.0000 0.91730  0.20950  0.65920  Biso   1.000  C
  C142     1.0000 0.01140  0.16460  0.64810  Biso   1.000  C
  C143     1.0000 0.93690  0.12680  0.61990  Biso   1.000  C
  C144     1.0000 0.00540  0.24660  0.69240  Biso   1.000  C
  O23      1.0000 0.90690  0.28580  0.70501  Biso   1.000  O
  O24      1.0000 0.15560  0.23940  0.70700  Biso   1.000  O
  H61      1.0000 0.36020  0.04700  0.36470  Biso   1.000  H
  H62      1.0000 0.15970  0.01520  0.41570  Biso   1.000  H
  H63      1.0000 0.75410  0.08490  0.34710  Biso   1.000  H
  H64      1.0000 0.95350  0.11680  0.29680  Biso   1.000  H
  H65      1.0000 0.03280  0.11160  0.45460  Biso   1.000  H
  H66      1.0000 0.97240  0.14420  0.52830  Biso   1.000  H
  H67      1.0000 0.50360  0.09450  0.65010  Biso   1.000  H
  H68      1.0000 0.25440  0.02950  0.65320  Biso   1.000  H
  H69      1.0000 0.56440  0.18760  0.59800  Biso   1.000  H
  H70      1.0000 0.68980  0.24940  0.64720  Biso   1.000  H
  H71      1.0000 0.12690  0.15940  0.65970  Biso   1.000  H
  H72      1.0000 0.00020  0.09560  0.61320  Biso   1.000  H
  O25      1.0000 0.25170  0.64271  0.23456  Biso   1.000  O
  C145     1.0000 0.19480  0.61100  0.20425  Biso   1.000  C
  O26      1.0000 0.02920  0.60426  0.20023  Biso   1.000  O
  C146     1.0000 0.32340  0.58620  0.17391  Biso   1.000  C
  C147     1.0000 0.26260  0.55510  0.13850  Biso   1.000  C
  C148     1.0000 0.38220  0.53620  0.10770  Biso   1.000  C
  C149     1.0000 0.56390  0.54840  0.11251  Biso   1.000  C
  C150     1.0000 0.62440  0.57750  0.14880  Biso   1.000  C
  C151     1.0000 0.50520  0.59660  0.17900  Biso   1.000  C
  C152     1.0000 0.69190  0.53180  0.07768  Biso   1.000  C
  C153     1.0000 0.17940  0.50700  0.91167  Biso   1.000  C
  N13      1.0000 0.04750  0.52490  0.93882  Biso   1.000  N
  N14      1.0000 0.79080  0.54950  0.00228  Biso   1.000  N
  C154     1.0000 0.68180  0.55790  0.03730  Biso   1.000  C
  C155     1.0000 0.55450  0.59920  0.02690  Biso   1.000  C
  C156     1.0000 0.58910  0.61730  0.98670  Biso   1.000  C
  C157     1.0000 0.73450  0.58580  0.97010  Biso   1.000  C
  C158     1.0000 0.81180  0.59330  0.92960  Biso   1.000  C
  C159     1.0000 0.95790  0.56400  0.91532  Biso   1.000  C
  C160     1.0000 0.03460  0.57070  0.87200  Biso   1.000  C
  C161     1.0000 0.16930  0.53490  0.87042  Biso   1.000  C
  C162     1.0000 0.73160  0.63450  0.89940  Biso   1.000  C
  C163     1.0000 0.82430  0.68090  0.88890  Biso   1.000  C
  C164     1.0000 0.74650  0.71830  0.85950  Biso   1.000  C
  C165     1.0000 0.58270  0.70950  0.84080  Biso   1.000  C
  C166     1.0000 0.48860  0.66460  0.85190  Biso   1.000  C
  C167     1.0000 0.56310  0.62680  0.88010  Biso   1.000  C
  C168     1.0000 0.49460  0.74660  0.80760  Biso   1.000  C
  O27      1.0000 0.59310  0.78580  0.79499  Biso   1.000  O
  O28      1.0000 0.34440  0.73940  0.79300  Biso   1.000  O
  H73      1.0000 0.13980  0.54700  0.13530  Biso   1.000  H
  H74      1.0000 0.34030  0.51520  0.08430  Biso   1.000  H
  H75      1.0000 0.74590  0.58490  0.15290  Biso   1.000  H
  H76      1.0000 0.54650  0.61680  0.20320  Biso   1.000  H
  H77      1.0000 0.46720  0.61160  0.04540  Biso   1.000  H
  H78      1.0000 0.52760  0.64420  0.97170  Biso   1.000  H
  H79      1.0000 0.99640  0.59450  0.84990  Biso   1.000  H
  H80      1.0000 0.24560  0.52950  0.84680  Biso   1.000  H
  H81      1.0000 0.93560  0.68760  0.90200  Biso   1.000  H
  H82      1.0000 0.81020  0.74940  0.85280  Biso   1.000  H
  H83      1.0000 0.37310  0.65940  0.84030  Biso   1.000  H
  H84      1.0000 0.49980  0.59560  0.88680  Biso   1.000  H
  O29      1.0000 0.75170  0.14271  0.23456  Biso   1.000  O
  C169     1.0000 0.69480  0.11100  0.20425  Biso   1.000  C
  O30      1.0000 0.52920  0.10426  0.20023  Biso   1.000  O
  C170     1.0000 0.82340  0.08620  0.17391  Biso   1.000  C
  C171     1.0000 0.76260  0.05510  0.13850  Biso   1.000  C
  C172     1.0000 0.88220  0.03620  0.10770  Biso   1.000  C
  C173     1.0000 0.06390  0.04840  0.11251  Biso   1.000  C
  C174     1.0000 0.12440  0.07750  0.14880  Biso   1.000  C
  C175     1.0000 0.00520  0.09660  0.17900  Biso   1.000  C
  C176     1.0000 0.19190  0.03180  0.07768  Biso   1.000  C
  C177     1.0000 0.67940  0.00700  0.91167  Biso   1.000  C
  N15      1.0000 0.54750  0.02490  0.93882  Biso   1.000  N
  N16      1.0000 0.29080  0.04950  0.00228  Biso   1.000  N
  C178     1.0000 0.18180  0.05790  0.03730  Biso   1.000  C
  C179     1.0000 0.05450  0.09920  0.02690  Biso   1.000  C
  C180     1.0000 0.08910  0.11730  0.98670  Biso   1.000  C
  C181     1.0000 0.23450  0.08580  0.97010  Biso   1.000  C
  C182     1.0000 0.31180  0.09330  0.92960  Biso   1.000  C
  C183     1.0000 0.45790  0.06400  0.91532  Biso   1.000  C
  C184     1.0000 0.53460  0.07070  0.87200  Biso   1.000  C
  C185     1.0000 0.66930  0.03490  0.87042  Biso   1.000  C
  C186     1.0000 0.23160  0.13450  0.89940  Biso   1.000  C
  C187     1.0000 0.32430  0.18090  0.88890  Biso   1.000  C
  C188     1.0000 0.24650  0.21830  0.85950  Biso   1.000  C
  C189     1.0000 0.08270  0.20950  0.84080  Biso   1.000  C
  C190     1.0000 0.98860  0.16460  0.85190  Biso   1.000  C
  C191     1.0000 0.06310  0.12680  0.88010  Biso   1.000  C
  C192     1.0000 0.99460  0.24660  0.80760  Biso   1.000  C
  O31      1.0000 0.09310  0.28580  0.79499  Biso   1.000  O
  O32      1.0000 0.84440  0.23940  0.79300  Biso   1.000  O
  H85      1.0000 0.63980  0.04700  0.13530  Biso   1.000  H
  H86      1.0000 0.84030  0.01520  0.08430  Biso   1.000  H
  H87      1.0000 0.24590  0.08490  0.15290  Biso   1.000  H
  H88      1.0000 0.04650  0.11680  0.20320  Biso   1.000  H
  H89      1.0000 0.96720  0.11160  0.04540  Biso   1.000  H
  H90      1.0000 0.02760  0.14420  0.97170  Biso   1.000  H
  H91      1.0000 0.49640  0.09450  0.84990  Biso   1.000  H
  H92      1.0000 0.74560  0.02950  0.84680  Biso   1.000  H
  H93      1.0000 0.43560  0.18760  0.90200  Biso   1.000  H
  H94      1.0000 0.31020  0.24940  0.85280  Biso   1.000  H
  H95      1.0000 0.87310  0.15940  0.84030  Biso   1.000  H
  H96      1.0000 0.99980  0.09560  0.88680  Biso   1.000  H
  Cs1      1.0000 0.00000  0.24602  0.25000  Biso   1.000  Cs
  Cs2      1.0000 0.50000  0.74602  0.25000  Biso   1.000  Cs
  Cs3      1.0000 0.00000  0.75398  0.75000  Biso   1.000  Cs
  Cs4      1.0000 0.50000  0.25398  0.75000  Biso   1.000  Cs
  Fe1      1.0000 0.00000  0.33305  0.75000  Biso   1.000  Fe
  Fe2      1.0000 0.50000  0.83305  0.75000  Biso   1.000  Fe
  Fe3      1.0000 0.00000  0.66695  0.25000  Biso   1.000  Fe
  Fe4      1.0000 0.50000  0.16695  0.25000  Biso   1.000  Fe
  Fe5      1.0000 0.00000  0.50000  0.50000  Biso   1.000  Fe
  Fe6      1.0000 0.50000  0.00000  0.50000  Biso   1.000  Fe
  Fe7      1.0000 0.00000  0.50000  0.00000  Biso   1.000  Fe
  Fe8      1.0000 0.50000  0.00000  0.00000  Biso   1.000  Fe
