data_UGOSOY_charged
_audit_creation_date              2014-07-02
_audit_creation_method            'Materials Studio'
_symmetry_space_group_name_H-M    'P1'
_symmetry_Int_Tables_number       1
_symmetry_cell_setting            triclinic
loop_
_symmetry_equiv_pos_as_xyz
  x,y,z
_cell_length_a                    13.4770
_cell_length_b                    13.4770
_cell_length_c                    24.9732
_cell_angle_alpha                 74.3458
_cell_angle_beta                  74.3458
_cell_angle_gamma                 89.9999
loop_
_atom_site_label
_atom_site_type_symbol
_atom_site_fract_x
_atom_site_fract_y
_atom_site_fract_z
_atom_site_U_iso_or_equiv
_atom_site_adp_type
_atom_site_occupancy
Cu1    Cu    0.84952   0.59952   0.80096   0.01267  Uiso   1.00
Cu2    Cu    0.59952   0.84952   0.30096   0.01267  Uiso   1.00
H1     H     0.85160   0.68340   0.89760   0.01267  Uiso   1.00
H2     H     0.74260   0.70000   0.98140   0.01267  Uiso   1.00
H3     H     0.50260   0.63010   0.93040   0.01267  Uiso   1.00
H4     H     0.61680   0.61060   0.84840   0.01267  Uiso   1.00
H5     H     0.67820   0.74730   0.11980   0.01267  Uiso   1.00
H6     H     0.71040   0.79070   0.19680   0.01267  Uiso   1.00
H7     H     0.41450   0.78970   0.26700   0.01267  Uiso   1.00
H8     H     0.37770   0.74920   0.19160   0.01267  Uiso   1.00
H9     H     0.75080   0.41900   0.89760   0.01267  Uiso   1.00
H10    H     0.77600   0.31860   0.98140   0.01267  Uiso   1.00
H11    H     0.06700   0.43950   0.93040   0.01267  Uiso   1.00
H12    H     0.03480   0.54100   0.84840   0.01267  Uiso   1.00
H13    H     0.70200   0.13290   0.11980   0.01267  Uiso   1.00
H14    H     0.59280   0.01250   0.19680   0.01267  Uiso   1.00
H15    H     0.81850   0.94330   0.26700   0.01267  Uiso   1.00
H16    H     0.93070   0.05920   0.19160   0.01267  Uiso   1.00
H17    H     0.68340   0.75080   0.39760   0.01267  Uiso   1.00
H18    H     0.70000   0.77600   0.48140   0.01267  Uiso   1.00
H19    H     0.63010   0.06700   0.43040   0.01267  Uiso   1.00
H20    H     0.61060   0.03480   0.34840   0.01267  Uiso   1.00
H21    H     0.74730   0.70200   0.61980   0.01267  Uiso   1.00
H22    H     0.79070   0.59280   0.69680   0.01267  Uiso   1.00
H23    H     0.78970   0.81850   0.76700   0.01267  Uiso   1.00
H24    H     0.74920   0.93070   0.69160   0.01267  Uiso   1.00
H25    H     0.41900   0.85160   0.39760   0.01267  Uiso   1.00
H26    H     0.31860   0.74260   0.48140   0.01267  Uiso   1.00
H27    H     0.43950   0.50260   0.43040   0.01267  Uiso   1.00
H28    H     0.54100   0.61680   0.34840   0.01267  Uiso   1.00
H29    H     0.13290   0.67820   0.61980   0.01267  Uiso   1.00
H30    H     0.01250   0.71040   0.69680   0.01267  Uiso   1.00
H31    H     0.94330   0.41450   0.76700   0.01267  Uiso   1.00
H32    H     0.05920   0.37770   0.69160   0.01267  Uiso   1.00
C1     C     0.78081   0.67031   0.90458   0.01267  Uiso   1.00
C2     C     0.71547   0.68127   0.95466   0.01267  Uiso   1.00
C3     C     0.61207   0.66537   0.96606   0.01267  Uiso   1.00
C4     C     0.57337   0.63947   0.92486   0.01267  Uiso   1.00
C5     C     0.64270   0.62830   0.87580   0.01267  Uiso   1.00
C6     C     0.54452   0.67552   0.01936   0.01267  Uiso   1.00
C7     C     0.50384   0.70904   0.10032   0.01267  Uiso   1.00
C8     C     0.52542   0.73962   0.14816   0.01267  Uiso   1.00
C9     C     0.62321   0.75531   0.14978   0.01267  Uiso   1.00
C10    C     0.64252   0.78312   0.19556   0.01267  Uiso   1.00
C11    C     0.46889   0.78279   0.23642   0.01267  Uiso   1.00
C12    C     0.44597   0.75617   0.19226   0.01267  Uiso   1.00
C13    C     0.81461   0.42511   0.90458   0.01267  Uiso   1.00
C14    C     0.82987   0.36407   0.95466   0.01267  Uiso   1.00
C15    C     0.92187   0.36857   0.96606   0.01267  Uiso   1.00
C16    C     0.00177   0.43567   0.92486   0.01267  Uiso   1.00
C17    C     0.98150   0.49590   0.87580   0.01267  Uiso   1.00
C18    C     0.93612   0.30512   0.01936   0.01267  Uiso   1.00
C19    C     0.89584   0.19064   0.10032   0.01267  Uiso   1.00
C20    C     0.82642   0.11222   0.14816   0.01267  Uiso   1.00
C21    C     0.72701   0.09491   0.14978   0.01267  Uiso   1.00
C22    C     0.66192   0.02132   0.19556   0.01267  Uiso   1.00
C23    C     0.79469   0.98079   0.23642   0.01267  Uiso   1.00
C24    C     0.86177   0.05157   0.19226   0.01267  Uiso   1.00
C25    C     0.67031   0.81461   0.40458   0.01267  Uiso   1.00
C26    C     0.68127   0.82987   0.45466   0.01267  Uiso   1.00
C27    C     0.66537   0.92187   0.46606   0.01267  Uiso   1.00
C28    C     0.63947   0.00177   0.42486   0.01267  Uiso   1.00
C29    C     0.62830   0.98150   0.37580   0.01267  Uiso   1.00
C30    C     0.67552   0.93612   0.51936   0.01267  Uiso   1.00
C31    C     0.70904   0.89584   0.60032   0.01267  Uiso   1.00
C32    C     0.73962   0.82642   0.64816   0.01267  Uiso   1.00
C33    C     0.75531   0.72701   0.64978   0.01267  Uiso   1.00
C34    C     0.78312   0.66192   0.69556   0.01267  Uiso   1.00
C35    C     0.78279   0.79469   0.73642   0.01267  Uiso   1.00
C36    C     0.75617   0.86177   0.69226   0.01267  Uiso   1.00
C37    C     0.42511   0.78081   0.40458   0.01267  Uiso   1.00
C38    C     0.36407   0.71547   0.45466   0.01267  Uiso   1.00
C39    C     0.36857   0.61207   0.46606   0.01267  Uiso   1.00
C40    C     0.43567   0.57337   0.42486   0.01267  Uiso   1.00
C41    C     0.49590   0.64270   0.37580   0.01267  Uiso   1.00
C42    C     0.30512   0.54452   0.51936   0.01267  Uiso   1.00
C43    C     0.19064   0.50384   0.60032   0.01267  Uiso   1.00
C44    C     0.11222   0.52542   0.64816   0.01267  Uiso   1.00
C45    C     0.09491   0.62321   0.64978   0.01267  Uiso   1.00
C46    C     0.02132   0.64252   0.69556   0.01267  Uiso   1.00
C47    C     0.98079   0.46889   0.73642   0.01267  Uiso   1.00
C48    C     0.05157   0.44597   0.69226   0.01267  Uiso   1.00
N1     N     0.74546   0.64106   0.86508   0.01267  Uiso   1.00
N2     N     0.44645   0.65255   0.04170   0.01267  Uiso   1.00
N3     N     0.42305   0.67595   0.09450   0.01267  Uiso   1.00
N4     N     0.56497   0.79947   0.23846   0.01267  Uiso   1.00
N5     N     0.88946   0.49386   0.86508   0.01267  Uiso   1.00
N6     N     0.01185   0.30575   0.04170   0.01267  Uiso   1.00
N7     N     0.98245   0.22955   0.09450   0.01267  Uiso   1.00
N8     N     0.69657   0.96207   0.23846   0.01267  Uiso   1.00
N9     N     0.64106   0.88946   0.36508   0.01267  Uiso   1.00
N10    N     0.65255   0.01185   0.54170   0.01267  Uiso   1.00
N11    N     0.67595   0.98245   0.59450   0.01267  Uiso   1.00
N12    N     0.79947   0.69657   0.73846   0.01267  Uiso   1.00
N13    N     0.49386   0.74546   0.36508   0.01267  Uiso   1.00
N14    N     0.30575   0.44645   0.54170   0.01267  Uiso   1.00
N15    N     0.22955   0.42305   0.59450   0.01267  Uiso   1.00
N16    N     0.96207   0.56497   0.73846   0.01267  Uiso   1.00
O1     O     0.58716   0.70966   0.05448   0.01267  Uiso   1.00
O2     O     0.85836   0.23586   0.05448   0.01267  Uiso   1.00
O3     O     0.70966   0.85836   0.55448   0.01267  Uiso   1.00
O4     O     0.23586   0.58716   0.55448   0.01267  Uiso   1.00
Cu3    Cu    0.15048   0.40048   0.19904   0.01267  Uiso   1.00
Cu4    Cu    0.40048   0.15048   0.69904   0.01267  Uiso   1.00
H33    H     0.14840   0.31660   0.10240   0.01267  Uiso   1.00
H34    H     0.25740   0.30000   0.01860   0.01267  Uiso   1.00
H35    H     0.49740   0.36990   0.06960   0.01267  Uiso   1.00
H36    H     0.38320   0.38940   0.15160   0.01267  Uiso   1.00
H37    H     0.32180   0.25270   0.88020   0.01267  Uiso   1.00
H38    H     0.28960   0.20930   0.80320   0.01267  Uiso   1.00
H39    H     0.58550   0.21030   0.73300   0.01267  Uiso   1.00
H40    H     0.62230   0.25080   0.80840   0.01267  Uiso   1.00
H41    H     0.24920   0.58100   0.10240   0.01267  Uiso   1.00
H42    H     0.22400   0.68140   0.01860   0.01267  Uiso   1.00
H43    H     0.93300   0.56050   0.06960   0.01267  Uiso   1.00
H44    H     0.96520   0.45900   0.15160   0.01267  Uiso   1.00
H45    H     0.29800   0.86710   0.88020   0.01267  Uiso   1.00
H46    H     0.40720   0.98750   0.80320   0.01267  Uiso   1.00
H47    H     0.18150   0.05670   0.73300   0.01267  Uiso   1.00
H48    H     0.06930   0.94080   0.80840   0.01267  Uiso   1.00
H49    H     0.31660   0.24920   0.60240   0.01267  Uiso   1.00
H50    H     0.30000   0.22400   0.51860   0.01267  Uiso   1.00
H51    H     0.36990   0.93300   0.56960   0.01267  Uiso   1.00
H52    H     0.38940   0.96520   0.65160   0.01267  Uiso   1.00
H53    H     0.25270   0.29800   0.38020   0.01267  Uiso   1.00
H54    H     0.20930   0.40720   0.30320   0.01267  Uiso   1.00
H55    H     0.21030   0.18150   0.23300   0.01267  Uiso   1.00
H56    H     0.25080   0.06930   0.30840   0.01267  Uiso   1.00
H57    H     0.58100   0.14840   0.60240   0.01267  Uiso   1.00
H58    H     0.68140   0.25740   0.51860   0.01267  Uiso   1.00
H59    H     0.56050   0.49740   0.56960   0.01267  Uiso   1.00
H60    H     0.45900   0.38320   0.65160   0.01267  Uiso   1.00
H61    H     0.86710   0.32180   0.38020   0.01267  Uiso   1.00
H62    H     0.98750   0.28960   0.30320   0.01267  Uiso   1.00
H63    H     0.05670   0.58550   0.23300   0.01267  Uiso   1.00
H64    H     0.94080   0.62230   0.30840   0.01267  Uiso   1.00
C49    C     0.21919   0.32969   0.09542   0.01267  Uiso   1.00
C50    C     0.28453   0.31873   0.04534   0.01267  Uiso   1.00
C51    C     0.38793   0.33463   0.03394   0.01267  Uiso   1.00
C52    C     0.42663   0.36053   0.07514   0.01267  Uiso   1.00
C53    C     0.35730   0.37170   0.12420   0.01267  Uiso   1.00
C54    C     0.45548   0.32448   0.98064   0.01267  Uiso   1.00
C55    C     0.49616   0.29096   0.89968   0.01267  Uiso   1.00
C56    C     0.47458   0.26038   0.85184   0.01267  Uiso   1.00
C57    C     0.37679   0.24469   0.85022   0.01267  Uiso   1.00
C58    C     0.35748   0.21688   0.80444   0.01267  Uiso   1.00
C59    C     0.53111   0.21721   0.76358   0.01267  Uiso   1.00
C60    C     0.55403   0.24383   0.80774   0.01267  Uiso   1.00
C61    C     0.18539   0.57489   0.09542   0.01267  Uiso   1.00
C62    C     0.17013   0.63593   0.04534   0.01267  Uiso   1.00
C63    C     0.07813   0.63143   0.03394   0.01267  Uiso   1.00
C64    C     0.99823   0.56433   0.07514   0.01267  Uiso   1.00
C65    C     0.01850   0.50410   0.12420   0.01267  Uiso   1.00
C66    C     0.06388   0.69488   0.98064   0.01267  Uiso   1.00
C67    C     0.10416   0.80936   0.89968   0.01267  Uiso   1.00
C68    C     0.17358   0.88778   0.85184   0.01267  Uiso   1.00
C69    C     0.27299   0.90509   0.85022   0.01267  Uiso   1.00
C70    C     0.33808   0.97868   0.80444   0.01267  Uiso   1.00
C71    C     0.20531   0.01921   0.76358   0.01267  Uiso   1.00
C72    C     0.13823   0.94843   0.80774   0.01267  Uiso   1.00
C73    C     0.32969   0.18539   0.59542   0.01267  Uiso   1.00
C74    C     0.31873   0.17013   0.54534   0.01267  Uiso   1.00
C75    C     0.33463   0.07813   0.53394   0.01267  Uiso   1.00
C76    C     0.36053   0.99823   0.57514   0.01267  Uiso   1.00
C77    C     0.37170   0.01850   0.62420   0.01267  Uiso   1.00
C78    C     0.32448   0.06388   0.48064   0.01267  Uiso   1.00
C79    C     0.29096   0.10416   0.39968   0.01267  Uiso   1.00
C80    C     0.26038   0.17358   0.35184   0.01267  Uiso   1.00
C81    C     0.24469   0.27299   0.35022   0.01267  Uiso   1.00
C82    C     0.21688   0.33808   0.30444   0.01267  Uiso   1.00
C83    C     0.21721   0.20531   0.26358   0.01267  Uiso   1.00
C84    C     0.24383   0.13823   0.30774   0.01267  Uiso   1.00
C85    C     0.57489   0.21919   0.59542   0.01267  Uiso   1.00
C86    C     0.63593   0.28453   0.54534   0.01267  Uiso   1.00
C87    C     0.63143   0.38793   0.53394   0.01267  Uiso   1.00
C88    C     0.56433   0.42663   0.57514   0.01267  Uiso   1.00
C89    C     0.50410   0.35730   0.62420   0.01267  Uiso   1.00
C90    C     0.69488   0.45548   0.48064   0.01267  Uiso   1.00
C91    C     0.80936   0.49616   0.39968   0.01267  Uiso   1.00
C92    C     0.88778   0.47458   0.35184   0.01267  Uiso   1.00
C93    C     0.90509   0.37679   0.35022   0.01267  Uiso   1.00
C94    C     0.97868   0.35748   0.30444   0.01267  Uiso   1.00
C95    C     0.01921   0.53111   0.26358   0.01267  Uiso   1.00
C96    C     0.94843   0.55403   0.30774   0.01267  Uiso   1.00
N17    N     0.25454   0.35894   0.13492   0.01267  Uiso   1.00
N18    N     0.55355   0.34745   0.95830   0.01267  Uiso   1.00
N19    N     0.57695   0.32405   0.90550   0.01267  Uiso   1.00
N20    N     0.43503   0.20053   0.76154   0.01267  Uiso   1.00
N21    N     0.11054   0.50614   0.13492   0.01267  Uiso   1.00
N22    N     0.98815   0.69425   0.95830   0.01267  Uiso   1.00
N23    N     0.01755   0.77045   0.90550   0.01267  Uiso   1.00
N24    N     0.30343   0.03793   0.76154   0.01267  Uiso   1.00
N25    N     0.35894   0.11054   0.63492   0.01267  Uiso   1.00
N26    N     0.34745   0.98815   0.45830   0.01267  Uiso   1.00
N27    N     0.32405   0.01755   0.40550   0.01267  Uiso   1.00
N28    N     0.20053   0.30343   0.26154   0.01267  Uiso   1.00
N29    N     0.50614   0.25454   0.63492   0.01267  Uiso   1.00
N30    N     0.69425   0.55355   0.45830   0.01267  Uiso   1.00
N31    N     0.77045   0.57695   0.40550   0.01267  Uiso   1.00
N32    N     0.03793   0.43503   0.26154   0.01267  Uiso   1.00
O5     O     0.41284   0.29034   0.94552   0.01267  Uiso   1.00
O6     O     0.14164   0.76414   0.94552   0.01267  Uiso   1.00
O7     O     0.29034   0.14164   0.44552   0.01267  Uiso   1.00
O8     O     0.76414   0.41284   0.44552   0.01267  Uiso   1.00
Cl1    Cl    0.69056   0.44056   0.11888   0.01267  Uiso   1.00
O9     O     0.77880   0.39350   0.12580   0.01267  Uiso   1.00
O10    O     0.64670   0.33870   0.13860   0.01267  Uiso   1.00
O11    O     0.59540   0.48070   0.12580   0.01267  Uiso   1.00
O12    O     0.71470   0.52270   0.13860   0.01267  Uiso   1.00
Cl2    Cl    0.44056   0.69056   0.61888   0.01267  Uiso   1.00
O13    O     0.39350   0.59540   0.62580   0.01267  Uiso   1.00
O14    O     0.33870   0.71470   0.63860   0.01267  Uiso   1.00
O15    O     0.48070   0.77880   0.62580   0.01267  Uiso   1.00
O16    O     0.52270   0.64670   0.63860   0.01267  Uiso   1.00
Cl3    Cl    0.30944   0.55944   0.88112   0.01267  Uiso   1.00
O17    O     0.22120   0.60650   0.87420   0.01267  Uiso   1.00
O18    O     0.35330   0.66130   0.86140   0.01267  Uiso   1.00
O19    O     0.40460   0.51930   0.87420   0.01267  Uiso   1.00
O20    O     0.28530   0.47730   0.86140   0.01267  Uiso   1.00
Cl4    Cl    0.55944   0.30944   0.38112   0.01267  Uiso   1.00
O21    O     0.60650   0.40460   0.37420   0.01267  Uiso   1.00
O22    O     0.66130   0.28530   0.36140   0.01267  Uiso   1.00
O23    O     0.51930   0.22120   0.37420   0.01267  Uiso   1.00
O24    O     0.47730   0.35330   0.36140   0.01267  Uiso   1.00
