data_UGUGUZ_clean
_audit_creation_date              2014-07-02
_audit_creation_method            'Materials Studio'
_symmetry_space_group_name_H-M    'P1'
_symmetry_Int_Tables_number       1
_symmetry_cell_setting            triclinic
loop_
_symmetry_equiv_pos_as_xyz
  x,y,z
_cell_length_a                    8.9540
_cell_length_b                    13.6400
_cell_length_c                    22.0260
_cell_angle_alpha                 90.0000
_cell_angle_beta                  90.0000
_cell_angle_gamma                 95.5700
loop_
_atom_site_label
_atom_site_type_symbol
_atom_site_fract_x
_atom_site_fract_y
_atom_site_fract_z
_atom_site_U_iso_or_equiv
_atom_site_adp_type
_atom_site_occupancy
Yb1    Yb    0.01770   0.02386   0.67378   0.01267  Uiso   1.00
Yb2    Yb    0.45487   0.74594   0.60899   0.01267  Uiso   1.00
Yb3    Yb    0.98230   0.47614   0.17378   0.01267  Uiso   1.00
Yb4    Yb    0.54513   0.75406   0.10899   0.01267  Uiso   1.00
Yb5    Yb    0.98230   0.97614   0.32622   0.01267  Uiso   1.00
Yb6    Yb    0.54513   0.25406   0.39101   0.01267  Uiso   1.00
Yb7    Yb    0.01770   0.52386   0.82622   0.01267  Uiso   1.00
Yb8    Yb    0.45487   0.24594   0.89101   0.01267  Uiso   1.00
C1     C     0.91850   0.78830   0.70730   0.01267  Uiso   1.00
C2     C     0.93430   0.69340   0.72830   0.01267  Uiso   1.00
C3     C     0.11990   0.75940   0.79550   0.01267  Uiso   1.00
C4     C     0.10650   0.85460   0.77310   0.01267  Uiso   1.00
C5     C     0.80170   0.81760   0.66260   0.01267  Uiso   1.00
C6     C     0.85980   0.59540   0.70650   0.01267  Uiso   1.00
C7     C     0.23650   0.72750   0.84120   0.01267  Uiso   1.00
C8     C     0.18240   0.95270   0.79450   0.01267  Uiso   1.00
C9     C     0.92830   0.07090   0.53020   0.01267  Uiso   1.00
C10    C     0.91130   0.05360   0.46680   0.01267  Uiso   1.00
C11    C     0.86380   0.14730   0.57090   0.01267  Uiso   1.00
C12    C     0.80750   0.10280   0.42230   0.01267  Uiso   1.00
C13    C     0.08150   0.71170   0.20730   0.01267  Uiso   1.00
C14    C     0.06570   0.80660   0.22830   0.01267  Uiso   1.00
C15    C     0.88010   0.74060   0.29550   0.01267  Uiso   1.00
C16    C     0.89350   0.64540   0.27310   0.01267  Uiso   1.00
C17    C     0.19830   0.68240   0.16260   0.01267  Uiso   1.00
C18    C     0.14020   0.90460   0.20650   0.01267  Uiso   1.00
C19    C     0.76350   0.77250   0.34120   0.01267  Uiso   1.00
C20    C     0.81760   0.54730   0.29450   0.01267  Uiso   1.00
C21    C     0.07170   0.42910   0.03020   0.01267  Uiso   1.00
C22    C     0.08870   0.44640   0.96680   0.01267  Uiso   1.00
C23    C     0.13620   0.35270   0.07090   0.01267  Uiso   1.00
C24    C     0.19250   0.39720   0.92230   0.01267  Uiso   1.00
C25    C     0.08150   0.21170   0.29270   0.01267  Uiso   1.00
C26    C     0.06570   0.30660   0.27170   0.01267  Uiso   1.00
C27    C     0.88010   0.24060   0.20450   0.01267  Uiso   1.00
C28    C     0.89350   0.14540   0.22690   0.01267  Uiso   1.00
C29    C     0.19830   0.18240   0.33740   0.01267  Uiso   1.00
C30    C     0.14020   0.40460   0.29350   0.01267  Uiso   1.00
C31    C     0.76350   0.27250   0.15880   0.01267  Uiso   1.00
C32    C     0.81760   0.04730   0.20550   0.01267  Uiso   1.00
C33    C     0.07170   0.92910   0.46980   0.01267  Uiso   1.00
C34    C     0.08870   0.94640   0.53320   0.01267  Uiso   1.00
C35    C     0.13620   0.85270   0.42910   0.01267  Uiso   1.00
C36    C     0.19250   0.89720   0.57770   0.01267  Uiso   1.00
C37    C     0.91850   0.28830   0.79270   0.01267  Uiso   1.00
C38    C     0.93430   0.19340   0.77170   0.01267  Uiso   1.00
C39    C     0.11990   0.25940   0.70450   0.01267  Uiso   1.00
C40    C     0.10650   0.35460   0.72690   0.01267  Uiso   1.00
C41    C     0.80170   0.31760   0.83740   0.01267  Uiso   1.00
C42    C     0.85980   0.09540   0.79350   0.01267  Uiso   1.00
C43    C     0.23650   0.22750   0.65880   0.01267  Uiso   1.00
C44    C     0.18240   0.45270   0.70550   0.01267  Uiso   1.00
C45    C     0.92830   0.57090   0.96980   0.01267  Uiso   1.00
C46    C     0.91130   0.55360   0.03320   0.01267  Uiso   1.00
C47    C     0.86380   0.64730   0.92910   0.01267  Uiso   1.00
C48    C     0.80750   0.60280   0.07770   0.01267  Uiso   1.00
N1     N     0.00580   0.86450   0.72920   0.01267  Uiso   1.00
N2     N     0.03390   0.68340   0.77340   0.01267  Uiso   1.00
N3     N     0.01770   0.01500   0.56030   0.01267  Uiso   1.00
N4     N     0.99420   0.63550   0.22920   0.01267  Uiso   1.00
N5     N     0.96610   0.81660   0.27340   0.01267  Uiso   1.00
N6     N     0.98230   0.48500   0.06030   0.01267  Uiso   1.00
N7     N     0.99420   0.13550   0.27080   0.01267  Uiso   1.00
N8     N     0.96610   0.31660   0.22660   0.01267  Uiso   1.00
N9     N     0.98230   0.98500   0.43970   0.01267  Uiso   1.00
N10    N     0.00580   0.36450   0.77080   0.01267  Uiso   1.00
N11    N     0.03390   0.18340   0.72660   0.01267  Uiso   1.00
N12    N     0.01770   0.51500   0.93970   0.01267  Uiso   1.00
O1     O     0.83130   0.90340   0.63910   0.01267  Uiso   1.00
O2     O     0.68820   0.76060   0.65420   0.01267  Uiso   1.00
O3     O     0.82580   0.58280   0.65270   0.01267  Uiso   1.00
O4     O     0.84770   0.53010   0.74820   0.01267  Uiso   1.00
O5     O     0.20220   0.64000   0.86200   0.01267  Uiso   1.00
O6     O     0.35330   0.78020   0.85000   0.01267  Uiso   1.00
O7     O     0.21380   0.96490   0.84820   0.01267  Uiso   1.00
O8     O     0.19610   0.01760   0.75240   0.01267  Uiso   1.00
O9     O     0.85150   0.11960   0.62620   0.01267  Uiso   1.00
O10    O     0.83820   0.22800   0.55010   0.01267  Uiso   1.00
O11    O     0.71710   0.15870   0.44100   0.01267  Uiso   1.00
O12    O     0.82400   0.07790   0.36750   0.01267  Uiso   1.00
O13    O     0.16870   0.59660   0.13910   0.01267  Uiso   1.00
O14    O     0.31180   0.73940   0.15420   0.01267  Uiso   1.00
O15    O     0.17420   0.91720   0.15270   0.01267  Uiso   1.00
O16    O     0.15230   0.96990   0.24820   0.01267  Uiso   1.00
O17    O     0.79780   0.86000   0.36200   0.01267  Uiso   1.00
O18    O     0.64670   0.71980   0.35000   0.01267  Uiso   1.00
O19    O     0.78620   0.53510   0.34820   0.01267  Uiso   1.00
O20    O     0.80390   0.48240   0.25240   0.01267  Uiso   1.00
O21    O     0.14850   0.38040   0.12620   0.01267  Uiso   1.00
O22    O     0.16180   0.27200   0.05010   0.01267  Uiso   1.00
O23    O     0.28290   0.34130   0.94100   0.01267  Uiso   1.00
O24    O     0.17600   0.42210   0.86750   0.01267  Uiso   1.00
O25    O     0.16870   0.09660   0.36090   0.01267  Uiso   1.00
O26    O     0.31180   0.23940   0.34580   0.01267  Uiso   1.00
O27    O     0.17420   0.41720   0.34730   0.01267  Uiso   1.00
O28    O     0.15230   0.46990   0.25180   0.01267  Uiso   1.00
O29    O     0.79780   0.36000   0.13800   0.01267  Uiso   1.00
O30    O     0.64670   0.21980   0.15000   0.01267  Uiso   1.00
O31    O     0.78620   0.03510   0.15180   0.01267  Uiso   1.00
O32    O     0.80390   0.98240   0.24760   0.01267  Uiso   1.00
O33    O     0.14850   0.88040   0.37380   0.01267  Uiso   1.00
O34    O     0.16180   0.77200   0.44990   0.01267  Uiso   1.00
O35    O     0.28290   0.84130   0.55900   0.01267  Uiso   1.00
O36    O     0.17600   0.92210   0.63250   0.01267  Uiso   1.00
O37    O     0.83130   0.40340   0.86090   0.01267  Uiso   1.00
O38    O     0.68820   0.26060   0.84580   0.01267  Uiso   1.00
O39    O     0.82580   0.08280   0.84730   0.01267  Uiso   1.00
O40    O     0.84770   0.03010   0.75180   0.01267  Uiso   1.00
O41    O     0.20220   0.14000   0.63800   0.01267  Uiso   1.00
O42    O     0.35330   0.28020   0.65000   0.01267  Uiso   1.00
O43    O     0.21380   0.46490   0.65180   0.01267  Uiso   1.00
O44    O     0.19610   0.51760   0.74760   0.01267  Uiso   1.00
O45    O     0.85150   0.61960   0.87380   0.01267  Uiso   1.00
O46    O     0.83820   0.72800   0.94990   0.01267  Uiso   1.00
O47    O     0.71710   0.65870   0.05900   0.01267  Uiso   1.00
O48    O     0.82400   0.57790   0.13250   0.01267  Uiso   1.00
