data_image0
_cell_length_a       10.54
_cell_length_b       13.509
_cell_length_c       30.526
_cell_angle_alpha    90
_cell_angle_beta     90.14
_cell_angle_gamma    90

_symmetry_space_group_name_H-M    "P 1"
_symmetry_int_tables_number       1

loop_
  _symmetry_equiv_pos_as_xyz
  'x, y, z'

loop_
  _atom_site_label
  _atom_site_occupancy
  _atom_site_fract_x
  _atom_site_fract_y
  _atom_site_fract_z
  _atom_site_thermal_displace_type
  _atom_site_B_iso_or_equiv
  _atom_site_type_symbol
  Co1      1.0000 0.72115  0.16713  0.04831  Biso   1.000  Co
  Co2      1.0000 0.17814  0.66651  0.21387  Biso   1.000  Co
  C1       1.0000 0.85810  0.81300  0.18085  Biso   1.000  C
  O1       1.0000 0.67774  0.07562  0.09652  Biso   1.000  O
  O2       1.0000 0.37700  0.52671  0.19049  Biso   1.000  O
  O3       1.0000 0.17805  0.55957  0.17012  Biso   1.000  O
  N1       1.0000 0.88790  0.24229  0.04363  Biso   1.000  N
  N2       1.0000 0.22180  0.41081  0.49031  Biso   1.000  N
  O4       1.0000 0.54649  0.22733  0.03920  Biso   1.000  O
  N3       1.0000 0.51660  0.82441  0.20686  Biso   1.000  N
  N4       1.0000 0.07180  0.31469  0.05166  Biso   1.000  N
  O5       1.0000 0.63321  0.29418  0.09802  Biso   1.000  O
  C2       1.0000 0.10600  0.64210  0.30758  Biso   1.000  C
  H1       1.0000 0.04430  0.68820  0.30000  Biso   1.000  H
  N5       1.0000 0.18660  0.61015  0.27648  Biso   1.000  N
  O6       1.0000 0.86950  0.02321  0.07840  Biso   1.000  O
  C3       1.0000 0.41380  0.32920  0.08385  Biso   1.000  C
  C4       1.0000 0.28430  0.51360  0.16618  Biso   1.000  C
  N6       1.0000 0.33240  0.75424  0.21496  Biso   1.000  N
  N7       1.0000 0.92120  0.28271  0.00343  Biso   1.000  N
  C5       1.0000 0.53970  0.28150  0.07336  Biso   1.000  C
  C6       1.0000 0.03080  0.32660  0.00883  Biso   1.000  C
  N8       1.0000 0.36160  0.80470  0.25300  Biso   1.000  N
  H2       1.0000 0.31510  0.80800  0.27610  Biso   1.000  H
  C7       1.0000 0.10100  0.47650  0.43062  Biso   1.000  C
  H3       1.0000 0.02180  0.49130  0.41880  Biso   1.000  H
  C8       1.0000 0.18890  0.34540  0.07242  Biso   1.000  C
  C9       1.0000 0.64640  0.92390  0.15748  Biso   1.000  C
  H4       1.0000 0.57590  0.96250  0.15080  Biso   1.000  H
  C10      1.0000 0.97860  0.26160  0.07214  Biso   1.000  C
  C11      1.0000 0.77260  0.01670  0.10123  Biso   1.000  C
  C12      1.0000 0.29130  0.44060  0.12898  Biso   1.000  C
  C13      1.0000 0.09220  0.38400  0.97363  Biso   1.000  C
  C14      1.0000 0.18180  0.41560  0.10558  Biso   1.000  C
  H5       1.0000 0.10480  0.44570  0.11220  Biso   1.000  H
  C15      1.0000 0.40640  0.39720  0.11769  Biso   1.000  C
  H6       1.0000 0.47940  0.41410  0.13310  Biso   1.000  H
  C16      1.0000 0.21130  0.50060  0.40794  Biso   1.000  C
  C17      1.0000 0.11150  0.60890  0.35044  Biso   1.000  C
  H7       1.0000 0.05340  0.63200  0.37090  Biso   1.000  H
  C18      1.0000 0.32680  0.48150  0.42837  Biso   1.000  C
  H8       1.0000 0.40250  0.49770  0.41450  Biso   1.000  H
  C19      1.0000 0.20390  0.54100  0.36282  Biso   1.000  C
  C20      1.0000 0.11030  0.43050  0.47090  Biso   1.000  C
  H9       1.0000 0.03610  0.41230  0.48520  Biso   1.000  H
  C21      1.0000 0.32250  0.73480  0.11584  Biso   1.000  C
  H10      1.0000 0.24930  0.76350  0.12710  Biso   1.000  H
  C22      1.0000 0.30300  0.30190  0.06077  Biso   1.000  C
  H11      1.0000 0.30650  0.25570  0.03820  Biso   1.000  H
  C23      1.0000 0.76130  0.94000  0.13611  Biso   1.000  C
  C24      1.0000 0.74320  0.79530  0.20142  Biso   1.000  C
  H12      1.0000 0.73660  0.74780  0.22330  Biso   1.000  H
  C25      1.0000 0.28690  0.50750  0.33011  Biso   1.000  C
  H13      1.0000 0.34940  0.46120  0.33670  Biso   1.000  H
  C26      1.0000 0.86590  0.88310  0.14791  Biso   1.000  C
  H14      1.0000 0.94250  0.89240  0.13340  Biso   1.000  H
  C27      1.0000 0.18610  0.50090  0.90551  Biso   1.000  C
  H15      1.0000 0.21740  0.53970  0.88280  Biso   1.000  H
  C28      1.0000 0.32850  0.43840  0.46930  Biso   1.000  C
  H16      1.0000 0.40630  0.42800  0.48300  Biso   1.000  H
  C29      1.0000 0.06620  0.35950  0.93020  Biso   1.000  C
  H17      1.0000 0.01750  0.30380  0.92380  Biso   1.000  H
  C30      1.0000 0.16510  0.46790  0.98279  Biso   1.000  C
  H18      1.0000 0.18210  0.48550  0.01170  Biso   1.000  H
  C31      1.0000 0.42640  0.76740  0.18663  Biso   1.000  C
  C32      1.0000 0.27450  0.54390  0.28814  Biso   1.000  C
  H19      1.0000 0.33030  0.52110  0.26680  Biso   1.000  H
  C33      1.0000 0.43130  0.72960  0.14148  Biso   1.000  C
  O7       1.0000 0.07540  0.77560  0.17648  Biso   1.000  O
  C34      1.0000 0.63820  0.85040  0.18855  Biso   1.000  C
  O8       1.0000 0.96670  0.68360  0.21898  Biso   1.000  O
  C35      1.0000 0.54010  0.68680  0.12414  Biso   1.000  C
  H20      1.0000 0.61280  0.68160  0.14130  Biso   1.000  H
  C36      1.0000 0.97400  0.75380  0.19309  Biso   1.000  C
  C37      1.0000 0.53950  0.91020  0.27974  Biso   1.000  C
  H21      1.0000 0.61300  0.87600  0.29060  Biso   1.000  H
  H22      1.0000 0.48420  0.92570  0.30370  Biso   1.000  H
  H23      1.0000 0.56540  0.97030  0.26560  Biso   1.000  H
  C38      1.0000 0.47160  0.84630  0.24784  Biso   1.000  C
  C39      1.0000 0.32230  0.69740  0.07363  Biso   1.000  C
  H24      1.0000 0.24870  0.69990  0.05680  Biso   1.000  H
  C40      1.0000 0.43120  0.65630  0.05649  Biso   1.000  C
  H25      1.0000 0.43110  0.63150  0.02810  Biso   1.000  H
  C41      1.0000 0.98070  0.23180  0.11887  Biso   1.000  C
  H26      1.0000 0.96540  0.28860  0.13690  Biso   1.000  H
  H27      1.0000 0.06220  0.20420  0.12590  Biso   1.000  H
  H28      1.0000 0.91610  0.18310  0.12400  Biso   1.000  H
  C42      1.0000 0.11270  0.41800  0.89622  Biso   1.000  C
  H29      1.0000 0.09450  0.40160  0.86730  Biso   1.000  H
  C43      1.0000 0.54070  0.65190  0.08158  Biso   1.000  C
  H30      1.0000 0.61460  0.62550  0.06980  Biso   1.000  H
  C44      1.0000 0.21230  0.52520  0.94845  Biso   1.000  C
  H31      1.0000 0.26200  0.58040  0.95460  Biso   1.000  H
  Co3      1.0000 0.22115  0.33287  0.54831  Biso   1.000  Co
  Co4      1.0000 0.67814  0.83349  0.71387  Biso   1.000  Co
  C45      1.0000 0.35810  0.68700  0.68085  Biso   1.000  C
  O9       1.0000 0.17774  0.42438  0.59652  Biso   1.000  O
  O10      1.0000 0.87700  0.97329  0.69049  Biso   1.000  O
  O11      1.0000 0.67805  0.94043  0.67012  Biso   1.000  O
  N9       1.0000 0.38790  0.25771  0.54363  Biso   1.000  N
  N10      1.0000 0.72180  0.08919  0.99031  Biso   1.000  N
  O12      1.0000 0.04649  0.27267  0.53920  Biso   1.000  O
  N11      1.0000 0.01660  0.67559  0.70686  Biso   1.000  N
  N12      1.0000 0.57180  0.18531  0.55166  Biso   1.000  N
  O13      1.0000 0.13321  0.20582  0.59802  Biso   1.000  O
  C46      1.0000 0.60600  0.85790  0.80758  Biso   1.000  C
  H32      1.0000 0.54430  0.81180  0.80000  Biso   1.000  H
  N13      1.0000 0.68660  0.88985  0.77648  Biso   1.000  N
  O14      1.0000 0.36950  0.47679  0.57840  Biso   1.000  O
  C47      1.0000 0.91380  0.17080  0.58385  Biso   1.000  C
  C48      1.0000 0.78430  0.98640  0.66618  Biso   1.000  C
  N14      1.0000 0.83240  0.74576  0.71496  Biso   1.000  N
  N15      1.0000 0.42120  0.21729  0.50343  Biso   1.000  N
  C49      1.0000 0.03970  0.21850  0.57336  Biso   1.000  C
  C50      1.0000 0.53080  0.17340  0.50883  Biso   1.000  C
  N16      1.0000 0.86160  0.69530  0.75300  Biso   1.000  N
  H33      1.0000 0.81510  0.69200  0.77610  Biso   1.000  H
  C51      1.0000 0.60100  0.02350  0.93062  Biso   1.000  C
  H34      1.0000 0.52180  0.00870  0.91880  Biso   1.000  H
  C52      1.0000 0.68890  0.15460  0.57242  Biso   1.000  C
  C53      1.0000 0.14640  0.57610  0.65748  Biso   1.000  C
  H35      1.0000 0.07590  0.53750  0.65080  Biso   1.000  H
  C54      1.0000 0.47860  0.23840  0.57214  Biso   1.000  C
  C55      1.0000 0.27260  0.48330  0.60123  Biso   1.000  C
  C56      1.0000 0.79130  0.05940  0.62898  Biso   1.000  C
  C57      1.0000 0.59220  0.11600  0.47363  Biso   1.000  C
  C58      1.0000 0.68180  0.08440  0.60558  Biso   1.000  C
  H36      1.0000 0.60480  0.05430  0.61220  Biso   1.000  H
  C59      1.0000 0.90640  0.10280  0.61769  Biso   1.000  C
  H37      1.0000 0.97940  0.08590  0.63310  Biso   1.000  H
  C60      1.0000 0.71130  0.99940  0.90794  Biso   1.000  C
  C61      1.0000 0.61150  0.89110  0.85044  Biso   1.000  C
  H38      1.0000 0.55340  0.86800  0.87090  Biso   1.000  H
  C62      1.0000 0.82680  0.01850  0.92837  Biso   1.000  C
  H39      1.0000 0.90250  0.00230  0.91450  Biso   1.000  H
  C63      1.0000 0.70390  0.95900  0.86282  Biso   1.000  C
  C64      1.0000 0.61030  0.06950  0.97090  Biso   1.000  C
  H40      1.0000 0.53610  0.08770  0.98520  Biso   1.000  H
  C65      1.0000 0.82250  0.76520  0.61584  Biso   1.000  C
  H41      1.0000 0.74930  0.73650  0.62710  Biso   1.000  H
  C66      1.0000 0.80300  0.19810  0.56077  Biso   1.000  C
  H42      1.0000 0.80650  0.24430  0.53820  Biso   1.000  H
  C67      1.0000 0.26130  0.56000  0.63611  Biso   1.000  C
  C68      1.0000 0.24320  0.70470  0.70142  Biso   1.000  C
  H43      1.0000 0.23660  0.75220  0.72330  Biso   1.000  H
  C69      1.0000 0.78690  0.99250  0.83011  Biso   1.000  C
  H44      1.0000 0.84940  0.03880  0.83670  Biso   1.000  H
  C70      1.0000 0.36590  0.61690  0.64791  Biso   1.000  C
  H45      1.0000 0.44250  0.60760  0.63340  Biso   1.000  H
  C71      1.0000 0.68610  0.99910  0.40551  Biso   1.000  C
  H46      1.0000 0.71740  0.96030  0.38280  Biso   1.000  H
  C72      1.0000 0.82850  0.06160  0.96930  Biso   1.000  C
  H47      1.0000 0.90630  0.07200  0.98300  Biso   1.000  H
  C73      1.0000 0.56620  0.14050  0.43020  Biso   1.000  C
  H48      1.0000 0.51750  0.19620  0.42380  Biso   1.000  H
  C74      1.0000 0.66510  0.03210  0.48279  Biso   1.000  C
  H49      1.0000 0.68210  0.01450  0.51170  Biso   1.000  H
  C75      1.0000 0.92640  0.73260  0.68663  Biso   1.000  C
  C76      1.0000 0.77450  0.95610  0.78814  Biso   1.000  C
  H50      1.0000 0.83030  0.97890  0.76680  Biso   1.000  H
  C77      1.0000 0.93130  0.77040  0.64148  Biso   1.000  C
  O15      1.0000 0.57540  0.72440  0.67648  Biso   1.000  O
  C78      1.0000 0.13820  0.64960  0.68855  Biso   1.000  C
  O16      1.0000 0.46670  0.81640  0.71898  Biso   1.000  O
  C79      1.0000 0.04010  0.81320  0.62414  Biso   1.000  C
  H51      1.0000 0.11280  0.81840  0.64130  Biso   1.000  H
  C80      1.0000 0.47400  0.74620  0.69309  Biso   1.000  C
  C81      1.0000 0.03950  0.58980  0.77974  Biso   1.000  C
  H52      1.0000 0.11300  0.62400  0.79060  Biso   1.000  H
  H53      1.0000 0.98420  0.57430  0.80370  Biso   1.000  H
  H54      1.0000 0.06540  0.52970  0.76560  Biso   1.000  H
  C82      1.0000 0.97160  0.65370  0.74784  Biso   1.000  C
  C83      1.0000 0.82230  0.80260  0.57363  Biso   1.000  C
  H55      1.0000 0.74870  0.80010  0.55680  Biso   1.000  H
  C84      1.0000 0.93120  0.84370  0.55649  Biso   1.000  C
  H56      1.0000 0.93110  0.86850  0.52810  Biso   1.000  H
  C85      1.0000 0.48070  0.26820  0.61887  Biso   1.000  C
  H57      1.0000 0.46540  0.21140  0.63690  Biso   1.000  H
  H58      1.0000 0.56220  0.29580  0.62590  Biso   1.000  H
  H59      1.0000 0.41610  0.31690  0.62400  Biso   1.000  H
  C86      1.0000 0.61270  0.08200  0.39622  Biso   1.000  C
  H60      1.0000 0.59450  0.09840  0.36730  Biso   1.000  H
  C87      1.0000 0.04070  0.84810  0.58158  Biso   1.000  C
  H61      1.0000 0.11460  0.87450  0.56980  Biso   1.000  H
  C88      1.0000 0.71230  0.97480  0.44845  Biso   1.000  C
  H62      1.0000 0.76200  0.91960  0.45460  Biso   1.000  H
  Co5      1.0000 0.77885  0.66713  0.45169  Biso   1.000  Co
  Co6      1.0000 0.32186  0.16651  0.28613  Biso   1.000  Co
  C89      1.0000 0.64190  0.31300  0.31915  Biso   1.000  C
  O17      1.0000 0.82226  0.57562  0.40348  Biso   1.000  O
  O18      1.0000 0.12300  0.02671  0.30951  Biso   1.000  O
  O19      1.0000 0.32195  0.05957  0.32988  Biso   1.000  O
  N17      1.0000 0.61210  0.74229  0.45637  Biso   1.000  N
  N18      1.0000 0.27820  0.91081  0.00969  Biso   1.000  N
  O20      1.0000 0.95351  0.72733  0.46080  Biso   1.000  O
  N19      1.0000 0.98340  0.32441  0.29314  Biso   1.000  N
  N20      1.0000 0.42820  0.81469  0.44834  Biso   1.000  N
  O21      1.0000 0.86679  0.79418  0.40198  Biso   1.000  O
  C90      1.0000 0.39400  0.14210  0.19242  Biso   1.000  C
  H63      1.0000 0.45570  0.18820  0.20000  Biso   1.000  H
  N21      1.0000 0.31340  0.11015  0.22352  Biso   1.000  N
  O22      1.0000 0.63050  0.52321  0.42160  Biso   1.000  O
  C91      1.0000 0.08620  0.82920  0.41615  Biso   1.000  C
  C92      1.0000 0.21570  0.01360  0.33382  Biso   1.000  C
  N22      1.0000 0.16760  0.25424  0.28504  Biso   1.000  N
  N23      1.0000 0.57880  0.78271  0.49657  Biso   1.000  N
  C93      1.0000 0.96030  0.78150  0.42664  Biso   1.000  C
  C94      1.0000 0.46920  0.82660  0.49117  Biso   1.000  C
  N24      1.0000 0.13840  0.30470  0.24700  Biso   1.000  N
  H64      1.0000 0.18490  0.30800  0.22390  Biso   1.000  H
  C95      1.0000 0.39900  0.97650  0.06938  Biso   1.000  C
  H65      1.0000 0.47820  0.99130  0.08120  Biso   1.000  H
  C96      1.0000 0.31110  0.84540  0.42758  Biso   1.000  C
  C97      1.0000 0.85360  0.42390  0.34252  Biso   1.000  C
  H66      1.0000 0.92410  0.46250  0.34920  Biso   1.000  H
  C98      1.0000 0.52140  0.76160  0.42786  Biso   1.000  C
  C99      1.0000 0.72740  0.51670  0.39877  Biso   1.000  C
  C100     1.0000 0.20870  0.94060  0.37102  Biso   1.000  C
  C101     1.0000 0.40780  0.88400  0.52637  Biso   1.000  C
  C102     1.0000 0.31820  0.91560  0.39442  Biso   1.000  C
  H67      1.0000 0.39520  0.94570  0.38780  Biso   1.000  H
  C103     1.0000 0.09360  0.89720  0.38231  Biso   1.000  C
  H68      1.0000 0.02060  0.91410  0.36690  Biso   1.000  H
  C104     1.0000 0.28870  0.00060  0.09206  Biso   1.000  C
  C105     1.0000 0.38850  0.10890  0.14956  Biso   1.000  C
  H69      1.0000 0.44660  0.13200  0.12910  Biso   1.000  H
  C106     1.0000 0.17320  0.98150  0.07163  Biso   1.000  C
  H70      1.0000 0.09750  0.99770  0.08550  Biso   1.000  H
  C107     1.0000 0.29610  0.04100  0.13718  Biso   1.000  C
  C108     1.0000 0.38970  0.93050  0.02910  Biso   1.000  C
  H71      1.0000 0.46390  0.91230  0.01480  Biso   1.000  H
  C109     1.0000 0.17750  0.23480  0.38416  Biso   1.000  C
  H72      1.0000 0.25070  0.26350  0.37290  Biso   1.000  H
  C110     1.0000 0.19700  0.80190  0.43923  Biso   1.000  C
  H73      1.0000 0.19350  0.75570  0.46180  Biso   1.000  H
  C111     1.0000 0.73870  0.44000  0.36389  Biso   1.000  C
  C112     1.0000 0.75680  0.29530  0.29858  Biso   1.000  C
  H74      1.0000 0.76340  0.24780  0.27670  Biso   1.000  H
  C113     1.0000 0.21310  0.00750  0.16989  Biso   1.000  C
  H75      1.0000 0.15060  0.96120  0.16330  Biso   1.000  H
  C114     1.0000 0.63410  0.38310  0.35209  Biso   1.000  C
  H76      1.0000 0.55750  0.39240  0.36660  Biso   1.000  H
  C115     1.0000 0.31390  0.00090  0.59449  Biso   1.000  C
  H77      1.0000 0.28260  0.03970  0.61720  Biso   1.000  H
  C116     1.0000 0.17150  0.93840  0.03070  Biso   1.000  C
  H78      1.0000 0.09370  0.92800  0.01700  Biso   1.000  H
  C117     1.0000 0.43380  0.85950  0.56980  Biso   1.000  C
  H79      1.0000 0.48250  0.80380  0.57620  Biso   1.000  H
  C118     1.0000 0.33490  0.96790  0.51721  Biso   1.000  C
  H80      1.0000 0.31790  0.98550  0.48830  Biso   1.000  H
  C119     1.0000 0.07360  0.26740  0.31337  Biso   1.000  C
  C120     1.0000 0.22550  0.04390  0.21186  Biso   1.000  C
  H81      1.0000 0.16970  0.02110  0.23320  Biso   1.000  H
  C121     1.0000 0.06870  0.22960  0.35852  Biso   1.000  C
  O23      1.0000 0.42460  0.27560  0.32352  Biso   1.000  O
  C122     1.0000 0.86180  0.35040  0.31145  Biso   1.000  C
  O24      1.0000 0.53330  0.18360  0.28102  Biso   1.000  O
  C123     1.0000 0.95990  0.18680  0.37586  Biso   1.000  C
  H82      1.0000 0.88720  0.18160  0.35870  Biso   1.000  H
  C124     1.0000 0.52600  0.25380  0.30691  Biso   1.000  C
  C125     1.0000 0.96050  0.41020  0.22026  Biso   1.000  C
  H83      1.0000 0.88700  0.37600  0.20940  Biso   1.000  H
  H84      1.0000 0.01580  0.42570  0.19630  Biso   1.000  H
  H85      1.0000 0.93460  0.47030  0.23440  Biso   1.000  H
  C126     1.0000 0.02840  0.34630  0.25216  Biso   1.000  C
  C127     1.0000 0.17770  0.19740  0.42637  Biso   1.000  C
  H86      1.0000 0.25130  0.19990  0.44320  Biso   1.000  H
  C128     1.0000 0.06880  0.15630  0.44351  Biso   1.000  C
  H87      1.0000 0.06890  0.13150  0.47190  Biso   1.000  H
  C129     1.0000 0.51930  0.73180  0.38113  Biso   1.000  C
  H88      1.0000 0.53460  0.78860  0.36310  Biso   1.000  H
  H89      1.0000 0.43780  0.70420  0.37410  Biso   1.000  H
  H90      1.0000 0.58390  0.68310  0.37600  Biso   1.000  H
  C130     1.0000 0.38730  0.91800  0.60378  Biso   1.000  C
  H91      1.0000 0.40550  0.90160  0.63270  Biso   1.000  H
  C131     1.0000 0.95930  0.15190  0.41842  Biso   1.000  C
  H92      1.0000 0.88540  0.12550  0.43020  Biso   1.000  H
  C132     1.0000 0.28770  0.02520  0.55155  Biso   1.000  C
  H93      1.0000 0.23800  0.08040  0.54540  Biso   1.000  H
  Co7      1.0000 0.27885  0.83287  0.95169  Biso   1.000  Co
  Co8      1.0000 0.82186  0.33349  0.78613  Biso   1.000  Co
  C133     1.0000 0.14190  0.18700  0.81915  Biso   1.000  C
  O25      1.0000 0.32226  0.92438  0.90348  Biso   1.000  O
  O26      1.0000 0.62300  0.47329  0.80951  Biso   1.000  O
  O27      1.0000 0.82195  0.44043  0.82988  Biso   1.000  O
  N25      1.0000 0.11210  0.75771  0.95637  Biso   1.000  N
  N26      1.0000 0.77820  0.58919  0.50969  Biso   1.000  N
  O28      1.0000 0.45351  0.77267  0.96080  Biso   1.000  O
  N27      1.0000 0.48340  0.17559  0.79314  Biso   1.000  N
  N28      1.0000 0.92820  0.68531  0.94834  Biso   1.000  N
  O29      1.0000 0.36679  0.70582  0.90198  Biso   1.000  O
  C134     1.0000 0.89400  0.35790  0.69242  Biso   1.000  C
  H94      1.0000 0.95570  0.31180  0.70000  Biso   1.000  H
  N29      1.0000 0.81340  0.38985  0.72352  Biso   1.000  N
  O30      1.0000 0.13050  0.97679  0.92160  Biso   1.000  O
  C135     1.0000 0.58620  0.67080  0.91615  Biso   1.000  C
  C136     1.0000 0.71570  0.48640  0.83382  Biso   1.000  C
  N30      1.0000 0.66760  0.24576  0.78504  Biso   1.000  N
  N31      1.0000 0.07880  0.71729  0.99657  Biso   1.000  N
  C137     1.0000 0.46030  0.71850  0.92664  Biso   1.000  C
  C138     1.0000 0.96920  0.67340  0.99117  Biso   1.000  C
  N32      1.0000 0.63840  0.19530  0.74700  Biso   1.000  N
  H95      1.0000 0.68490  0.19200  0.72390  Biso   1.000  H
  C139     1.0000 0.89900  0.52350  0.56938  Biso   1.000  C
  H96      1.0000 0.97820  0.50870  0.58120  Biso   1.000  H
  C140     1.0000 0.81110  0.65460  0.92758  Biso   1.000  C
  C141     1.0000 0.35360  0.07610  0.84252  Biso   1.000  C
  H97      1.0000 0.42410  0.03750  0.84920  Biso   1.000  H
  C142     1.0000 0.02140  0.73840  0.92786  Biso   1.000  C
  C143     1.0000 0.22740  0.98330  0.89877  Biso   1.000  C
  C144     1.0000 0.70870  0.55940  0.87102  Biso   1.000  C
  C145     1.0000 0.90780  0.61600  0.02637  Biso   1.000  C
  C146     1.0000 0.81820  0.58440  0.89442  Biso   1.000  C
  H98      1.0000 0.89520  0.55430  0.88780  Biso   1.000  H
  C147     1.0000 0.59360  0.60280  0.88231  Biso   1.000  C
  H99      1.0000 0.52060  0.58590  0.86690  Biso   1.000  H
  C148     1.0000 0.78870  0.49940  0.59206  Biso   1.000  C
  C149     1.0000 0.88850  0.39110  0.64956  Biso   1.000  C
  H100     1.0000 0.94660  0.36800  0.62910  Biso   1.000  H
  C150     1.0000 0.67320  0.51850  0.57163  Biso   1.000  C
  H101     1.0000 0.59750  0.50230  0.58550  Biso   1.000  H
  C151     1.0000 0.79610  0.45900  0.63718  Biso   1.000  C
  C152     1.0000 0.88970  0.56950  0.52910  Biso   1.000  C
  H102     1.0000 0.96390  0.58770  0.51480  Biso   1.000  H
  C153     1.0000 0.67750  0.26520  0.88416  Biso   1.000  C
  H103     1.0000 0.75070  0.23650  0.87290  Biso   1.000  H
  C154     1.0000 0.69700  0.69810  0.93923  Biso   1.000  C
  H104     1.0000 0.69350  0.74430  0.96180  Biso   1.000  H
  C155     1.0000 0.23870  0.06000  0.86389  Biso   1.000  C
  C156     1.0000 0.25680  0.20470  0.79858  Biso   1.000  C
  H105     1.0000 0.26340  0.25220  0.77670  Biso   1.000  H
  C157     1.0000 0.71310  0.49250  0.66989  Biso   1.000  C
  H106     1.0000 0.65060  0.53880  0.66330  Biso   1.000  H
  C158     1.0000 0.13410  0.11690  0.85209  Biso   1.000  C
  H107     1.0000 0.05750  0.10760  0.86660  Biso   1.000  H
  C159     1.0000 0.81390  0.49910  0.09449  Biso   1.000  C
  H108     1.0000 0.78260  0.46030  0.11720  Biso   1.000  H
  C160     1.0000 0.67150  0.56160  0.53070  Biso   1.000  C
  H109     1.0000 0.59370  0.57200  0.51700  Biso   1.000  H
  C161     1.0000 0.93380  0.64050  0.06980  Biso   1.000  C
  H110     1.0000 0.98250  0.69620  0.07620  Biso   1.000  H
  C162     1.0000 0.83490  0.53210  0.01721  Biso   1.000  C
  H111     1.0000 0.81790  0.51450  0.98830  Biso   1.000  H
  C163     1.0000 0.57360  0.23260  0.81337  Biso   1.000  C
  C164     1.0000 0.72550  0.45610  0.71186  Biso   1.000  C
  H112     1.0000 0.66970  0.47890  0.73320  Biso   1.000  H
  C165     1.0000 0.56870  0.27040  0.85852  Biso   1.000  C
  O31      1.0000 0.92460  0.22440  0.82352  Biso   1.000  O
  C166     1.0000 0.36180  0.14960  0.81145  Biso   1.000  C
  O32      1.0000 0.03330  0.31640  0.78102  Biso   1.000  O
  C167     1.0000 0.45990  0.31320  0.87586  Biso   1.000  C
  H113     1.0000 0.38720  0.31840  0.85870  Biso   1.000  H
  C168     1.0000 0.02600  0.24620  0.80691  Biso   1.000  C
  C169     1.0000 0.46050  0.08980  0.72026  Biso   1.000  C
  H114     1.0000 0.38700  0.12400  0.70940  Biso   1.000  H
  H115     1.0000 0.51580  0.07430  0.69630  Biso   1.000  H
  H116     1.0000 0.43460  0.02970  0.73440  Biso   1.000  H
  C170     1.0000 0.52840  0.15370  0.75216  Biso   1.000  C
  C171     1.0000 0.67770  0.30260  0.92637  Biso   1.000  C
  H117     1.0000 0.75130  0.30010  0.94320  Biso   1.000  H
  C172     1.0000 0.56880  0.34370  0.94351  Biso   1.000  C
  H118     1.0000 0.56890  0.36850  0.97190  Biso   1.000  H
  C173     1.0000 0.01930  0.76820  0.88113  Biso   1.000  C
  H119     1.0000 0.03460  0.71140  0.86310  Biso   1.000  H
  H120     1.0000 0.93780  0.79580  0.87410  Biso   1.000  H
  H121     1.0000 0.08390  0.81690  0.87600  Biso   1.000  H
  C174     1.0000 0.88730  0.58200  0.10378  Biso   1.000  C
  H122     1.0000 0.90550  0.59840  0.13270  Biso   1.000  H
  C175     1.0000 0.45930  0.34810  0.91842  Biso   1.000  C
  H123     1.0000 0.38540  0.37450  0.93020  Biso   1.000  H
  C176     1.0000 0.78770  0.47480  0.05155  Biso   1.000  C
  H124     1.0000 0.73800  0.41960  0.04540  Biso   1.000  H
