data_image0
_cell_length_a       7.4194
_cell_length_b       17.963
_cell_length_c       24.574
_cell_angle_alpha    90
_cell_angle_beta     90
_cell_angle_gamma    90

_symmetry_space_group_name_H-M    "P 1"
_symmetry_int_tables_number       1

loop_
  _symmetry_equiv_pos_as_xyz
  'x, y, z'

loop_
  _atom_site_label
  _atom_site_occupancy
  _atom_site_fract_x
  _atom_site_fract_y
  _atom_site_fract_z
  _atom_site_thermal_displace_type
  _atom_site_B_iso_or_equiv
  _atom_site_type_symbol
  O1       1.0000 0.91530  0.61553  0.05365  Biso   1.000  O
  O2       1.0000 0.96260  0.51932  0.16999  Biso   1.000  O
  C1       1.0000 0.88370  0.68465  0.05030  Biso   1.000  C
  C2       1.0000 0.74570  0.70927  0.00813  Biso   1.000  C
  H1       1.0000 0.63400  0.70020  0.02560  Biso   1.000  H
  H2       1.0000 0.76720  0.67770  0.97560  Biso   1.000  H
  O3       1.0000 0.91530  0.11553  0.55365  Biso   1.000  O
  O4       1.0000 0.96260  0.01932  0.66999  Biso   1.000  O
  C3       1.0000 0.88370  0.18465  0.55030  Biso   1.000  C
  C4       1.0000 0.74570  0.20927  0.50813  Biso   1.000  C
  H3       1.0000 0.63400  0.20020  0.52560  Biso   1.000  H
  H4       1.0000 0.76720  0.17770  0.47560  Biso   1.000  H
  O5       1.0000 0.41530  0.61553  0.55365  Biso   1.000  O
  O6       1.0000 0.46260  0.51932  0.66999  Biso   1.000  O
  C5       1.0000 0.38370  0.68465  0.55030  Biso   1.000  C
  C6       1.0000 0.24570  0.70927  0.50813  Biso   1.000  C
  H5       1.0000 0.13400  0.70020  0.52560  Biso   1.000  H
  H6       1.0000 0.26720  0.67770  0.47560  Biso   1.000  H
  O7       1.0000 0.41530  0.11553  0.05365  Biso   1.000  O
  O8       1.0000 0.46260  0.01932  0.16999  Biso   1.000  O
  C7       1.0000 0.38370  0.18465  0.05030  Biso   1.000  C
  C8       1.0000 0.24570  0.20927  0.00813  Biso   1.000  C
  H7       1.0000 0.13400  0.20020  0.02560  Biso   1.000  H
  H8       1.0000 0.26720  0.17770  0.97560  Biso   1.000  H
  O9       1.0000 0.83470  0.13447  0.05365  Biso   1.000  O
  O10      1.0000 0.78740  0.23068  0.16999  Biso   1.000  O
  C9       1.0000 0.86630  0.06535  0.05030  Biso   1.000  C
  C10      1.0000 0.00430  0.04073  0.00813  Biso   1.000  C
  H9       1.0000 0.11600  0.04980  0.02560  Biso   1.000  H
  H10      1.0000 0.98280  0.07230  0.97560  Biso   1.000  H
  O11      1.0000 0.83470  0.63447  0.55365  Biso   1.000  O
  O12      1.0000 0.78740  0.73068  0.66999  Biso   1.000  O
  C11      1.0000 0.86630  0.56535  0.55030  Biso   1.000  C
  C12      1.0000 0.00430  0.54073  0.50813  Biso   1.000  C
  H11      1.0000 0.11600  0.54980  0.52560  Biso   1.000  H
  H12      1.0000 0.98280  0.57230  0.47560  Biso   1.000  H
  O13      1.0000 0.33470  0.13447  0.55365  Biso   1.000  O
  O14      1.0000 0.28740  0.23068  0.66999  Biso   1.000  O
  C13      1.0000 0.36630  0.06535  0.55030  Biso   1.000  C
  C14      1.0000 0.50430  0.04073  0.50813  Biso   1.000  C
  H13      1.0000 0.61600  0.04980  0.52560  Biso   1.000  H
  H14      1.0000 0.48280  0.07230  0.47560  Biso   1.000  H
  O15      1.0000 0.33470  0.63447  0.05365  Biso   1.000  O
  O16      1.0000 0.28740  0.73068  0.16999  Biso   1.000  O
  C15      1.0000 0.36630  0.56535  0.05030  Biso   1.000  C
  C16      1.0000 0.50430  0.54073  0.00813  Biso   1.000  C
  H15      1.0000 0.61600  0.54980  0.02560  Biso   1.000  H
  H16      1.0000 0.48280  0.57230  0.97560  Biso   1.000  H
  O17      1.0000 0.83470  0.61553  0.69635  Biso   1.000  O
  O18      1.0000 0.78740  0.51932  0.58001  Biso   1.000  O
  C17      1.0000 0.86630  0.68465  0.69970  Biso   1.000  C
  C18      1.0000 0.00430  0.70927  0.74187  Biso   1.000  C
  H17      1.0000 0.11600  0.70020  0.72440  Biso   1.000  H
  H18      1.0000 0.98280  0.67770  0.77440  Biso   1.000  H
  O19      1.0000 0.83470  0.11553  0.19635  Biso   1.000  O
  O20      1.0000 0.78740  0.01932  0.08001  Biso   1.000  O
  C19      1.0000 0.86630  0.18465  0.19970  Biso   1.000  C
  C20      1.0000 0.00430  0.20927  0.24187  Biso   1.000  C
  H19      1.0000 0.11600  0.20020  0.22440  Biso   1.000  H
  H20      1.0000 0.98280  0.17770  0.27440  Biso   1.000  H
  O21      1.0000 0.33470  0.61553  0.19635  Biso   1.000  O
  O22      1.0000 0.28740  0.51932  0.08001  Biso   1.000  O
  C21      1.0000 0.36630  0.68465  0.19970  Biso   1.000  C
  C22      1.0000 0.50430  0.70927  0.24187  Biso   1.000  C
  H21      1.0000 0.61600  0.70020  0.22440  Biso   1.000  H
  H22      1.0000 0.48280  0.67770  0.27440  Biso   1.000  H
  O23      1.0000 0.33470  0.11553  0.69635  Biso   1.000  O
  O24      1.0000 0.28740  0.01932  0.58001  Biso   1.000  O
  C23      1.0000 0.36630  0.18465  0.69970  Biso   1.000  C
  C24      1.0000 0.50430  0.20927  0.74187  Biso   1.000  C
  H23      1.0000 0.61600  0.20020  0.72440  Biso   1.000  H
  H24      1.0000 0.48280  0.17770  0.77440  Biso   1.000  H
  O25      1.0000 0.91530  0.13447  0.69635  Biso   1.000  O
  O26      1.0000 0.96260  0.23068  0.58001  Biso   1.000  O
  C25      1.0000 0.88370  0.06535  0.69970  Biso   1.000  C
  C26      1.0000 0.74570  0.04073  0.74187  Biso   1.000  C
  H25      1.0000 0.63400  0.04980  0.72440  Biso   1.000  H
  H26      1.0000 0.76720  0.07230  0.77440  Biso   1.000  H
  O27      1.0000 0.91530  0.63447  0.19635  Biso   1.000  O
  O28      1.0000 0.96260  0.73068  0.08001  Biso   1.000  O
  C27      1.0000 0.88370  0.56535  0.19970  Biso   1.000  C
  C28      1.0000 0.74570  0.54073  0.24187  Biso   1.000  C
  H27      1.0000 0.63400  0.54980  0.22440  Biso   1.000  H
  H28      1.0000 0.76720  0.57230  0.27440  Biso   1.000  H
  O29      1.0000 0.41530  0.13447  0.19635  Biso   1.000  O
  O30      1.0000 0.46260  0.23068  0.08001  Biso   1.000  O
  C29      1.0000 0.38370  0.06535  0.19970  Biso   1.000  C
  C30      1.0000 0.24570  0.04073  0.24187  Biso   1.000  C
  H29      1.0000 0.13400  0.04980  0.22440  Biso   1.000  H
  H30      1.0000 0.26720  0.07230  0.27440  Biso   1.000  H
  O31      1.0000 0.41530  0.63447  0.69635  Biso   1.000  O
  O32      1.0000 0.46260  0.73068  0.58001  Biso   1.000  O
  C31      1.0000 0.38370  0.56535  0.69970  Biso   1.000  C
  C32      1.0000 0.24570  0.54073  0.74187  Biso   1.000  C
  H31      1.0000 0.13400  0.54980  0.72440  Biso   1.000  H
  H32      1.0000 0.26720  0.57230  0.77440  Biso   1.000  H
  O33      1.0000 0.08470  0.38447  0.94635  Biso   1.000  O
  O34      1.0000 0.03740  0.48068  0.83001  Biso   1.000  O
  C33      1.0000 0.11630  0.31535  0.94970  Biso   1.000  C
  C34      1.0000 0.25430  0.29073  0.99187  Biso   1.000  C
  H33      1.0000 0.36600  0.29980  0.97440  Biso   1.000  H
  H34      1.0000 0.23280  0.32230  0.02440  Biso   1.000  H
  O35      1.0000 0.08470  0.88447  0.44635  Biso   1.000  O
  O36      1.0000 0.03740  0.98068  0.33001  Biso   1.000  O
  C35      1.0000 0.11630  0.81535  0.44970  Biso   1.000  C
  C36      1.0000 0.25430  0.79073  0.49187  Biso   1.000  C
  H35      1.0000 0.36600  0.79980  0.47440  Biso   1.000  H
  H36      1.0000 0.23280  0.82230  0.52440  Biso   1.000  H
  O37      1.0000 0.58470  0.38447  0.44635  Biso   1.000  O
  O38      1.0000 0.53740  0.48068  0.33001  Biso   1.000  O
  C37      1.0000 0.61630  0.31535  0.44970  Biso   1.000  C
  C38      1.0000 0.75430  0.29073  0.49187  Biso   1.000  C
  H37      1.0000 0.86600  0.29980  0.47440  Biso   1.000  H
  H38      1.0000 0.73280  0.32230  0.52440  Biso   1.000  H
  O39      1.0000 0.58470  0.88447  0.94635  Biso   1.000  O
  O40      1.0000 0.53740  0.98068  0.83001  Biso   1.000  O
  C39      1.0000 0.61630  0.81535  0.94970  Biso   1.000  C
  C40      1.0000 0.75430  0.79073  0.99187  Biso   1.000  C
  H39      1.0000 0.86600  0.79980  0.97440  Biso   1.000  H
  H40      1.0000 0.73280  0.82230  0.02440  Biso   1.000  H
  O41      1.0000 0.16530  0.86553  0.94635  Biso   1.000  O
  O42      1.0000 0.21260  0.76932  0.83001  Biso   1.000  O
  C41      1.0000 0.13370  0.93465  0.94970  Biso   1.000  C
  C42      1.0000 0.99570  0.95927  0.99187  Biso   1.000  C
  H41      1.0000 0.88400  0.95020  0.97440  Biso   1.000  H
  H42      1.0000 0.01720  0.92770  0.02440  Biso   1.000  H
  O43      1.0000 0.16530  0.36553  0.44635  Biso   1.000  O
  O44      1.0000 0.21260  0.26932  0.33001  Biso   1.000  O
  C43      1.0000 0.13370  0.43465  0.44970  Biso   1.000  C
  C44      1.0000 0.99570  0.45927  0.49187  Biso   1.000  C
  H43      1.0000 0.88400  0.45020  0.47440  Biso   1.000  H
  H44      1.0000 0.01720  0.42770  0.52440  Biso   1.000  H
  O45      1.0000 0.66530  0.86553  0.44635  Biso   1.000  O
  O46      1.0000 0.71260  0.76932  0.33001  Biso   1.000  O
  C45      1.0000 0.63370  0.93465  0.44970  Biso   1.000  C
  C46      1.0000 0.49570  0.95927  0.49187  Biso   1.000  C
  H45      1.0000 0.38400  0.95020  0.47440  Biso   1.000  H
  H46      1.0000 0.51720  0.92770  0.52440  Biso   1.000  H
  O47      1.0000 0.66530  0.36553  0.94635  Biso   1.000  O
  O48      1.0000 0.71260  0.26932  0.83001  Biso   1.000  O
  C47      1.0000 0.63370  0.43465  0.94970  Biso   1.000  C
  C48      1.0000 0.49570  0.45927  0.99187  Biso   1.000  C
  H47      1.0000 0.38400  0.45020  0.97440  Biso   1.000  H
  H48      1.0000 0.51720  0.42770  0.02440  Biso   1.000  H
  O49      1.0000 0.16530  0.38447  0.30365  Biso   1.000  O
  O50      1.0000 0.21260  0.48068  0.41999  Biso   1.000  O
  C49      1.0000 0.13370  0.31535  0.30030  Biso   1.000  C
  C50      1.0000 0.99570  0.29073  0.25813  Biso   1.000  C
  H49      1.0000 0.88400  0.29980  0.27560  Biso   1.000  H
  H50      1.0000 0.01720  0.32230  0.22560  Biso   1.000  H
  O51      1.0000 0.16530  0.88447  0.80365  Biso   1.000  O
  O52      1.0000 0.21260  0.98068  0.91999  Biso   1.000  O
  C51      1.0000 0.13370  0.81535  0.80030  Biso   1.000  C
  C52      1.0000 0.99570  0.79073  0.75813  Biso   1.000  C
  H51      1.0000 0.88400  0.79980  0.77560  Biso   1.000  H
  H52      1.0000 0.01720  0.82230  0.72560  Biso   1.000  H
  O53      1.0000 0.66530  0.38447  0.80365  Biso   1.000  O
  O54      1.0000 0.71260  0.48068  0.91999  Biso   1.000  O
  C53      1.0000 0.63370  0.31535  0.80030  Biso   1.000  C
  C54      1.0000 0.49570  0.29073  0.75813  Biso   1.000  C
  H53      1.0000 0.38400  0.29980  0.77560  Biso   1.000  H
  H54      1.0000 0.51720  0.32230  0.72560  Biso   1.000  H
  O55      1.0000 0.66530  0.88447  0.30365  Biso   1.000  O
  O56      1.0000 0.71260  0.98068  0.41999  Biso   1.000  O
  C55      1.0000 0.63370  0.81535  0.30030  Biso   1.000  C
  C56      1.0000 0.49570  0.79073  0.25813  Biso   1.000  C
  H55      1.0000 0.38400  0.79980  0.27560  Biso   1.000  H
  H56      1.0000 0.51720  0.82230  0.22560  Biso   1.000  H
  O57      1.0000 0.08470  0.86553  0.30365  Biso   1.000  O
  O58      1.0000 0.03740  0.76932  0.41999  Biso   1.000  O
  C57      1.0000 0.11630  0.93465  0.30030  Biso   1.000  C
  C58      1.0000 0.25430  0.95927  0.25813  Biso   1.000  C
  H57      1.0000 0.36600  0.95020  0.27560  Biso   1.000  H
  H58      1.0000 0.23280  0.92770  0.22560  Biso   1.000  H
  O59      1.0000 0.08470  0.36553  0.80365  Biso   1.000  O
  O60      1.0000 0.03740  0.26932  0.91999  Biso   1.000  O
  C59      1.0000 0.11630  0.43465  0.80030  Biso   1.000  C
  C60      1.0000 0.25430  0.45927  0.75813  Biso   1.000  C
  H59      1.0000 0.36600  0.45020  0.77560  Biso   1.000  H
  H60      1.0000 0.23280  0.42770  0.72560  Biso   1.000  H
  O61      1.0000 0.58470  0.86553  0.80365  Biso   1.000  O
  O62      1.0000 0.53740  0.76932  0.91999  Biso   1.000  O
  C61      1.0000 0.61630  0.93465  0.80030  Biso   1.000  C
  C62      1.0000 0.75430  0.95927  0.75813  Biso   1.000  C
  H61      1.0000 0.86600  0.95020  0.77560  Biso   1.000  H
  H62      1.0000 0.73280  0.92770  0.72560  Biso   1.000  H
  O63      1.0000 0.58470  0.36553  0.30365  Biso   1.000  O
  O64      1.0000 0.53740  0.26932  0.41999  Biso   1.000  O
  C63      1.0000 0.61630  0.43465  0.30030  Biso   1.000  C
  C64      1.0000 0.75430  0.45927  0.25813  Biso   1.000  C
  H63      1.0000 0.86600  0.45020  0.27560  Biso   1.000  H
  H64      1.0000 0.73280  0.42770  0.22560  Biso   1.000  H
  Cd1      1.0000 0.12500  0.62500  0.12500  Biso   1.000  Cd
  Cd2      1.0000 0.62500  0.62500  0.62500  Biso   1.000  Cd
  Cd3      1.0000 0.62500  0.12500  0.12500  Biso   1.000  Cd
  Cd4      1.0000 0.12500  0.12500  0.62500  Biso   1.000  Cd
  Cd5      1.0000 0.87500  0.37500  0.87500  Biso   1.000  Cd
  Cd6      1.0000 0.37500  0.37500  0.37500  Biso   1.000  Cd
  Cd7      1.0000 0.37500  0.87500  0.87500  Biso   1.000  Cd
  Cd8      1.0000 0.87500  0.87500  0.37500  Biso   1.000  Cd
