data_image0
_cell_length_a       8.53
_cell_length_b       11.28
_cell_length_c       13.917
_cell_angle_alpha    90
_cell_angle_beta     112.75
_cell_angle_gamma    90

_symmetry_space_group_name_H-M    "P 1"
_symmetry_int_tables_number       1

loop_
  _symmetry_equiv_pos_as_xyz
  'x, y, z'

loop_
  _atom_site_label
  _atom_site_occupancy
  _atom_site_fract_x
  _atom_site_fract_y
  _atom_site_fract_z
  _atom_site_thermal_displace_type
  _atom_site_B_iso_or_equiv
  _atom_site_type_symbol
  Cu1      1.0000 0.61642  0.41223  0.53093  Biso   1.000  Cu
  C1       1.0000 0.95030  0.65330  0.40420  Biso   1.000  C
  H1       1.0000 0.00380  0.59610  0.45430  Biso   1.000  H
  C2       1.0000 0.77970  0.66200  0.36460  Biso   1.000  C
  C3       1.0000 0.78120  0.81110  0.25120  Biso   1.000  C
  C4       1.0000 0.95220  0.81510  0.29070  Biso   1.000  C
  H2       1.0000 0.00730  0.87220  0.26690  Biso   1.000  H
  C5       1.0000 0.05070  0.73170  0.36950  Biso   1.000  C
  C6       1.0000 0.66910  0.59560  0.40880  Biso   1.000  C
  C7       1.0000 0.67160  0.88440  0.15910  Biso   1.000  C
  O1       1.0000 0.69120  0.73720  0.28717  Biso   1.000  O
  O2       1.0000 0.20870  0.72900  0.40361  Biso   1.000  O
  O3       1.0000 0.73060  0.50030  0.45490  Biso   1.000  O
  O4       1.0000 0.53310  0.64430  0.39990  Biso   1.000  O
  O5       1.0000 0.53360  0.83840  0.10060  Biso   1.000  O
  O6       1.0000 0.73210  0.98200  0.14936  Biso   1.000  O
  Cu2      1.0000 0.38358  0.91223  0.96907  Biso   1.000  Cu
  C8       1.0000 0.04970  0.15330  0.09580  Biso   1.000  C
  H3       1.0000 0.99620  0.09610  0.04570  Biso   1.000  H
  C9       1.0000 0.22030  0.16200  0.13540  Biso   1.000  C
  C10      1.0000 0.21880  0.31110  0.24880  Biso   1.000  C
  C11      1.0000 0.04780  0.31510  0.20930  Biso   1.000  C
  H4       1.0000 0.99270  0.37220  0.23310  Biso   1.000  H
  C12      1.0000 0.94930  0.23170  0.13050  Biso   1.000  C
  C13      1.0000 0.33090  0.09560  0.09120  Biso   1.000  C
  C14      1.0000 0.32840  0.38440  0.34090  Biso   1.000  C
  O7       1.0000 0.30880  0.23720  0.21283  Biso   1.000  O
  O8       1.0000 0.79130  0.22900  0.09639  Biso   1.000  O
  O9       1.0000 0.26940  0.00030  0.04510  Biso   1.000  O
  O10      1.0000 0.46690  0.14430  0.10010  Biso   1.000  O
  O11      1.0000 0.46640  0.33840  0.39940  Biso   1.000  O
  O12      1.0000 0.26790  0.48200  0.35064  Biso   1.000  O
  Cu3      1.0000 0.38358  0.58777  0.46907  Biso   1.000  Cu
  C15      1.0000 0.04970  0.34670  0.59580  Biso   1.000  C
  H5       1.0000 0.99620  0.40390  0.54570  Biso   1.000  H
  C16      1.0000 0.22030  0.33800  0.63540  Biso   1.000  C
  C17      1.0000 0.21880  0.18890  0.74880  Biso   1.000  C
  C18      1.0000 0.04780  0.18490  0.70930  Biso   1.000  C
  H6       1.0000 0.99270  0.12780  0.73310  Biso   1.000  H
  C19      1.0000 0.94930  0.26830  0.63050  Biso   1.000  C
  C20      1.0000 0.33090  0.40440  0.59120  Biso   1.000  C
  C21      1.0000 0.32840  0.11560  0.84090  Biso   1.000  C
  O13      1.0000 0.30880  0.26280  0.71283  Biso   1.000  O
  O14      1.0000 0.79130  0.27100  0.59639  Biso   1.000  O
  O15      1.0000 0.26940  0.49970  0.54510  Biso   1.000  O
  O16      1.0000 0.46690  0.35570  0.60010  Biso   1.000  O
  O17      1.0000 0.46640  0.16160  0.89940  Biso   1.000  O
  O18      1.0000 0.26790  0.01800  0.85064  Biso   1.000  O
  Cu4      1.0000 0.61642  0.08777  0.03093  Biso   1.000  Cu
  C22      1.0000 0.95030  0.84670  0.90420  Biso   1.000  C
  H7       1.0000 0.00380  0.90390  0.95430  Biso   1.000  H
  C23      1.0000 0.77970  0.83800  0.86460  Biso   1.000  C
  C24      1.0000 0.78120  0.68890  0.75120  Biso   1.000  C
  C25      1.0000 0.95220  0.68490  0.79070  Biso   1.000  C
  H8       1.0000 0.00730  0.62780  0.76690  Biso   1.000  H
  C26      1.0000 0.05070  0.76830  0.86950  Biso   1.000  C
  C27      1.0000 0.66910  0.90440  0.90880  Biso   1.000  C
  C28      1.0000 0.67160  0.61560  0.65910  Biso   1.000  C
  O19      1.0000 0.69120  0.76280  0.78717  Biso   1.000  O
  O20      1.0000 0.20870  0.77100  0.90361  Biso   1.000  O
  O21      1.0000 0.73060  0.99970  0.95490  Biso   1.000  O
  O22      1.0000 0.53310  0.85570  0.89990  Biso   1.000  O
  O23      1.0000 0.53360  0.66160  0.60060  Biso   1.000  O
  O24      1.0000 0.73210  0.51800  0.64936  Biso   1.000  O
