data_image0
_cell_length_a       8.3936
_cell_length_b       10.5347
_cell_length_c       17.4093
_cell_angle_alpha    99.174
_cell_angle_beta     97.13
_cell_angle_gamma    100.348

_symmetry_space_group_name_H-M    "P 1"
_symmetry_int_tables_number       1

loop_
  _symmetry_equiv_pos_as_xyz
  'x, y, z'

loop_
  _atom_site_label
  _atom_site_occupancy
  _atom_site_fract_x
  _atom_site_fract_y
  _atom_site_fract_z
  _atom_site_thermal_displace_type
  _atom_site_B_iso_or_equiv
  _atom_site_type_symbol
  C1       1.0000 0.97490  0.55750  0.30462  Biso   1.000  C
  C2       1.0000 0.97230  0.42730  0.32890  Biso   1.000  C
  C3       1.0000 0.06370  0.42000  0.39990  Biso   1.000  C
  H1       1.0000 0.12870  0.49570  0.43140  Biso   1.000  H
  C4       1.0000 0.05810  0.30000  0.42380  Biso   1.000  C
  H2       1.0000 0.11760  0.29560  0.47170  Biso   1.000  H
  C5       1.0000 0.96380  0.18640  0.37620  Biso   1.000  C
  H3       1.0000 0.96250  0.10590  0.39180  Biso   1.000  H
  C6       1.0000 0.87160  0.19240  0.30550  Biso   1.000  C
  C7       1.0000 0.87680  0.31370  0.28250  Biso   1.000  C
  H4       1.0000 0.81510  0.31840  0.23520  Biso   1.000  H
  C8       1.0000 0.75650  0.07450  0.25720  Biso   1.000  C
  C9       1.0000 0.83820  0.00360  0.85932  Biso   1.000  C
  C10      1.0000 0.87230  0.90660  0.91074  Biso   1.000  C
  C11      1.0000 0.99700  0.83780  0.89980  Biso   1.000  C
  H5       1.0000 0.05980  0.85090  0.86030  Biso   1.000  H
  C12      1.0000 0.02690  0.74960  0.94830  Biso   1.000  C
  H6       1.0000 0.10770  0.70130  0.94000  Biso   1.000  H
  C13      1.0000 0.93740  0.73290  0.00880  Biso   1.000  C
  H7       1.0000 0.96010  0.67500  0.04180  Biso   1.000  H
  C14      1.0000 0.81490  0.80160  0.02047  Biso   1.000  C
  C15      1.0000 0.78060  0.88730  0.97033  Biso   1.000  C
  H8       1.0000 0.69570  0.93180  0.97690  Biso   1.000  H
  C16      1.0000 0.72240  0.79000  0.08796  Biso   1.000  C
  C17      1.0000 0.68900  0.00080  0.63713  Biso   1.000  C
  C18      1.0000 0.59910  0.90540  0.56475  Biso   1.000  C
  C19      1.0000 0.43650  0.84620  0.56320  Biso   1.000  C
  H9       1.0000 0.38730  0.86230  0.60780  Biso   1.000  H
  C20      1.0000 0.34730  0.76370  0.49610  Biso   1.000  C
  H10      1.0000 0.23830  0.72500  0.49540  Biso   1.000  H
  C21      1.0000 0.42040  0.73910  0.43050  Biso   1.000  C
  H11      1.0000 0.35970  0.68450  0.38510  Biso   1.000  H
  C22      1.0000 0.58300  0.79440  0.43108  Biso   1.000  C
  C23      1.0000 0.65950  0.76910  0.35878  Biso   1.000  C
  C24      1.0000 0.67270  0.87870  0.49879  Biso   1.000  C
  H12      1.0000 0.78190  0.91690  0.49950  Biso   1.000  H
  C25      1.0000 0.21450  0.62770  0.16140  Biso   1.000  C
  H13      1.0000 0.13320  0.55170  0.14750  Biso   1.000  H
  Eu1      1.0000 0.47769  0.86133  0.20330  Biso   1.000  Eu
  Eu2      1.0000 0.96636  0.80744  0.26231  Biso   1.000  Eu
  O1       1.0000 0.07070  0.65700  0.34339  Biso   1.000  O
  O2       1.0000 0.87690  0.56410  0.24341  Biso   1.000  O
  O3       1.0000 0.63850  0.08860  0.21063  Biso   1.000  O
  O4       1.0000 0.77420  0.95990  0.26770  Biso   1.000  O
  O5       1.0000 0.93820  0.03330  0.81391  Biso   1.000  O
  O6       1.0000 0.71050  0.04890  0.86598  Biso   1.000  O
  O7       1.0000 0.59350  0.83350  0.08689  Biso   1.000  O
  O8       1.0000 0.77680  0.73530  0.14286  Biso   1.000  O
  O9       1.0000 0.83850  0.04720  0.64084  Biso   1.000  O
  O10      1.0000 0.60540  0.03060  0.69045  Biso   1.000  O
  O11      1.0000 0.56520  0.73100  0.29226  Biso   1.000  O
  O12      1.0000 0.81200  0.78590  0.36658  Biso   1.000  O
  O13      1.0000 0.34850  0.62670  0.13763  Biso   1.000  O
  O14      1.0000 0.18440  0.72500  0.20253  Biso   1.000  O
  C26      1.0000 0.02510  0.44250  0.69538  Biso   1.000  C
  C27      1.0000 0.02770  0.57270  0.67110  Biso   1.000  C
  C28      1.0000 0.93630  0.58000  0.60010  Biso   1.000  C
  H14      1.0000 0.87130  0.50430  0.56860  Biso   1.000  H
  C29      1.0000 0.94190  0.70000  0.57620  Biso   1.000  C
  H15      1.0000 0.88240  0.70440  0.52830  Biso   1.000  H
  C30      1.0000 0.03620  0.81360  0.62380  Biso   1.000  C
  H16      1.0000 0.03750  0.89410  0.60820  Biso   1.000  H
  C31      1.0000 0.12840  0.80760  0.69450  Biso   1.000  C
  C32      1.0000 0.12320  0.68630  0.71750  Biso   1.000  C
  H17      1.0000 0.18490  0.68160  0.76480  Biso   1.000  H
  C33      1.0000 0.24350  0.92550  0.74280  Biso   1.000  C
  C34      1.0000 0.16180  0.99640  0.14068  Biso   1.000  C
  C35      1.0000 0.12770  0.09340  0.08926  Biso   1.000  C
  C36      1.0000 0.00300  0.16220  0.10020  Biso   1.000  C
  H18      1.0000 0.94020  0.14910  0.13970  Biso   1.000  H
  C37      1.0000 0.97310  0.25040  0.05170  Biso   1.000  C
  H19      1.0000 0.89230  0.29870  0.06000  Biso   1.000  H
  C38      1.0000 0.06260  0.26710  0.99120  Biso   1.000  C
  H20      1.0000 0.03990  0.32500  0.95820  Biso   1.000  H
  C39      1.0000 0.18510  0.19840  0.97953  Biso   1.000  C
  C40      1.0000 0.21940  0.11270  0.02967  Biso   1.000  C
  H21      1.0000 0.30430  0.06820  0.02310  Biso   1.000  H
  C41      1.0000 0.27760  0.21000  0.91204  Biso   1.000  C
  C42      1.0000 0.31100  0.99920  0.36287  Biso   1.000  C
  C43      1.0000 0.40090  0.09460  0.43525  Biso   1.000  C
  C44      1.0000 0.56350  0.15380  0.43680  Biso   1.000  C
  H22      1.0000 0.61270  0.13770  0.39220  Biso   1.000  H
  C45      1.0000 0.65270  0.23630  0.50390  Biso   1.000  C
  H23      1.0000 0.76170  0.27500  0.50460  Biso   1.000  H
  C46      1.0000 0.57960  0.26090  0.56950  Biso   1.000  C
  H24      1.0000 0.64030  0.31550  0.61490  Biso   1.000  H
  C47      1.0000 0.41700  0.20560  0.56892  Biso   1.000  C
  C48      1.0000 0.34050  0.23090  0.64122  Biso   1.000  C
  C49      1.0000 0.32730  0.12130  0.50121  Biso   1.000  C
  H25      1.0000 0.21810  0.08310  0.50050  Biso   1.000  H
  C50      1.0000 0.78550  0.37230  0.83860  Biso   1.000  C
  H26      1.0000 0.86680  0.44830  0.85250  Biso   1.000  H
  Eu3      1.0000 0.52231  0.13867  0.79671  Biso   1.000  Eu
  Eu4      1.0000 0.03364  0.19256  0.73769  Biso   1.000  Eu
  O15      1.0000 0.92930  0.34300  0.65661  Biso   1.000  O
  O16      1.0000 0.12310  0.43590  0.75659  Biso   1.000  O
  O17      1.0000 0.36150  0.91140  0.78937  Biso   1.000  O
  O18      1.0000 0.22580  0.04010  0.73230  Biso   1.000  O
  O19      1.0000 0.06180  0.96670  0.18609  Biso   1.000  O
  O20      1.0000 0.28950  0.95110  0.13402  Biso   1.000  O
  O21      1.0000 0.40650  0.16650  0.91311  Biso   1.000  O
  O22      1.0000 0.22320  0.26470  0.85714  Biso   1.000  O
  O23      1.0000 0.16150  0.95280  0.35916  Biso   1.000  O
  O24      1.0000 0.39460  0.96940  0.30955  Biso   1.000  O
  O25      1.0000 0.43480  0.26900  0.70774  Biso   1.000  O
  O26      1.0000 0.18800  0.21410  0.63342  Biso   1.000  O
  O27      1.0000 0.65150  0.37330  0.86237  Biso   1.000  O
  O28      1.0000 0.81560  0.27500  0.79747  Biso   1.000  O
