data_UHISOU_clean
_audit_creation_date              2014-07-02
_audit_creation_method            'Materials Studio'
_symmetry_space_group_name_H-M    'P1'
_symmetry_Int_Tables_number       1
_symmetry_cell_setting            triclinic
loop_
_symmetry_equiv_pos_as_xyz
  x,y,z
_cell_length_a                    6.9007
_cell_length_b                    7.4722
_cell_length_c                    8.2521
_cell_angle_alpha                 90.2270
_cell_angle_beta                  108.6700
_cell_angle_gamma                 93.3320
loop_
_atom_site_label
_atom_site_type_symbol
_atom_site_fract_x
_atom_site_fract_y
_atom_site_fract_z
_atom_site_U_iso_or_equiv
_atom_site_adp_type
_atom_site_occupancy
Mg1    Mg    0.50000   0.50000   0.00000   0.01267  Uiso   1.00
Mg2    Mg    0.00000   0.00000   0.00000   0.01267  Uiso   1.00
H1     H     0.57620   0.70930   0.45910   0.01267  Uiso   1.00
H2     H     0.42380   0.29070   0.54090   0.01267  Uiso   1.00
C1     C     0.42190   0.84363   0.16004   0.01267  Uiso   1.00
C2     C     0.46340   0.93171   0.33339   0.01267  Uiso   1.00
C3     C     0.54559   0.82615   0.47559   0.01267  Uiso   1.00
C4     C     0.41748   0.10773   0.35876   0.01267  Uiso   1.00
C5     C     0.34670   0.23849   0.21637   0.01267  Uiso   1.00
C6     C     0.57810   0.15637   0.83996   0.01267  Uiso   1.00
C7     C     0.53660   0.06829   0.66661   0.01267  Uiso   1.00
C8     C     0.45441   0.17385   0.52441   0.01267  Uiso   1.00
C9     C     0.58252   0.89227   0.64124   0.01267  Uiso   1.00
C10    C     0.65330   0.76151   0.78363   0.01267  Uiso   1.00
O1     O     0.54933   0.73552   0.14641   0.01267  Uiso   1.00
O2     O     0.47861   0.35781   0.20938   0.01267  Uiso   1.00
O3     O     0.16376   0.22634   0.11849   0.01267  Uiso   1.00
O4     O     0.26324   0.87625   0.04164   0.01267  Uiso   1.00
O5     O     0.45067   0.26448   0.85359   0.01267  Uiso   1.00
O6     O     0.52139   0.64219   0.79062   0.01267  Uiso   1.00
O7     O     0.83624   0.77366   0.88151   0.01267  Uiso   1.00
O8     O     0.73676   0.12375   0.95836   0.01267  Uiso   1.00
