data_image0
_cell_length_a       9.489
_cell_length_b       13.441
_cell_length_c       18.529
_cell_angle_alpha    109.804
_cell_angle_beta     90.008
_cell_angle_gamma    107.135

_symmetry_space_group_name_H-M    "P 1"
_symmetry_int_tables_number       1

loop_
  _symmetry_equiv_pos_as_xyz
  'x, y, z'

loop_
  _atom_site_label
  _atom_site_occupancy
  _atom_site_fract_x
  _atom_site_fract_y
  _atom_site_fract_z
  _atom_site_thermal_displace_type
  _atom_site_B_iso_or_equiv
  _atom_site_type_symbol
  Co1      1.0000 0.23010  0.48802  0.31735  Biso   1.000  Co
  Co2      1.0000 0.72450  0.47660  0.17144  Biso   1.000  Co
  O1       1.0000 0.37590  0.39700  0.29300  Biso   1.000  O
  O2       1.0000 0.38250  0.58080  0.26260  Biso   1.000  O
  O3       1.0000 0.58410  0.39580  0.23770  Biso   1.000  O
  O4       1.0000 0.58280  0.57270  0.20130  Biso   1.000  O
  O5       1.0000 0.08730  0.58420  0.32850  Biso   1.000  O
  O6       1.0000 0.09220  0.40000  0.21310  Biso   1.000  O
  O7       1.0000 0.87520  0.57730  0.27190  Biso   1.000  O
  O8       1.0000 0.87270  0.38840  0.15980  Biso   1.000  O
  N1       1.0000 0.34220  0.59500  0.42810  Biso   1.000  N
  N2       1.0000 0.52150  0.90440  0.69070  Biso   1.000  N
  N3       1.0000 0.08830  0.36820  0.35730  Biso   1.000  N
  N4       1.0000 0.93460  0.05090  0.45750  Biso   1.000  N
  N5       1.0000 0.58690  0.35410  0.07340  Biso   1.000  N
  N6       1.0000 0.41680  0.02370  0.82990  Biso   1.000  N
  N7       1.0000 0.83420  0.58350  0.11200  Biso   1.000  N
  N8       1.0000 0.02980  0.91690  0.02480  Biso   1.000  N
  C1       1.0000 0.48080  0.43440  0.25690  Biso   1.000  C
  C2       1.0000 0.48230  0.53590  0.23840  Biso   1.000  C
  C3       1.0000 0.97850  0.54010  0.27620  Biso   1.000  C
  C4       1.0000 0.98190  0.43240  0.20920  Biso   1.000  C
  C5       1.0000 0.39860  0.70620  0.44360  Biso   1.000  C
  H1       1.0000 0.38510  0.73360  0.40390  Biso   1.000  H
  C6       1.0000 0.47360  0.78100  0.51250  Biso   1.000  C
  H2       1.0000 0.50890  0.85830  0.52090  Biso   1.000  H
  C7       1.0000 0.49720  0.74140  0.57000  Biso   1.000  C
  C8       1.0000 0.43930  0.63180  0.55670  Biso   1.000  C
  H3       1.0000 0.44940  0.60360  0.59640  Biso   1.000  H
  C9       1.0000 0.36510  0.56020  0.48530  Biso   1.000  C
  H4       1.0000 0.32880  0.48280  0.47650  Biso   1.000  H
  C10      1.0000 0.58870  0.81920  0.64640  Biso   1.000  C
  H5       1.0000 0.59940  0.77470  0.67790  Biso   1.000  H
  H6       1.0000 0.68920  0.85670  0.63630  Biso   1.000  H
  C11      1.0000 0.38620  0.85120  0.71940  Biso   1.000  C
  H7       1.0000 0.41120  0.81470  0.75360  Biso   1.000  H
  H8       1.0000 0.31570  0.79340  0.67540  Biso   1.000  H
  C12      1.0000 0.62410  0.98330  0.75810  Biso   1.000  C
  H9       1.0000 0.71940  0.01810  0.74140  Biso   1.000  H
  H10      1.0000 0.64410  0.94370  0.79130  Biso   1.000  H
  C13      1.0000 0.00790  0.39320  0.41660  Biso   1.000  C
  H11      1.0000 0.00180  0.46670  0.43720  Biso   1.000  H
  C14      1.0000 0.93400  0.31670  0.44850  Biso   1.000  C
  H12      1.0000 0.88110  0.33910  0.49150  Biso   1.000  H
  C15      1.0000 0.93500  0.20830  0.41970  Biso   1.000  C
  C16      1.0000 0.00930  0.18340  0.35490  Biso   1.000  C
  H13      1.0000 0.00710  0.10860  0.32910  Biso   1.000  H
  C17      1.0000 0.08440  0.26240  0.32750  Biso   1.000  C
  H14      1.0000 0.13760  0.24140  0.28450  Biso   1.000  H
  C18      1.0000 0.85220  0.12580  0.45470  Biso   1.000  C
  H15      1.0000 0.83410  0.16600  0.50770  Biso   1.000  H
  H16      1.0000 0.75480  0.08170  0.42390  Biso   1.000  H
  C19      1.0000 0.84310  0.96750  0.48860  Biso   1.000  C
  H17      1.0000 0.74870  0.92460  0.45460  Biso   1.000  H
  H18      1.0000 0.81910  0.00620  0.54050  Biso   1.000  H
  C20      1.0000 0.07590  0.11040  0.50650  Biso   1.000  C
  H19      1.0000 0.05740  0.15220  0.55900  Biso   1.000  H
  H20      1.0000 0.13850  0.16480  0.48530  Biso   1.000  H
  C21      1.0000 0.58270  0.24850  0.05570  Biso   1.000  C
  H21      1.0000 0.63220  0.22880  0.09080  Biso   1.000  H
  C22      1.0000 0.50700  0.16660  0.98690  Biso   1.000  C
  H22      1.0000 0.50720  0.09200  0.97420  Biso   1.000  H
  C23      1.0000 0.43240  0.19480  0.93790  Biso   1.000  C
  C24      1.0000 0.43300  0.30280  0.95880  Biso   1.000  C
  H23      1.0000 0.37900  0.32410  0.92660  Biso   1.000  H
  C25      1.0000 0.51110  0.37870  0.02540  Biso   1.000  C
  H24      1.0000 0.51180  0.45370  0.03870  Biso   1.000  H
  C26      1.0000 0.34610  0.11020  0.86330  Biso   1.000  C
  H25      1.0000 0.24380  0.07530  0.87270  Biso   1.000  H
  H26      1.0000 0.34000  0.14770  0.82620  Biso   1.000  H
  C27      1.0000 0.31630  0.93560  0.76250  Biso   1.000  C
  H27      1.0000 0.22430  0.89850  0.78060  Biso   1.000  H
  H28      1.0000 0.28870  0.97010  0.72750  Biso   1.000  H
  C28      1.0000 0.55780  0.07220  0.80320  Biso   1.000  C
  H29      1.0000 0.62870  0.12630  0.84830  Biso   1.000  H
  H30      1.0000 0.54050  0.11280  0.77010  Biso   1.000  H
  C29      1.0000 0.85730  0.55280  0.03750  Biso   1.000  C
  H31      1.0000 0.81930  0.47590  0.00680  Biso   1.000  H
  C30      1.0000 0.93110  0.62350  0.00270  Biso   1.000  C
  H32      1.0000 0.94510  0.59560  0.94970  Biso   1.000  H
  C31      1.0000 0.98610  0.73690  0.04440  Biso   1.000  C
  C32      1.0000 0.96440  0.77120  0.12190  Biso   1.000  C
  H33      1.0000 0.00100  0.84760  0.15370  Biso   1.000  H
  C33      1.0000 0.88790  0.69160  0.15220  Biso   1.000  C
  H34      1.0000 0.87310  0.71640  0.20520  Biso   1.000  H
  C34      1.0000 0.08140  0.82080  0.01330  Biso   1.000  C
  H35      1.0000 0.18410  0.84730  0.03870  Biso   1.000  H
  H36      1.0000 0.08390  0.78380  0.95730  Biso   1.000  H
  C35      1.0000 0.90390  0.89110  0.96920  Biso   1.000  C
  H37      1.0000 0.82170  0.82890  0.97390  Biso   1.000  H
  H38      1.0000 0.93300  0.86690  0.91630  Biso   1.000  H
  C36      1.0000 0.14810  0.01020  0.01790  Biso   1.000  C
  H39      1.0000 0.18130  0.98790  0.96580  Biso   1.000  H
  H40      1.0000 0.23390  0.03030  0.05620  Biso   1.000  H
  Co3      1.0000 0.76990  0.51198  0.68265  Biso   1.000  Co
  Co4      1.0000 0.27550  0.52340  0.82856  Biso   1.000  Co
  O9       1.0000 0.62410  0.60300  0.70700  Biso   1.000  O
  O10      1.0000 0.61750  0.41920  0.73740  Biso   1.000  O
  O11      1.0000 0.41590  0.60420  0.76230  Biso   1.000  O
  O12      1.0000 0.41720  0.42730  0.79870  Biso   1.000  O
  O13      1.0000 0.91270  0.41580  0.67150  Biso   1.000  O
  O14      1.0000 0.90780  0.60000  0.78690  Biso   1.000  O
  O15      1.0000 0.12480  0.42270  0.72810  Biso   1.000  O
  O16      1.0000 0.12730  0.61160  0.84020  Biso   1.000  O
  N9       1.0000 0.65780  0.40500  0.57190  Biso   1.000  N
  N10      1.0000 0.47850  0.09560  0.30930  Biso   1.000  N
  N11      1.0000 0.91170  0.63180  0.64270  Biso   1.000  N
  N12      1.0000 0.06540  0.94910  0.54250  Biso   1.000  N
  N13      1.0000 0.41310  0.64590  0.92660  Biso   1.000  N
  N14      1.0000 0.58320  0.97630  0.17010  Biso   1.000  N
  N15      1.0000 0.16580  0.41650  0.88800  Biso   1.000  N
  N16      1.0000 0.97020  0.08310  0.97520  Biso   1.000  N
  C37      1.0000 0.51920  0.56560  0.74310  Biso   1.000  C
  C38      1.0000 0.51770  0.46410  0.76160  Biso   1.000  C
  C39      1.0000 0.02150  0.45990  0.72380  Biso   1.000  C
  C40      1.0000 0.01810  0.56760  0.79080  Biso   1.000  C
  C41      1.0000 0.60140  0.29380  0.55640  Biso   1.000  C
  H41      1.0000 0.61490  0.26640  0.59610  Biso   1.000  H
  C42      1.0000 0.52640  0.21900  0.48750  Biso   1.000  C
  H42      1.0000 0.49110  0.14170  0.47910  Biso   1.000  H
  C43      1.0000 0.50280  0.25860  0.43000  Biso   1.000  C
  C44      1.0000 0.56070  0.36820  0.44330  Biso   1.000  C
  H43      1.0000 0.55060  0.39640  0.40360  Biso   1.000  H
  C45      1.0000 0.63490  0.43980  0.51470  Biso   1.000  C
  H44      1.0000 0.67120  0.51720  0.52350  Biso   1.000  H
  C46      1.0000 0.41130  0.18080  0.35360  Biso   1.000  C
  H45      1.0000 0.40060  0.22530  0.32210  Biso   1.000  H
  H46      1.0000 0.31080  0.14330  0.36370  Biso   1.000  H
  C47      1.0000 0.61380  0.14880  0.28060  Biso   1.000  C
  H47      1.0000 0.58880  0.18530  0.24640  Biso   1.000  H
  H48      1.0000 0.68430  0.20660  0.32460  Biso   1.000  H
  C48      1.0000 0.37590  0.01670  0.24190  Biso   1.000  C
  H49      1.0000 0.28060  0.98190  0.25860  Biso   1.000  H
  H50      1.0000 0.35590  0.05630  0.20870  Biso   1.000  H
  C49      1.0000 0.99210  0.60680  0.58340  Biso   1.000  C
  H51      1.0000 0.99820  0.53330  0.56280  Biso   1.000  H
  C50      1.0000 0.06600  0.68330  0.55150  Biso   1.000  C
  H52      1.0000 0.11890  0.66090  0.50850  Biso   1.000  H
  C51      1.0000 0.06500  0.79170  0.58030  Biso   1.000  C
  C52      1.0000 0.99070  0.81660  0.64510  Biso   1.000  C
  H53      1.0000 0.99290  0.89140  0.67090  Biso   1.000  H
  C53      1.0000 0.91560  0.73760  0.67250  Biso   1.000  C
  H54      1.0000 0.86240  0.75860  0.71550  Biso   1.000  H
  C54      1.0000 0.14780  0.87420  0.54530  Biso   1.000  C
  H55      1.0000 0.16590  0.83400  0.49230  Biso   1.000  H
  H56      1.0000 0.24520  0.91830  0.57610  Biso   1.000  H
  C55      1.0000 0.15690  0.03250  0.51140  Biso   1.000  C
  H57      1.0000 0.25130  0.07540  0.54540  Biso   1.000  H
  H58      1.0000 0.18090  0.99380  0.45950  Biso   1.000  H
  C56      1.0000 0.92410  0.88960  0.49350  Biso   1.000  C
  H59      1.0000 0.94260  0.84780  0.44100  Biso   1.000  H
  H60      1.0000 0.86150  0.83520  0.51470  Biso   1.000  H
  C57      1.0000 0.41730  0.75150  0.94430  Biso   1.000  C
  H61      1.0000 0.36780  0.77120  0.90920  Biso   1.000  H
  C58      1.0000 0.49300  0.83340  0.01310  Biso   1.000  C
  H62      1.0000 0.49280  0.90800  0.02580  Biso   1.000  H
  C59      1.0000 0.56760  0.80520  0.06210  Biso   1.000  C
  C60      1.0000 0.56700  0.69720  0.04120  Biso   1.000  C
  H63      1.0000 0.62100  0.67590  0.07340  Biso   1.000  H
  C61      1.0000 0.48890  0.62130  0.97460  Biso   1.000  C
  H64      1.0000 0.48820  0.54630  0.96130  Biso   1.000  H
  C62      1.0000 0.65390  0.88980  0.13670  Biso   1.000  C
  H65      1.0000 0.75620  0.92470  0.12730  Biso   1.000  H
  H66      1.0000 0.66000  0.85230  0.17380  Biso   1.000  H
  C63      1.0000 0.68370  0.06440  0.23750  Biso   1.000  C
  H67      1.0000 0.77570  0.10150  0.21940  Biso   1.000  H
  H68      1.0000 0.71130  0.02990  0.27250  Biso   1.000  H
  C64      1.0000 0.44220  0.92780  0.19680  Biso   1.000  C
  H69      1.0000 0.37130  0.87370  0.15170  Biso   1.000  H
  H70      1.0000 0.45950  0.88720  0.22990  Biso   1.000  H
  C65      1.0000 0.14270  0.44720  0.96250  Biso   1.000  C
  H71      1.0000 0.18070  0.52410  0.99320  Biso   1.000  H
  C66      1.0000 0.06890  0.37650  0.99730  Biso   1.000  C
  H72      1.0000 0.05490  0.40440  0.05030  Biso   1.000  H
  C67      1.0000 0.01390  0.26310  0.95560  Biso   1.000  C
  C68      1.0000 0.03560  0.22880  0.87810  Biso   1.000  C
  H73      1.0000 0.99900  0.15240  0.84630  Biso   1.000  H
  C69      1.0000 0.11210  0.30840  0.84780  Biso   1.000  C
  H74      1.0000 0.12690  0.28360  0.79480  Biso   1.000  H
  C70      1.0000 0.91860  0.17920  0.98670  Biso   1.000  C
  H75      1.0000 0.81590  0.15270  0.96130  Biso   1.000  H
  H76      1.0000 0.91610  0.21620  0.04270  Biso   1.000  H
  C71      1.0000 0.09610  0.10890  0.03080  Biso   1.000  C
  H77      1.0000 0.17830  0.17110  0.02610  Biso   1.000  H
  H78      1.0000 0.06700  0.13310  0.08370  Biso   1.000  H
  C72      1.0000 0.85190  0.98980  0.98210  Biso   1.000  C
  H79      1.0000 0.81870  0.01210  0.03420  Biso   1.000  H
  H80      1.0000 0.76610  0.96970  0.94380  Biso   1.000  H
