data_UJAQEC_clean
_audit_creation_date              2014-07-02
_audit_creation_method            'Materials Studio'
_symmetry_space_group_name_H-M    'P1'
_symmetry_Int_Tables_number       1
_symmetry_cell_setting            triclinic
loop_
_symmetry_equiv_pos_as_xyz
  x,y,z
_cell_length_a                    10.2067
_cell_length_b                    11.1297
_cell_length_c                    13.9251
_cell_angle_alpha                 112.6630
_cell_angle_beta                  104.5740
_cell_angle_gamma                 94.7960
loop_
_atom_site_label
_atom_site_type_symbol
_atom_site_fract_x
_atom_site_fract_y
_atom_site_fract_z
_atom_site_U_iso_or_equiv
_atom_site_adp_type
_atom_site_occupancy
Co1    Co    0.49430   0.13633   0.49098   0.01267  Uiso   1.00
Co2    Co    0.61382   0.92176   0.30240   0.01267  Uiso   1.00
Co3    Co    0.50570   0.86367   0.50902   0.01267  Uiso   1.00
Co4    Co    0.38618   0.07824   0.69760   0.01267  Uiso   1.00
H1     H     0.07850   0.96670   0.30650   0.01267  Uiso   1.00
H2     H     0.79990   0.69070   0.02570   0.01267  Uiso   1.00
H3     H     0.21060   0.73080   0.05920   0.01267  Uiso   1.00
H4     H     0.14050   0.53000   0.93570   0.01267  Uiso   1.00
H5     H     0.02710   0.45230   0.81690   0.01267  Uiso   1.00
H6     H     0.21110   0.78090   0.77400   0.01267  Uiso   1.00
H7     H     0.41580   0.53260   0.59690   0.01267  Uiso   1.00
H8     H     0.22090   0.42030   0.77850   0.01267  Uiso   1.00
H9     H     0.92150   0.03330   0.69350   0.01267  Uiso   1.00
H10    H     0.20010   0.30930   0.97430   0.01267  Uiso   1.00
H11    H     0.78940   0.26920   0.94080   0.01267  Uiso   1.00
H12    H     0.85950   0.47000   0.06430   0.01267  Uiso   1.00
H13    H     0.97290   0.54770   0.18310   0.01267  Uiso   1.00
H14    H     0.78890   0.21910   0.22600   0.01267  Uiso   1.00
H15    H     0.58420   0.46740   0.40310   0.01267  Uiso   1.00
H16    H     0.77910   0.57970   0.22150   0.01267  Uiso   1.00
C1     C     0.31230   0.93090   0.25780   0.01267  Uiso   1.00
C2     C     0.16550   0.86210   0.19140   0.01267  Uiso   1.00
C3     C     0.05850   0.89840   0.23480   0.01267  Uiso   1.00
C4     C     0.92290   0.83490   0.17360   0.01267  Uiso   1.00
C5     C     0.80730   0.87160   0.22100   0.01267  Uiso   1.00
C6     C     0.89280   0.73290   0.06870   0.01267  Uiso   1.00
C7     C     0.00100   0.69450   0.02860   0.01267  Uiso   1.00
C8     C     0.13770   0.75790   0.08810   0.01267  Uiso   1.00
C9     C     0.06470   0.53970   0.88050   0.01267  Uiso   1.00
C10    C     0.20030   0.60280   0.78280   0.01267  Uiso   1.00
C11    C     0.24050   0.69860   0.75010   0.01267  Uiso   1.00
C12    C     0.32380   0.67500   0.68250   0.01267  Uiso   1.00
C13    C     0.37100   0.78110   0.65060   0.01267  Uiso   1.00
C14    C     0.36270   0.55190   0.64610   0.01267  Uiso   1.00
C15    C     0.32420   0.45760   0.68130   0.01267  Uiso   1.00
C16    C     0.37230   0.32820   0.64680   0.01267  Uiso   1.00
C17    C     0.24450   0.48330   0.75200   0.01267  Uiso   1.00
C18    C     0.68770   0.06910   0.74220   0.01267  Uiso   1.00
C19    C     0.83450   0.13790   0.80860   0.01267  Uiso   1.00
C20    C     0.94150   0.10160   0.76520   0.01267  Uiso   1.00
C21    C     0.07710   0.16510   0.82640   0.01267  Uiso   1.00
C22    C     0.19270   0.12840   0.77900   0.01267  Uiso   1.00
C23    C     0.10720   0.26710   0.93130   0.01267  Uiso   1.00
C24    C     0.99900   0.30550   0.97140   0.01267  Uiso   1.00
C25    C     0.86230   0.24210   0.91190   0.01267  Uiso   1.00
C26    C     0.93530   0.46030   0.11950   0.01267  Uiso   1.00
C27    C     0.79970   0.39720   0.21720   0.01267  Uiso   1.00
C28    C     0.75950   0.30140   0.24990   0.01267  Uiso   1.00
C29    C     0.67620   0.32500   0.31750   0.01267  Uiso   1.00
C30    C     0.62900   0.21890   0.34940   0.01267  Uiso   1.00
C31    C     0.63730   0.44810   0.35390   0.01267  Uiso   1.00
C32    C     0.67580   0.54240   0.31870   0.01267  Uiso   1.00
C33    C     0.62770   0.67180   0.35320   0.01267  Uiso   1.00
C34    C     0.75550   0.51670   0.24800   0.01267  Uiso   1.00
O1     O     0.33050   0.03700   0.34347   0.01267  Uiso   1.00
O2     O     0.40600   0.87880   0.22402   0.01267  Uiso   1.00
O3     O     0.68550   0.84470   0.15888   0.01267  Uiso   1.00
O4     O     0.83670   0.93070   0.32451   0.01267  Uiso   1.00
O5     O     0.95990   0.58730   0.92557   0.01267  Uiso   1.00
O6     O     0.11350   0.63740   0.84726   0.01267  Uiso   1.00
O7     O     0.42130   0.74690   0.57231   0.01267  Uiso   1.00
O8     O     0.35640   0.89640   0.70468   0.01267  Uiso   1.00
O9     O     0.38630   0.28080   0.55116   0.01267  Uiso   1.00
O10    O     0.39450   0.27360   0.71093   0.01267  Uiso   1.00
O11    O     0.60680   0.98950   0.45646   0.01267  Uiso   1.00
O12    O     0.66950   0.96300   0.65653   0.01267  Uiso   1.00
O13    O     0.59400   0.12120   0.77598   0.01267  Uiso   1.00
O14    O     0.31450   0.15530   0.84112   0.01267  Uiso   1.00
O15    O     0.16330   0.06930   0.67549   0.01267  Uiso   1.00
O16    O     0.04010   0.41270   0.07443   0.01267  Uiso   1.00
O17    O     0.88650   0.36260   0.15274   0.01267  Uiso   1.00
O18    O     0.57870   0.25310   0.42769   0.01267  Uiso   1.00
O19    O     0.64360   0.10360   0.29532   0.01267  Uiso   1.00
O20    O     0.61370   0.71920   0.44884   0.01267  Uiso   1.00
O21    O     0.60550   0.72640   0.28907   0.01267  Uiso   1.00
O22    O     0.39320   0.01050   0.54354   0.01267  Uiso   1.00
