data_UJAQAY_clean
_audit_creation_date              2014-07-02
_audit_creation_method            'Materials Studio'
_symmetry_space_group_name_H-M    'P1'
_symmetry_Int_Tables_number       1
_symmetry_cell_setting            triclinic
loop_
_symmetry_equiv_pos_as_xyz
  x,y,z
_cell_length_a                    12.3747
_cell_length_b                    14.1946
_cell_length_c                    15.3176
_cell_angle_alpha                 107.7700
_cell_angle_beta                  113.8250
_cell_angle_gamma                 90.0000
loop_
_atom_site_label
_atom_site_type_symbol
_atom_site_fract_x
_atom_site_fract_y
_atom_site_fract_z
_atom_site_U_iso_or_equiv
_atom_site_adp_type
_atom_site_occupancy
Mn1    Mn    0.98203   0.00360   0.75206   0.01267  Uiso   1.00
Mn2    Mn    0.22997   0.49640   0.24794   0.01267  Uiso   1.00
Mn3    Mn    0.01797   0.99640   0.24794   0.01267  Uiso   1.00
Mn4    Mn    0.77003   0.50360   0.75206   0.01267  Uiso   1.00
Mn5    Mn    0.00000   0.00000   0.50000   0.01267  Uiso   1.00
Mn6    Mn    0.50000   0.50000   0.50000   0.01267  Uiso   1.00
H1     H     0.15270   0.28870   0.90500   0.01267  Uiso   1.00
H2     H     0.37410   0.55830   0.16360   0.01267  Uiso   1.00
H3     H     0.35860   0.52840   0.93040   0.01267  Uiso   1.00
H4     H     0.21870   0.29500   0.66740   0.01267  Uiso   1.00
H5     H     0.46410   0.56890   0.76520   0.01267  Uiso   1.00
H6     H     0.46770   0.56230   0.86880   0.01267  Uiso   1.00
H7     H     0.32390   0.54140   0.61520   0.01267  Uiso   1.00
H8     H     0.15440   0.74650   0.49280   0.01267  Uiso   1.00
H9     H     0.22720   0.77630   0.78320   0.01267  Uiso   1.00
H10    H     0.24770   0.21130   0.09500   0.01267  Uiso   1.00
H11    H     0.21050   0.94170   0.83640   0.01267  Uiso   1.00
H12    H     0.42820   0.97160   0.06960   0.01267  Uiso   1.00
H13    H     0.55130   0.20500   0.33260   0.01267  Uiso   1.00
H14    H     0.69890   0.93110   0.23480   0.01267  Uiso   1.00
H15    H     0.59890   0.93770   0.13120   0.01267  Uiso   1.00
H16    H     0.70870   0.95860   0.38480   0.01267  Uiso   1.00
H17    H     0.66160   0.75350   0.50720   0.01267  Uiso   1.00
H18    H     0.44400   0.72370   0.21680   0.01267  Uiso   1.00
H19    H     0.84730   0.71130   0.09500   0.01267  Uiso   1.00
H20    H     0.62590   0.44170   0.83640   0.01267  Uiso   1.00
H21    H     0.64140   0.47160   0.06960   0.01267  Uiso   1.00
H22    H     0.78130   0.70500   0.33260   0.01267  Uiso   1.00
H23    H     0.53590   0.43110   0.23480   0.01267  Uiso   1.00
H24    H     0.53230   0.43770   0.13120   0.01267  Uiso   1.00
H25    H     0.67610   0.45860   0.38480   0.01267  Uiso   1.00
H26    H     0.84560   0.25350   0.50720   0.01267  Uiso   1.00
H27    H     0.77280   0.22370   0.21680   0.01267  Uiso   1.00
H28    H     0.75230   0.78870   0.90500   0.01267  Uiso   1.00
H29    H     0.78950   0.05830   0.16360   0.01267  Uiso   1.00
H30    H     0.57180   0.02840   0.93040   0.01267  Uiso   1.00
H31    H     0.44870   0.79500   0.66740   0.01267  Uiso   1.00
H32    H     0.30110   0.06890   0.76520   0.01267  Uiso   1.00
H33    H     0.40110   0.06230   0.86880   0.01267  Uiso   1.00
H34    H     0.29130   0.04140   0.61520   0.01267  Uiso   1.00
H35    H     0.33840   0.24650   0.49280   0.01267  Uiso   1.00
H36    H     0.55600   0.27630   0.78320   0.01267  Uiso   1.00
C1     C     0.09959   0.17560   0.71438   0.01267  Uiso   1.00
C2     C     0.17348   0.27690   0.77596   0.01267  Uiso   1.00
C3     C     0.18902   0.32170   0.87624   0.01267  Uiso   1.00
C4     C     0.25809   0.41470   0.93318   0.01267  Uiso   1.00
C5     C     0.27493   0.46280   0.03966   0.01267  Uiso   1.00
C6     C     0.31257   0.46420   0.89154   0.01267  Uiso   1.00
C7     C     0.29828   0.41800   0.79336   0.01267  Uiso   1.00
C8     C     0.22867   0.32530   0.73514   0.01267  Uiso   1.00
C9     C     0.41402   0.55640   0.79824   0.01267  Uiso   1.00
C10    C     0.28539   0.65450   0.71218   0.01267  Uiso   1.00
C11    C     0.28873   0.60120   0.62166   0.01267  Uiso   1.00
C12    C     0.24017   0.63590   0.53994   0.01267  Uiso   1.00
C13    C     0.25166   0.58130   0.44352   0.01267  Uiso   1.00
C14    C     0.18707   0.72290   0.54854   0.01267  Uiso   1.00
C15    C     0.18248   0.77440   0.63976   0.01267  Uiso   1.00
C16    C     0.12640   0.86890   0.64740   0.01267  Uiso   1.00
C17    C     0.23099   0.74080   0.72118   0.01267  Uiso   1.00
C18    C     0.98717   0.86080   0.89534   0.01267  Uiso   1.00
C19    C     0.00640   0.79850   0.95200   0.01267  Uiso   1.00
C20    C     0.38521   0.32440   0.28562   0.01267  Uiso   1.00
C21    C     0.39752   0.22310   0.22404   0.01267  Uiso   1.00
C22    C     0.31278   0.17830   0.12376   0.01267  Uiso   1.00
C23    C     0.32491   0.08530   0.06682   0.01267  Uiso   1.00
C24    C     0.23527   0.03720   0.96034   0.01267  Uiso   1.00
C25    C     0.42103   0.03580   0.10846   0.01267  Uiso   1.00
C26    C     0.50492   0.08200   0.20664   0.01267  Uiso   1.00
C27    C     0.49353   0.17470   0.26486   0.01267  Uiso   1.00
C28    C     0.61578   0.94360   0.20176   0.01267  Uiso   1.00
C29    C     0.57321   0.84550   0.28782   0.01267  Uiso   1.00
C30    C     0.66707   0.89880   0.37834   0.01267  Uiso   1.00
C31    C     0.70023   0.86410   0.46006   0.01267  Uiso   1.00
C32    C     0.80814   0.91870   0.55648   0.01267  Uiso   1.00
C33    C     0.63853   0.77710   0.45146   0.01267  Uiso   1.00
C34    C     0.54272   0.72560   0.36024   0.01267  Uiso   1.00
C35    C     0.47900   0.63110   0.35260   0.01267  Uiso   1.00
C36    C     0.50981   0.75920   0.27882   0.01267  Uiso   1.00
C37    C     0.09183   0.63920   0.10466   0.01267  Uiso   1.00
C38    C     0.05440   0.70150   0.04800   0.01267  Uiso   1.00
C39    C     0.90041   0.82440   0.28562   0.01267  Uiso   1.00
C40    C     0.82652   0.72310   0.22404   0.01267  Uiso   1.00
C41    C     0.81098   0.67830   0.12376   0.01267  Uiso   1.00
C42    C     0.74191   0.58530   0.06682   0.01267  Uiso   1.00
C43    C     0.72507   0.53720   0.96034   0.01267  Uiso   1.00
C44    C     0.68743   0.53580   0.10846   0.01267  Uiso   1.00
C45    C     0.70172   0.58200   0.20664   0.01267  Uiso   1.00
C46    C     0.77133   0.67470   0.26486   0.01267  Uiso   1.00
C47    C     0.58598   0.44360   0.20176   0.01267  Uiso   1.00
C48    C     0.71461   0.34550   0.28782   0.01267  Uiso   1.00
C49    C     0.71127   0.39880   0.37834   0.01267  Uiso   1.00
C50    C     0.75983   0.36410   0.46006   0.01267  Uiso   1.00
C51    C     0.74834   0.41870   0.55648   0.01267  Uiso   1.00
C52    C     0.81293   0.27710   0.45146   0.01267  Uiso   1.00
C53    C     0.81752   0.22560   0.36024   0.01267  Uiso   1.00
C54    C     0.87360   0.13110   0.35260   0.01267  Uiso   1.00
C55    C     0.76901   0.25920   0.27882   0.01267  Uiso   1.00
C56    C     0.01283   0.13920   0.10466   0.01267  Uiso   1.00
C57    C     0.99360   0.20150   0.04800   0.01267  Uiso   1.00
C58    C     0.61479   0.67560   0.71438   0.01267  Uiso   1.00
C59    C     0.60248   0.77690   0.77596   0.01267  Uiso   1.00
C60    C     0.68722   0.82170   0.87624   0.01267  Uiso   1.00
C61    C     0.67509   0.91470   0.93318   0.01267  Uiso   1.00
C62    C     0.76473   0.96280   0.03966   0.01267  Uiso   1.00
C63    C     0.57897   0.96420   0.89154   0.01267  Uiso   1.00
C64    C     0.49508   0.91800   0.79336   0.01267  Uiso   1.00
C65    C     0.50647   0.82530   0.73514   0.01267  Uiso   1.00
C66    C     0.38422   0.05640   0.79824   0.01267  Uiso   1.00
C67    C     0.42679   0.15450   0.71218   0.01267  Uiso   1.00
C68    C     0.33293   0.10120   0.62166   0.01267  Uiso   1.00
C69    C     0.29977   0.13590   0.53994   0.01267  Uiso   1.00
C70    C     0.19186   0.08130   0.44352   0.01267  Uiso   1.00
C71    C     0.36147   0.22290   0.54854   0.01267  Uiso   1.00
C72    C     0.45728   0.27440   0.63976   0.01267  Uiso   1.00
C73    C     0.52100   0.36890   0.64740   0.01267  Uiso   1.00
C74    C     0.49019   0.24080   0.72118   0.01267  Uiso   1.00
C75    C     0.90817   0.36080   0.89534   0.01267  Uiso   1.00
C76    C     0.94560   0.29850   0.95200   0.01267  Uiso   1.00
N1     N     0.94783   0.90210   0.83026   0.01267  Uiso   1.00
N2     N     0.11757   0.59790   0.16974   0.01267  Uiso   1.00
N3     N     0.05217   0.09790   0.16974   0.01267  Uiso   1.00
N4     N     0.88243   0.40210   0.83026   0.01267  Uiso   1.00
O1     O     0.04739   0.14066   0.75658   0.01267  Uiso   1.00
O2     O     0.09425   0.13413   0.62790   0.01267  Uiso   1.00
O3     O     0.35355   0.54341   0.08888   0.01267  Uiso   1.00
O4     O     0.22063   0.43020   0.07726   0.01267  Uiso   1.00
O5     O     0.35127   0.45891   0.74664   0.01267  Uiso   1.00
O6     O     0.33694   0.62914   0.79934   0.01267  Uiso   1.00
O7     O     0.30925   0.50810   0.44108   0.01267  Uiso   1.00
O8     O     0.20448   0.61100   0.36900   0.01267  Uiso   1.00
O9     O     0.11310   0.91197   0.72812   0.01267  Uiso   1.00
O10    O     0.09640   0.90025   0.57500   0.01267  Uiso   1.00
O11    O     0.29081   0.35934   0.24342   0.01267  Uiso   1.00
O12    O     0.46635   0.36587   0.37210   0.01267  Uiso   1.00
O13    O     0.26467   0.95659   0.91112   0.01267  Uiso   1.00
O14    O     0.14337   0.06980   0.92274   0.01267  Uiso   1.00
O15    O     0.60463   0.04109   0.25336   0.01267  Uiso   1.00
O16    O     0.53760   0.87086   0.20066   0.01267  Uiso   1.00
O17    O     0.86817   0.99190   0.55892   0.01267  Uiso   1.00
O18    O     0.83548   0.88900   0.63100   0.01267  Uiso   1.00
O19    O     0.38498   0.58803   0.27188   0.01267  Uiso   1.00
O20    O     0.52140   0.59975   0.42500   0.01267  Uiso   1.00
O21    O     0.95261   0.85934   0.24342   0.01267  Uiso   1.00
O22    O     0.90575   0.86587   0.37210   0.01267  Uiso   1.00
O23    O     0.64645   0.45659   0.91112   0.01267  Uiso   1.00
O24    O     0.77937   0.56980   0.92274   0.01267  Uiso   1.00
O25    O     0.64873   0.54109   0.25336   0.01267  Uiso   1.00
O26    O     0.66306   0.37086   0.20066   0.01267  Uiso   1.00
O27    O     0.69075   0.49190   0.55892   0.01267  Uiso   1.00
O28    O     0.79552   0.38900   0.63100   0.01267  Uiso   1.00
O29    O     0.88690   0.08803   0.27188   0.01267  Uiso   1.00
O30    O     0.90360   0.09975   0.42500   0.01267  Uiso   1.00
O31    O     0.70919   0.64066   0.75658   0.01267  Uiso   1.00
O32    O     0.53365   0.63413   0.62790   0.01267  Uiso   1.00
O33    O     0.73533   0.04341   0.08888   0.01267  Uiso   1.00
O34    O     0.85663   0.93020   0.07726   0.01267  Uiso   1.00
O35    O     0.39537   0.95891   0.74664   0.01267  Uiso   1.00
O36    O     0.46240   0.12914   0.79934   0.01267  Uiso   1.00
O37    O     0.13183   0.00810   0.44108   0.01267  Uiso   1.00
O38    O     0.16452   0.11100   0.36900   0.01267  Uiso   1.00
O39    O     0.61502   0.41197   0.72812   0.01267  Uiso   1.00
O40    O     0.47860   0.40025   0.57500   0.01267  Uiso   1.00
