data_UJEDIX_clean
_audit_creation_date              2014-07-02
_audit_creation_method            'Materials Studio'
_symmetry_space_group_name_H-M    'P1'
_symmetry_Int_Tables_number       1
_symmetry_cell_setting            triclinic
loop_
_symmetry_equiv_pos_as_xyz
  x,y,z
_cell_length_a                    13.5451
_cell_length_b                    13.5451
_cell_length_c                    23.0394
_cell_angle_alpha                 90.0000
_cell_angle_beta                  90.0000
_cell_angle_gamma                 120.0000
loop_
_atom_site_label
_atom_site_type_symbol
_atom_site_fract_x
_atom_site_fract_y
_atom_site_fract_z
_atom_site_U_iso_or_equiv
_atom_site_adp_type
_atom_site_occupancy
Yb1    Yb    0.60258   0.00000   0.00000   0.01267  Uiso   1.00
Yb2    Yb    0.39742   0.39742   0.66667   0.01267  Uiso   1.00
Yb3    Yb    0.00000   0.60258   0.33333   0.01267  Uiso   1.00
Co1    Co    0.23185   0.90074   0.79304   0.01267  Uiso   1.00
Co2    Co    0.66889   0.76815   0.45971   0.01267  Uiso   1.00
Co3    Co    0.09926   0.33111   0.12637   0.01267  Uiso   1.00
Co4    Co    0.33111   0.09926   0.20696   0.01267  Uiso   1.00
Co5    Co    0.90074   0.23185   0.54029   0.01267  Uiso   1.00
Co6    Co    0.76815   0.66889   0.87363   0.01267  Uiso   1.00
Co7    Co    0.00000   0.79653   0.83333   0.01267  Uiso   1.00
Co8    Co    0.79653   0.00000   0.50000   0.01267  Uiso   1.00
Co9    Co    0.20347   0.20347   0.16667   0.01267  Uiso   1.00
H1     H     0.38260   0.93990   0.86310   0.01267  Uiso   1.00
H2     H     0.42830   0.03560   0.82110   0.01267  Uiso   1.00
H3     H     0.31680   0.08860   0.74930   0.01267  Uiso   1.00
H4     H     0.36170   0.02330   0.71840   0.01267  Uiso   1.00
H5     H     0.26150   0.78220   0.72020   0.01267  Uiso   1.00
H6     H     0.37040   0.84890   0.75260   0.01267  Uiso   1.00
H7     H     0.21890   0.06200   0.93330   0.01267  Uiso   1.00
H8     H     0.20580   0.93740   0.92920   0.01267  Uiso   1.00
H9     H     0.37620   0.13820   0.86970   0.01267  Uiso   1.00
H10    H     0.04430   0.92660   0.67090   0.01267  Uiso   1.00
H11    H     0.08670   0.99700   0.73060   0.01267  Uiso   1.00
H12    H     0.22600   0.95000   0.65440   0.01267  Uiso   1.00
H13    H     0.12260   0.58220   0.83780   0.01267  Uiso   1.00
H14    H     0.08910   0.62820   0.78100   0.01267  Uiso   1.00
H15    H     0.31620   0.72920   0.82690   0.01267  Uiso   1.00
H16    H     0.55730   0.61740   0.52977   0.01267  Uiso   1.00
H17    H     0.60730   0.57170   0.48777   0.01267  Uiso   1.00
H18    H     0.77180   0.68320   0.41597   0.01267  Uiso   1.00
H19    H     0.66160   0.63830   0.38507   0.01267  Uiso   1.00
H20    H     0.52070   0.73850   0.38687   0.01267  Uiso   1.00
H21    H     0.47850   0.62960   0.41927   0.01267  Uiso   1.00
H22    H     0.84310   0.78110   0.59997   0.01267  Uiso   1.00
H23    H     0.73160   0.79420   0.59587   0.01267  Uiso   1.00
H24    H     0.76200   0.62380   0.53637   0.01267  Uiso   1.00
H25    H     0.88230   0.95570   0.33757   0.01267  Uiso   1.00
H26    H     0.91030   0.91330   0.39727   0.01267  Uiso   1.00
H27    H     0.72400   0.77400   0.32107   0.01267  Uiso   1.00
H28    H     0.45960   0.87740   0.50447   0.01267  Uiso   1.00
H29    H     0.53910   0.91090   0.44767   0.01267  Uiso   1.00
H30    H     0.41300   0.68380   0.49357   0.01267  Uiso   1.00
H31    H     0.06010   0.44270   0.19643   0.01267  Uiso   1.00
H32    H     0.96440   0.39270   0.15443   0.01267  Uiso   1.00
H33    H     0.91140   0.22820   0.08263   0.01267  Uiso   1.00
H34    H     0.97670   0.33840   0.05173   0.01267  Uiso   1.00
H35    H     0.21780   0.47930   0.05353   0.01267  Uiso   1.00
H36    H     0.15110   0.52150   0.08593   0.01267  Uiso   1.00
H37    H     0.93800   0.15690   0.26663   0.01267  Uiso   1.00
H38    H     0.06260   0.26840   0.26253   0.01267  Uiso   1.00
H39    H     0.86180   0.23800   0.20303   0.01267  Uiso   1.00
H40    H     0.07340   0.11770   0.00423   0.01267  Uiso   1.00
H41    H     0.00300   0.08970   0.06393   0.01267  Uiso   1.00
H42    H     0.05000   0.27600   0.98773   0.01267  Uiso   1.00
H43    H     0.41780   0.54040   0.17113   0.01267  Uiso   1.00
H44    H     0.37180   0.46090   0.11433   0.01267  Uiso   1.00
H45    H     0.27080   0.58700   0.16023   0.01267  Uiso   1.00
H46    H     0.44270   0.06010   0.13690   0.01267  Uiso   1.00
H47    H     0.39270   0.96440   0.17890   0.01267  Uiso   1.00
H48    H     0.22820   0.91140   0.25070   0.01267  Uiso   1.00
H49    H     0.33840   0.97670   0.28160   0.01267  Uiso   1.00
H50    H     0.47930   0.21780   0.27980   0.01267  Uiso   1.00
H51    H     0.52150   0.15110   0.24740   0.01267  Uiso   1.00
H52    H     0.15690   0.93800   0.06670   0.01267  Uiso   1.00
H53    H     0.26840   0.06260   0.07080   0.01267  Uiso   1.00
H54    H     0.23800   0.86180   0.13030   0.01267  Uiso   1.00
H55    H     0.11770   0.07340   0.32910   0.01267  Uiso   1.00
H56    H     0.08970   0.00300   0.26940   0.01267  Uiso   1.00
H57    H     0.27600   0.05000   0.34560   0.01267  Uiso   1.00
H58    H     0.54040   0.41780   0.16220   0.01267  Uiso   1.00
H59    H     0.46090   0.37180   0.21900   0.01267  Uiso   1.00
H60    H     0.58700   0.27080   0.17310   0.01267  Uiso   1.00
H61    H     0.93990   0.38260   0.47023   0.01267  Uiso   1.00
H62    H     0.03560   0.42830   0.51223   0.01267  Uiso   1.00
H63    H     0.08860   0.31680   0.58403   0.01267  Uiso   1.00
H64    H     0.02330   0.36170   0.61493   0.01267  Uiso   1.00
H65    H     0.78220   0.26150   0.61313   0.01267  Uiso   1.00
H66    H     0.84890   0.37040   0.58073   0.01267  Uiso   1.00
H67    H     0.06200   0.21890   0.40003   0.01267  Uiso   1.00
H68    H     0.93740   0.20580   0.40413   0.01267  Uiso   1.00
H69    H     0.13820   0.37620   0.46363   0.01267  Uiso   1.00
H70    H     0.92660   0.04430   0.66243   0.01267  Uiso   1.00
H71    H     0.99700   0.08670   0.60273   0.01267  Uiso   1.00
H72    H     0.95000   0.22600   0.67893   0.01267  Uiso   1.00
H73    H     0.58220   0.12260   0.49553   0.01267  Uiso   1.00
H74    H     0.62820   0.08910   0.55233   0.01267  Uiso   1.00
H75    H     0.72920   0.31620   0.50643   0.01267  Uiso   1.00
H76    H     0.61740   0.55730   0.80357   0.01267  Uiso   1.00
H77    H     0.57170   0.60730   0.84557   0.01267  Uiso   1.00
H78    H     0.68320   0.77180   0.91737   0.01267  Uiso   1.00
H79    H     0.63830   0.66160   0.94827   0.01267  Uiso   1.00
H80    H     0.73850   0.52070   0.94647   0.01267  Uiso   1.00
H81    H     0.62960   0.47850   0.91407   0.01267  Uiso   1.00
H82    H     0.78110   0.84310   0.73337   0.01267  Uiso   1.00
H83    H     0.79420   0.73160   0.73747   0.01267  Uiso   1.00
H84    H     0.62380   0.76200   0.79697   0.01267  Uiso   1.00
H85    H     0.95570   0.88230   0.99577   0.01267  Uiso   1.00
H86    H     0.91330   0.91030   0.93607   0.01267  Uiso   1.00
H87    H     0.77400   0.72400   0.01227   0.01267  Uiso   1.00
H88    H     0.87740   0.45960   0.82887   0.01267  Uiso   1.00
H89    H     0.91090   0.53910   0.88567   0.01267  Uiso   1.00
H90    H     0.68380   0.41300   0.83977   0.01267  Uiso   1.00
C1     C     0.22910   0.00900   0.90770   0.01267  Uiso   1.00
C2     C     0.35360   0.06290   0.88800   0.01267  Uiso   1.00
C3     C     0.43230   0.08370   0.94080   0.01267  Uiso   1.00
C4     C     0.09720   0.94550   0.70400   0.01267  Uiso   1.00
C5     C     0.21950   0.00230   0.68280   0.01267  Uiso   1.00
C6     C     0.25330   0.11420   0.65200   0.01267  Uiso   1.00
C7     C     0.14300   0.65050   0.81390   0.01267  Uiso   1.00
C8     C     0.26470   0.70350   0.79240   0.01267  Uiso   1.00
C9     C     0.27980   0.61180   0.76040   0.01267  Uiso   1.00
C10    C     0.77990   0.77090   0.57437   0.01267  Uiso   1.00
C11    C     0.70930   0.64640   0.55467   0.01267  Uiso   1.00
C12    C     0.65140   0.56770   0.60747   0.01267  Uiso   1.00
C13    C     0.84830   0.90280   0.37067   0.01267  Uiso   1.00
C14    C     0.78280   0.78050   0.34947   0.01267  Uiso   1.00
C15    C     0.86090   0.74670   0.31867   0.01267  Uiso   1.00
C16    C     0.50750   0.85700   0.48057   0.01267  Uiso   1.00
C17    C     0.43880   0.73530   0.45907   0.01267  Uiso   1.00
C18    C     0.33200   0.72020   0.42707   0.01267  Uiso   1.00
C19    C     0.99100   0.22010   0.24103   0.01267  Uiso   1.00
C20    C     0.93710   0.29070   0.22133   0.01267  Uiso   1.00
C21    C     0.91630   0.34860   0.27413   0.01267  Uiso   1.00
C22    C     0.05450   0.15170   0.03733   0.01267  Uiso   1.00
C23    C     0.99770   0.21720   0.01613   0.01267  Uiso   1.00
C24    C     0.88580   0.13910   0.98533   0.01267  Uiso   1.00
C25    C     0.34950   0.49250   0.14723   0.01267  Uiso   1.00
C26    C     0.29650   0.56120   0.12573   0.01267  Uiso   1.00
C27    C     0.38820   0.66800   0.09373   0.01267  Uiso   1.00
C28    C     0.22010   0.99100   0.09230   0.01267  Uiso   1.00
C29    C     0.29070   0.93710   0.11200   0.01267  Uiso   1.00
C30    C     0.34860   0.91630   0.05920   0.01267  Uiso   1.00
C31    C     0.15170   0.05450   0.29600   0.01267  Uiso   1.00
C32    C     0.21720   0.99770   0.31720   0.01267  Uiso   1.00
C33    C     0.13910   0.88580   0.34800   0.01267  Uiso   1.00
C34    C     0.49250   0.34950   0.18610   0.01267  Uiso   1.00
C35    C     0.56120   0.29650   0.20760   0.01267  Uiso   1.00
C36    C     0.66800   0.38820   0.23960   0.01267  Uiso   1.00
C37    C     0.00900   0.22910   0.42563   0.01267  Uiso   1.00
C38    C     0.06290   0.35360   0.44533   0.01267  Uiso   1.00
C39    C     0.08370   0.43230   0.39253   0.01267  Uiso   1.00
C40    C     0.94550   0.09720   0.62933   0.01267  Uiso   1.00
C41    C     0.00230   0.21950   0.65053   0.01267  Uiso   1.00
C42    C     0.11420   0.25330   0.68133   0.01267  Uiso   1.00
C43    C     0.65050   0.14300   0.51943   0.01267  Uiso   1.00
C44    C     0.70350   0.26470   0.54093   0.01267  Uiso   1.00
C45    C     0.61180   0.27980   0.57293   0.01267  Uiso   1.00
C46    C     0.77090   0.77990   0.75897   0.01267  Uiso   1.00
C47    C     0.64640   0.70930   0.77867   0.01267  Uiso   1.00
C48    C     0.56770   0.65140   0.72587   0.01267  Uiso   1.00
C49    C     0.90280   0.84830   0.96267   0.01267  Uiso   1.00
C50    C     0.78050   0.78280   0.98387   0.01267  Uiso   1.00
C51    C     0.74670   0.86090   0.01467   0.01267  Uiso   1.00
C52    C     0.85700   0.50750   0.85277   0.01267  Uiso   1.00
C53    C     0.73530   0.43880   0.87427   0.01267  Uiso   1.00
C54    C     0.72020   0.33200   0.90627   0.01267  Uiso   1.00
S1     S     0.14424   0.98019   0.84142   0.01267  Uiso   1.00
S2     S     0.06954   0.81599   0.74207   0.01267  Uiso   1.00
S3     S     0.13988   0.76040   0.85688   0.01267  Uiso   1.00
S4     S     0.83595   0.85576   0.50809   0.01267  Uiso   1.00
S5     S     0.74645   0.93046   0.40874   0.01267  Uiso   1.00
S6     S     0.62052   0.86012   0.52355   0.01267  Uiso   1.00
S7     S     0.01981   0.16405   0.17475   0.01267  Uiso   1.00
S8     S     0.18401   0.25355   0.07540   0.01267  Uiso   1.00
S9     S     0.23960   0.37948   0.19021   0.01267  Uiso   1.00
S10    S     0.16405   0.01981   0.15858   0.01267  Uiso   1.00
S11    S     0.25355   0.18401   0.25793   0.01267  Uiso   1.00
S12    S     0.37948   0.23960   0.14312   0.01267  Uiso   1.00
S13    S     0.98019   0.14424   0.49191   0.01267  Uiso   1.00
S14    S     0.81599   0.06954   0.59126   0.01267  Uiso   1.00
S15    S     0.76040   0.13988   0.47645   0.01267  Uiso   1.00
S16    S     0.85576   0.83595   0.82525   0.01267  Uiso   1.00
S17    S     0.93046   0.74645   0.92460   0.01267  Uiso   1.00
S18    S     0.86012   0.62052   0.80979   0.01267  Uiso   1.00
N1     N     0.36660   0.99000   0.84410   0.01267  Uiso   1.00
N2     N     0.29630   0.01940   0.73250   0.01267  Uiso   1.00
N3     N     0.29250   0.80520   0.75660   0.01267  Uiso   1.00
N4     N     0.62340   0.63340   0.51077   0.01267  Uiso   1.00
N5     N     0.72310   0.70370   0.39917   0.01267  Uiso   1.00
N6     N     0.51270   0.70750   0.42327   0.01267  Uiso   1.00
N7     N     0.01000   0.37660   0.17743   0.01267  Uiso   1.00
N8     N     0.98060   0.27690   0.06583   0.01267  Uiso   1.00
N9     N     0.19480   0.48730   0.08993   0.01267  Uiso   1.00
N10    N     0.37660   0.01000   0.15590   0.01267  Uiso   1.00
N11    N     0.27690   0.98060   0.26750   0.01267  Uiso   1.00
N12    N     0.48730   0.19480   0.24340   0.01267  Uiso   1.00
N13    N     0.99000   0.36660   0.48923   0.01267  Uiso   1.00
N14    N     0.01940   0.29630   0.60083   0.01267  Uiso   1.00
N15    N     0.80520   0.29250   0.57673   0.01267  Uiso   1.00
N16    N     0.63340   0.62340   0.82257   0.01267  Uiso   1.00
N17    N     0.70370   0.72310   0.93417   0.01267  Uiso   1.00
N18    N     0.70750   0.51270   0.91007   0.01267  Uiso   1.00
O1     O     0.48350   0.02890   0.94098   0.01267  Uiso   1.00
O2     O     0.43590   0.15070   0.97915   0.01267  Uiso   1.00
O3     O     0.32260   0.20330   0.67883   0.01267  Uiso   1.00
O4     O     0.21170   0.11050   0.60308   0.01267  Uiso   1.00
O5     O     0.32310   0.56340   0.78830   0.01267  Uiso   1.00
O6     O     0.24180   0.58900   0.70960   0.01267  Uiso   1.00
O7     O     0.54540   0.51650   0.60765   0.01267  Uiso   1.00
O8     O     0.71480   0.56410   0.64582   0.01267  Uiso   1.00
O9     O     0.88070   0.67740   0.34550   0.01267  Uiso   1.00
O10    O     0.89880   0.78830   0.26975   0.01267  Uiso   1.00
O11    O     0.24030   0.67690   0.45497   0.01267  Uiso   1.00
O12    O     0.34720   0.75820   0.37627   0.01267  Uiso   1.00
O13    O     0.97110   0.45460   0.27431   0.01267  Uiso   1.00
O14    O     0.84930   0.28520   0.31248   0.01267  Uiso   1.00
O15    O     0.79670   0.11930   0.01216   0.01267  Uiso   1.00
O16    O     0.88950   0.10120   0.93641   0.01267  Uiso   1.00
O17    O     0.43660   0.75970   0.12163   0.01267  Uiso   1.00
O18    O     0.41100   0.65280   0.04293   0.01267  Uiso   1.00
O19    O     0.45460   0.97110   0.05902   0.01267  Uiso   1.00
O20    O     0.28520   0.84930   0.02085   0.01267  Uiso   1.00
O21    O     0.11930   0.79670   0.32117   0.01267  Uiso   1.00
O22    O     0.10120   0.88950   0.39692   0.01267  Uiso   1.00
O23    O     0.75970   0.43660   0.21170   0.01267  Uiso   1.00
O24    O     0.65280   0.41100   0.29040   0.01267  Uiso   1.00
O25    O     0.02890   0.48350   0.39235   0.01267  Uiso   1.00
O26    O     0.15070   0.43590   0.35418   0.01267  Uiso   1.00
O27    O     0.20330   0.32260   0.65450   0.01267  Uiso   1.00
O28    O     0.11050   0.21170   0.73025   0.01267  Uiso   1.00
O29    O     0.56340   0.32310   0.54503   0.01267  Uiso   1.00
O30    O     0.58900   0.24180   0.62373   0.01267  Uiso   1.00
O31    O     0.51650   0.54540   0.72569   0.01267  Uiso   1.00
O32    O     0.56410   0.71480   0.68752   0.01267  Uiso   1.00
O33    O     0.67740   0.88070   0.98784   0.01267  Uiso   1.00
O34    O     0.78830   0.89880   0.06359   0.01267  Uiso   1.00
O35    O     0.67690   0.24030   0.87837   0.01267  Uiso   1.00
O36    O     0.75820   0.34720   0.95707   0.01267  Uiso   1.00
