data_UJEFOE01_clean
_audit_creation_date              2014-07-02
_audit_creation_method            'Materials Studio'
_symmetry_space_group_name_H-M    'P1'
_symmetry_Int_Tables_number       1
_symmetry_cell_setting            triclinic
loop_
_symmetry_equiv_pos_as_xyz
  x,y,z
_cell_length_a                    8.3440
_cell_length_b                    12.3194
_cell_length_c                    17.5580
_cell_angle_alpha                 98.0583
_cell_angle_beta                  90.0000
_cell_angle_gamma                 109.7950
loop_
_atom_site_label
_atom_site_type_symbol
_atom_site_fract_x
_atom_site_fract_y
_atom_site_fract_z
_atom_site_U_iso_or_equiv
_atom_site_adp_type
_atom_site_occupancy
Yb1    Yb    0.81773  -0.00000   0.75000   0.01267  Uiso   1.00
Yb2    Yb    0.18227   0.00000   0.25000   0.01267  Uiso   1.00
Yb3    Yb    0.00000   0.00000   0.00000   0.01267  Uiso   1.00
Yb4    Yb    0.00000   0.00000   0.50000   0.01267  Uiso   1.00
H1     H     0.74480   0.62180   0.93630   0.01267  Uiso   1.00
H2     H     0.50730   0.69140   0.76140   0.01267  Uiso   1.00
H3     H     0.32750   0.50120   0.73760   0.01267  Uiso   1.00
H4     H     0.64330   0.42000   0.97300   0.01267  Uiso   1.00
H5     H     0.44810   0.23820   0.95670   0.01267  Uiso   1.00
H6     H     0.22920   0.30320   0.77400   0.01267  Uiso   1.00
H7     H     0.97640   0.35780   0.87120   0.01267  Uiso   1.00
H8     H     0.80010   0.24400   0.06970   0.01267  Uiso   1.00
H9     H     0.88250   0.43020   0.13100   0.01267  Uiso   1.00
H10    H     0.12300   0.37820   0.56370   0.01267  Uiso   1.00
H11    H     0.81590   0.30860   0.73860   0.01267  Uiso   1.00
H12    H     0.82630   0.49880   0.76240   0.01267  Uiso   1.00
H13    H     0.22330   0.58000   0.52700   0.01267  Uiso   1.00
H14    H     0.20990   0.76180   0.54330   0.01267  Uiso   1.00
H15    H     0.92600   0.69680   0.72600   0.01267  Uiso   1.00
H16    H     0.61860   0.64220   0.62880   0.01267  Uiso   1.00
H17    H     0.55610   0.75600   0.43030   0.01267  Uiso   1.00
H18    H     0.45230   0.56980   0.36900   0.01267  Uiso   1.00
H19    H     0.25520   0.37820   0.06370   0.01267  Uiso   1.00
H20    H     0.49270   0.30860   0.23860   0.01267  Uiso   1.00
H21    H     0.67250   0.49880   0.26240   0.01267  Uiso   1.00
H22    H     0.35670   0.58000   0.02700   0.01267  Uiso   1.00
H23    H     0.55190   0.76180   0.04330   0.01267  Uiso   1.00
H24    H     0.77080   0.69680   0.22600   0.01267  Uiso   1.00
H25    H     0.02360   0.64220   0.12880   0.01267  Uiso   1.00
H26    H     0.19990   0.75600   0.93030   0.01267  Uiso   1.00
H27    H     0.11750   0.56980   0.86900   0.01267  Uiso   1.00
H28    H     0.87700   0.62180   0.43630   0.01267  Uiso   1.00
H29    H     0.18410   0.69140   0.26140   0.01267  Uiso   1.00
H30    H     0.17370   0.50120   0.23760   0.01267  Uiso   1.00
H31    H     0.77670   0.42000   0.47300   0.01267  Uiso   1.00
H32    H     0.79010   0.23820   0.45670   0.01267  Uiso   1.00
H33    H     0.07400   0.30320   0.27400   0.01267  Uiso   1.00
H34    H     0.38140   0.35780   0.37120   0.01267  Uiso   1.00
H35    H     0.44390   0.24400   0.56970   0.01267  Uiso   1.00
H36    H     0.54770   0.43020   0.63100   0.01267  Uiso   1.00
C1     C     0.65890   0.59680   0.89750   0.01267  Uiso   1.00
C2     C     0.64230   0.67360   0.85250   0.01267  Uiso   1.00
C3     C     0.51700   0.63780   0.79210   0.01267  Uiso   1.00
C4     C     0.40920   0.52440   0.77810   0.01267  Uiso   1.00
C5     C     0.42050   0.44300   0.82430   0.01267  Uiso   1.00
C6     C     0.54830   0.47960   0.88650   0.01267  Uiso   1.00
C7     C     0.55780   0.39820   0.93420   0.01267  Uiso   1.00
C8     C     0.44390   0.28980   0.92350   0.01267  Uiso   1.00
C9     C     0.31730   0.25240   0.86250   0.01267  Uiso   1.00
C10    C     0.31070   0.32880   0.81470   0.01267  Uiso   1.00
C11    C     0.75340   0.79920   0.86880   0.01267  Uiso   1.00
C12    C     0.18140   0.13480   0.85630   0.01267  Uiso   1.00
C13    C     0.95950   0.37340   0.92330   0.01267  Uiso   1.00
C14    C     0.88210   0.28340   0.96230   0.01267  Uiso   1.00
C15    C     0.85300   0.30560   0.04290   0.01267  Uiso   1.00
C16    C     0.90280   0.41600   0.07910   0.01267  Uiso   1.00
C17    C     0.01440   0.48900   0.96000   0.01267  Uiso   1.00
C18    C     0.83270   0.15700   0.92220   0.01267  Uiso   1.00
C19    C     0.06210   0.40320   0.60250   0.01267  Uiso   1.00
C20    C     0.96870   0.32640   0.64750   0.01267  Uiso   1.00
C21    C     0.87920   0.36220   0.70790   0.01267  Uiso   1.00
C22    C     0.88480   0.47560   0.72190   0.01267  Uiso   1.00
C23    C     0.97750   0.55700   0.67570   0.01267  Uiso   1.00
C24    C     0.06870   0.52040   0.61350   0.01267  Uiso   1.00
C25    C     0.15960   0.60180   0.56580   0.01267  Uiso   1.00
C26    C     0.15410   0.71020   0.57650   0.01267  Uiso   1.00
C27    C     0.06490   0.74760   0.63750   0.01267  Uiso   1.00
C28    C     0.98190   0.67120   0.68530   0.01267  Uiso   1.00
C29    C     0.95420   0.20080   0.63120   0.01267  Uiso   1.00
C30    C     0.04660   0.86520   0.64370   0.01267  Uiso   1.00
C31    C     0.58610   0.62660   0.57670   0.01267  Uiso   1.00
C32    C     0.59870   0.71660   0.53770   0.01267  Uiso   1.00
C33    C     0.54740   0.69440   0.45710   0.01267  Uiso   1.00
C34    C     0.48680   0.58400   0.42090   0.01267  Uiso   1.00
C35    C     0.52540   0.51100   0.54000   0.01267  Uiso   1.00
C36    C     0.67570   0.84300   0.57780   0.01267  Uiso   1.00
C37    C     0.34110   0.40320   0.10250   0.01267  Uiso   1.00
C38    C     0.35770   0.32640   0.14750   0.01267  Uiso   1.00
C39    C     0.48300   0.36220   0.20790   0.01267  Uiso   1.00
C40    C     0.59080   0.47560   0.22190   0.01267  Uiso   1.00
C41    C     0.57950   0.55700   0.17570   0.01267  Uiso   1.00
C42    C     0.45170   0.52040   0.11350   0.01267  Uiso   1.00
C43    C     0.44220   0.60180   0.06580   0.01267  Uiso   1.00
C44    C     0.55610   0.71020   0.07650   0.01267  Uiso   1.00
C45    C     0.68270   0.74760   0.13750   0.01267  Uiso   1.00
C46    C     0.68930   0.67120   0.18530   0.01267  Uiso   1.00
C47    C     0.24660   0.20080   0.13120   0.01267  Uiso   1.00
C48    C     0.81860   0.86520   0.14370   0.01267  Uiso   1.00
C49    C     0.04050   0.62660   0.07670   0.01267  Uiso   1.00
C50    C     0.11790   0.71660   0.03770   0.01267  Uiso   1.00
C51    C     0.14700   0.69440   0.95710   0.01267  Uiso   1.00
C52    C     0.09720   0.58400   0.92090   0.01267  Uiso   1.00
C53    C     0.98560   0.51100   0.04000   0.01267  Uiso   1.00
C54    C     0.16730   0.84300   0.07780   0.01267  Uiso   1.00
C55    C     0.93790   0.59680   0.39750   0.01267  Uiso   1.00
C56    C     0.03130   0.67360   0.35250   0.01267  Uiso   1.00
C57    C     0.12080   0.63780   0.29210   0.01267  Uiso   1.00
C58    C     0.11520   0.52440   0.27810   0.01267  Uiso   1.00
C59    C     0.02250   0.44300   0.32430   0.01267  Uiso   1.00
C60    C     0.93130   0.47960   0.38650   0.01267  Uiso   1.00
C61    C     0.84040   0.39820   0.43420   0.01267  Uiso   1.00
C62    C     0.84590   0.28980   0.42350   0.01267  Uiso   1.00
C63    C     0.93510   0.25240   0.36250   0.01267  Uiso   1.00
C64    C     0.01810   0.32880   0.31470   0.01267  Uiso   1.00
C65    C     0.04580   0.79920   0.36880   0.01267  Uiso   1.00
C66    C     0.95340   0.13480   0.35630   0.01267  Uiso   1.00
C67    C     0.41390   0.37340   0.42330   0.01267  Uiso   1.00
C68    C     0.40130   0.28340   0.46230   0.01267  Uiso   1.00
C69    C     0.45260   0.30560   0.54290   0.01267  Uiso   1.00
C70    C     0.51320   0.41600   0.57910   0.01267  Uiso   1.00
C71    C     0.47460   0.48900   0.46000   0.01267  Uiso   1.00
C72    C     0.32430   0.15700   0.42220   0.01267  Uiso   1.00
O1     O     0.74110   0.86640   0.82420   0.01267  Uiso   1.00
O2     O     0.85820   0.83180   0.92600   0.01267  Uiso   1.00
O3     O     0.08540   0.10060   0.79720   0.01267  Uiso   1.00
O4     O     0.16950   0.07540   0.91030   0.01267  Uiso   1.00
O5     O     0.80940   0.13960   0.85150   0.01267  Uiso   1.00
O6     O     0.81930   0.08000   0.96570   0.01267  Uiso   1.00
O7     O     0.87470   0.13360   0.67580   0.01267  Uiso   1.00
O8     O     0.02640   0.16820   0.57400   0.01267  Uiso   1.00
O9     O     0.98480   0.89940   0.70280   0.01267  Uiso   1.00
O10    O     0.09410   0.92460   0.58970   0.01267  Uiso   1.00
O11    O     0.66980   0.86040   0.64850   0.01267  Uiso   1.00
O12    O     0.73930   0.92000   0.53430   0.01267  Uiso   1.00
O13    O     0.25890   0.13360   0.17580   0.01267  Uiso   1.00
O14    O     0.14180   0.16820   0.07400   0.01267  Uiso   1.00
O15    O     0.91460   0.89940   0.20280   0.01267  Uiso   1.00
O16    O     0.83050   0.92460   0.08970   0.01267  Uiso   1.00
O17    O     0.19060   0.86040   0.14850   0.01267  Uiso   1.00
O18    O     0.18070   0.92000   0.03430   0.01267  Uiso   1.00
O19    O     0.12530   0.86640   0.32420   0.01267  Uiso   1.00
O20    O     0.97360   0.83180   0.42600   0.01267  Uiso   1.00
O21    O     0.01520   0.10060   0.29720   0.01267  Uiso   1.00
O22    O     0.90590   0.07540   0.41030   0.01267  Uiso   1.00
O23    O     0.33020   0.13960   0.35150   0.01267  Uiso   1.00
O24    O     0.26070   0.08000   0.46570   0.01267  Uiso   1.00
