data_image0
_cell_length_a       44.482
_cell_length_b       44.482
_cell_length_c       21.283
_cell_angle_alpha    90
_cell_angle_beta     90
_cell_angle_gamma    120

_symmetry_space_group_name_H-M    "P 1"
_symmetry_int_tables_number       1

loop_
  _symmetry_equiv_pos_as_xyz
  'x, y, z'

loop_
  _atom_site_label
  _atom_site_occupancy
  _atom_site_fract_x
  _atom_site_fract_y
  _atom_site_fract_z
  _atom_site_thermal_displace_type
  _atom_site_B_iso_or_equiv
  _atom_site_type_symbol
  Cu1      1.0000 0.74058  0.27966  0.41705  Biso   1.000  Cu
  Cu2      1.0000 0.82707  0.24940  0.49119  Biso   1.000  Cu
  Cu3      1.0000 0.80143  0.16325  0.64875  Biso   1.000  Cu
  Cu4      1.0000 0.70941  0.04962  0.58363  Biso   1.000  Cu
  Cu5      1.0000 0.64322  0.02618  0.38581  Biso   1.000  Cu
  Cu6      1.0000 0.58364  0.08908  0.32132  Biso   1.000  Cu
  Cu7      1.0000 0.61310  0.20552  0.39355  Biso   1.000  Cu
  Cu8      1.0000 0.95062  0.31021  0.42489  Biso   1.000  Cu
  Cu9      1.0000 0.05021  0.34184  0.55979  Biso   1.000  Cu
  Cu10     1.0000 0.49493  0.02340  0.15830  Biso   1.000  Cu
  C1       1.0000 0.77430  0.26280  0.42710  Biso   1.000  C
  N1       1.0000 0.79230  0.25870  0.46710  Biso   1.000  N
  C2       1.0000 0.81400  0.22420  0.57610  Biso   1.000  C
  N2       1.0000 0.81460  0.20070  0.59440  Biso   1.000  N
  N3       1.0000 0.76310  0.12040  0.62590  Biso   1.000  N
  C3       1.0000 0.75070  0.09070  0.60480  Biso   1.000  C
  C4       1.0000 0.69120  0.04470  0.50490  Biso   1.000  C
  N4       1.0000 0.67580  0.04050  0.45660  Biso   1.000  N
  N5       1.0000 0.62190  0.04660  0.36660  Biso   1.000  N
  C5       1.0000 0.60480  0.05940  0.35180  Biso   1.000  C
  C6       1.0000 0.59170  0.13160  0.36720  Biso   1.000  C
  N6       1.0000 0.59990  0.16110  0.36040  Biso   1.000  N
  N7       1.0000 0.66110  0.23550  0.38530  Biso   1.000  N
  C7       1.0000 0.69090  0.25110  0.40110  Biso   1.000  C
  N8       1.0000 0.87300  0.27260  0.46620  Biso   1.000  N
  C8       1.0000 0.89970  0.28650  0.45150  Biso   1.000  C
  C9       1.0000 0.98610  0.31570  0.47200  Biso   1.000  C
  N9       1.0000 0.00260  0.31320  0.49710  Biso   1.000  N
  C10      1.0000 0.96750  0.34530  0.30160  Biso   1.000  C
  N10      1.0000 0.96100  0.33080  0.34700  Biso   1.000  N
  N11      1.0000 0.76290  0.32970  0.38740  Biso   1.000  N
  C11      1.0000 0.77550  0.35980  0.38240  Biso   1.000  C
  N12      1.0000 0.55340  0.06760  0.26580  Biso   1.000  N
  C12      1.0000 0.53780  0.05910  0.22230  Biso   1.000  C
  C13      1.0000 0.83750  0.15760  0.74460  Biso   1.000  C
  N13      1.0000 0.82350  0.16050  0.70170  Biso   1.000  N
  C14      1.0000 0.09880  0.35800  0.53310  Biso   1.000  C
  N14      1.0000 0.12190  0.34120  0.52350  Biso   1.000  N
  C15      1.0000 0.68250  0.98610  0.66570  Biso   1.000  C
  N15      1.0000 0.69120  0.00720  0.63860  Biso   1.000  N
  Cu11     1.0000 0.40725  0.61299  0.75038  Biso   1.000  Cu
  Cu12     1.0000 0.49374  0.58273  0.82452  Biso   1.000  Cu
  Cu13     1.0000 0.46810  0.49658  0.98208  Biso   1.000  Cu
  Cu14     1.0000 0.37608  0.38295  0.91696  Biso   1.000  Cu
  Cu15     1.0000 0.30989  0.35951  0.71914  Biso   1.000  Cu
  Cu16     1.0000 0.25031  0.42241  0.65465  Biso   1.000  Cu
  Cu17     1.0000 0.27977  0.53885  0.72688  Biso   1.000  Cu
  Cu18     1.0000 0.61729  0.64354  0.75822  Biso   1.000  Cu
  Cu19     1.0000 0.71688  0.67517  0.89312  Biso   1.000  Cu
  Cu20     1.0000 0.16160  0.35673  0.49163  Biso   1.000  Cu
  C16      1.0000 0.44097  0.59613  0.76043  Biso   1.000  C
  N16      1.0000 0.45897  0.59203  0.80043  Biso   1.000  N
  C17      1.0000 0.48067  0.55753  0.90943  Biso   1.000  C
  N17      1.0000 0.48127  0.53403  0.92773  Biso   1.000  N
  N18      1.0000 0.42977  0.45373  0.95923  Biso   1.000  N
  C18      1.0000 0.41737  0.42403  0.93813  Biso   1.000  C
  C19      1.0000 0.35787  0.37803  0.83823  Biso   1.000  C
  N19      1.0000 0.34247  0.37383  0.78993  Biso   1.000  N
  N20      1.0000 0.28857  0.37993  0.69993  Biso   1.000  N
  C20      1.0000 0.27147  0.39273  0.68513  Biso   1.000  C
  C21      1.0000 0.25837  0.46493  0.70053  Biso   1.000  C
  N21      1.0000 0.26657  0.49443  0.69373  Biso   1.000  N
  N22      1.0000 0.32777  0.56883  0.71863  Biso   1.000  N
  C22      1.0000 0.35757  0.58443  0.73443  Biso   1.000  C
  N23      1.0000 0.53967  0.60593  0.79953  Biso   1.000  N
  C23      1.0000 0.56637  0.61983  0.78483  Biso   1.000  C
  C24      1.0000 0.65277  0.64903  0.80533  Biso   1.000  C
  N24      1.0000 0.66927  0.64653  0.83043  Biso   1.000  N
  C25      1.0000 0.63417  0.67863  0.63493  Biso   1.000  C
  N25      1.0000 0.62767  0.66413  0.68033  Biso   1.000  N
  N26      1.0000 0.42957  0.66303  0.72073  Biso   1.000  N
  C26      1.0000 0.44217  0.69313  0.71573  Biso   1.000  C
  N27      1.0000 0.22007  0.40093  0.59913  Biso   1.000  N
  C27      1.0000 0.20447  0.39243  0.55563  Biso   1.000  C
  C28      1.0000 0.50417  0.49093  0.07793  Biso   1.000  C
  N28      1.0000 0.49017  0.49383  0.03503  Biso   1.000  N
  C29      1.0000 0.76547  0.69133  0.86643  Biso   1.000  C
  N29      1.0000 0.78857  0.67453  0.85683  Biso   1.000  N
  C30      1.0000 0.34917  0.31943  0.99903  Biso   1.000  C
  N30      1.0000 0.35787  0.34053  0.97193  Biso   1.000  N
  Cu21     1.0000 0.07391  0.94633  0.08372  Biso   1.000  Cu
  Cu22     1.0000 0.16040  0.91607  0.15786  Biso   1.000  Cu
  Cu23     1.0000 0.13476  0.82992  0.31542  Biso   1.000  Cu
  Cu24     1.0000 0.04274  0.71629  0.25030  Biso   1.000  Cu
  Cu25     1.0000 0.97655  0.69285  0.05248  Biso   1.000  Cu
  Cu26     1.0000 0.91697  0.75575  0.98799  Biso   1.000  Cu
  Cu27     1.0000 0.94643  0.87219  0.06022  Biso   1.000  Cu
  Cu28     1.0000 0.28395  0.97688  0.09156  Biso   1.000  Cu
  Cu29     1.0000 0.38354  0.00851  0.22646  Biso   1.000  Cu
  Cu30     1.0000 0.82826  0.69007  0.82497  Biso   1.000  Cu
  C31      1.0000 0.10763  0.92947  0.09377  Biso   1.000  C
  N31      1.0000 0.12563  0.92537  0.13377  Biso   1.000  N
  C32      1.0000 0.14733  0.89087  0.24277  Biso   1.000  C
  N32      1.0000 0.14793  0.86737  0.26107  Biso   1.000  N
  N33      1.0000 0.09643  0.78707  0.29257  Biso   1.000  N
  C33      1.0000 0.08403  0.75737  0.27147  Biso   1.000  C
  C34      1.0000 0.02453  0.71137  0.17157  Biso   1.000  C
  N34      1.0000 0.00913  0.70717  0.12327  Biso   1.000  N
  N35      1.0000 0.95523  0.71327  0.03327  Biso   1.000  N
  C35      1.0000 0.93813  0.72607  0.01847  Biso   1.000  C
  C36      1.0000 0.92503  0.79827  0.03387  Biso   1.000  C
  N36      1.0000 0.93323  0.82777  0.02707  Biso   1.000  N
  N37      1.0000 0.99443  0.90217  0.05197  Biso   1.000  N
  C37      1.0000 0.02423  0.91777  0.06777  Biso   1.000  C
  N38      1.0000 0.20633  0.93927  0.13287  Biso   1.000  N
  C38      1.0000 0.23303  0.95317  0.11817  Biso   1.000  C
  C39      1.0000 0.31943  0.98237  0.13867  Biso   1.000  C
  N39      1.0000 0.33593  0.97987  0.16377  Biso   1.000  N
  C40      1.0000 0.30083  0.01197  0.96827  Biso   1.000  C
  N40      1.0000 0.29433  0.99747  0.01367  Biso   1.000  N
  N41      1.0000 0.09623  0.99637  0.05407  Biso   1.000  N
  C41      1.0000 0.10883  0.02647  0.04907  Biso   1.000  C
  N42      1.0000 0.88673  0.73427  0.93247  Biso   1.000  N
  C42      1.0000 0.87113  0.72577  0.88897  Biso   1.000  C
  C43      1.0000 0.17083  0.82427  0.41127  Biso   1.000  C
  N43      1.0000 0.15683  0.82717  0.36837  Biso   1.000  N
  C44      1.0000 0.43213  0.02467  0.19977  Biso   1.000  C
  N44      1.0000 0.45523  0.00787  0.19017  Biso   1.000  N
  C45      1.0000 0.01583  0.65277  0.33237  Biso   1.000  C
  N45      1.0000 0.02453  0.67387  0.30527  Biso   1.000  N
  Cu31     1.0000 0.72034  0.46092  0.41705  Biso   1.000  Cu
  Cu32     1.0000 0.75060  0.57767  0.49119  Biso   1.000  Cu
  Cu33     1.0000 0.83675  0.63818  0.64875  Biso   1.000  Cu
  Cu34     1.0000 0.95038  0.65979  0.58363  Biso   1.000  Cu
  Cu35     1.0000 0.97382  0.61704  0.38581  Biso   1.000  Cu
  Cu36     1.0000 0.91092  0.49456  0.32132  Biso   1.000  Cu
  Cu37     1.0000 0.79448  0.40758  0.39355  Biso   1.000  Cu
  Cu38     1.0000 0.68979  0.64041  0.42489  Biso   1.000  Cu
  Cu39     1.0000 0.65816  0.70837  0.55979  Biso   1.000  Cu
  Cu40     1.0000 0.97660  0.47153  0.15830  Biso   1.000  Cu
  C46      1.0000 0.73720  0.51150  0.42710  Biso   1.000  C
  N46      1.0000 0.74130  0.53360  0.46710  Biso   1.000  N
  C47      1.0000 0.77580  0.58980  0.57610  Biso   1.000  C
  N47      1.0000 0.79930  0.61390  0.59440  Biso   1.000  N
  N48      1.0000 0.87960  0.64270  0.62590  Biso   1.000  N
  C48      1.0000 0.90930  0.66000  0.60480  Biso   1.000  C
  C49      1.0000 0.95530  0.64650  0.50490  Biso   1.000  C
  N49      1.0000 0.95950  0.63530  0.45660  Biso   1.000  N
  N50      1.0000 0.95340  0.57530  0.36660  Biso   1.000  N
  C50      1.0000 0.94060  0.54540  0.35180  Biso   1.000  C
  C51      1.0000 0.86840  0.46010  0.36720  Biso   1.000  C
  N51      1.0000 0.83890  0.43880  0.36040  Biso   1.000  N
  N52      1.0000 0.76450  0.42560  0.38530  Biso   1.000  N
  C52      1.0000 0.74890  0.43980  0.40110  Biso   1.000  C
  N53      1.0000 0.72740  0.60040  0.46620  Biso   1.000  N
  C53      1.0000 0.71350  0.61320  0.45150  Biso   1.000  C
  C54      1.0000 0.68430  0.67040  0.47200  Biso   1.000  C
  N54      1.0000 0.68680  0.68940  0.49710  Biso   1.000  N
  C55      1.0000 0.65470  0.62220  0.30160  Biso   1.000  C
  N55      1.0000 0.66920  0.63020  0.34700  Biso   1.000  N
  N56      1.0000 0.67030  0.43320  0.38740  Biso   1.000  N
  C56      1.0000 0.64020  0.41570  0.38240  Biso   1.000  C
  N57      1.0000 0.93240  0.48580  0.26580  Biso   1.000  N
  C57      1.0000 0.94090  0.47870  0.22230  Biso   1.000  C
  C58      1.0000 0.84240  0.67990  0.74460  Biso   1.000  C
  N58      1.0000 0.83950  0.66300  0.70170  Biso   1.000  N
  C59      1.0000 0.64200  0.74080  0.53310  Biso   1.000  C
  N59      1.0000 0.65880  0.78070  0.52350  Biso   1.000  N
  C60      1.0000 0.01390  0.69640  0.66570  Biso   1.000  C
  N60      1.0000 0.99280  0.68400  0.63860  Biso   1.000  N
  Cu41     1.0000 0.38701  0.79425  0.75038  Biso   1.000  Cu
  Cu42     1.0000 0.41727  0.91100  0.82452  Biso   1.000  Cu
  Cu43     1.0000 0.50342  0.97151  0.98208  Biso   1.000  Cu
  Cu44     1.0000 0.61705  0.99312  0.91696  Biso   1.000  Cu
  Cu45     1.0000 0.64049  0.95037  0.71914  Biso   1.000  Cu
  Cu46     1.0000 0.57759  0.82789  0.65465  Biso   1.000  Cu
  Cu47     1.0000 0.46115  0.74091  0.72688  Biso   1.000  Cu
  Cu48     1.0000 0.35646  0.97374  0.75822  Biso   1.000  Cu
  Cu49     1.0000 0.32483  0.04170  0.89312  Biso   1.000  Cu
  Cu50     1.0000 0.64327  0.80486  0.49163  Biso   1.000  Cu
  C61      1.0000 0.40387  0.84483  0.76043  Biso   1.000  C
  N61      1.0000 0.40797  0.86693  0.80043  Biso   1.000  N
  C62      1.0000 0.44247  0.92313  0.90943  Biso   1.000  C
  N62      1.0000 0.46597  0.94723  0.92773  Biso   1.000  N
  N63      1.0000 0.54627  0.97603  0.95923  Biso   1.000  N
  C63      1.0000 0.57597  0.99333  0.93813  Biso   1.000  C
  C64      1.0000 0.62197  0.97983  0.83823  Biso   1.000  C
  N64      1.0000 0.62617  0.96863  0.78993  Biso   1.000  N
  N65      1.0000 0.62007  0.90863  0.69993  Biso   1.000  N
  C65      1.0000 0.60727  0.87873  0.68513  Biso   1.000  C
  C66      1.0000 0.53507  0.79343  0.70053  Biso   1.000  C
  N66      1.0000 0.50557  0.77213  0.69373  Biso   1.000  N
  N67      1.0000 0.43117  0.75893  0.71863  Biso   1.000  N
  C67      1.0000 0.41557  0.77313  0.73443  Biso   1.000  C
  N68      1.0000 0.39407  0.93373  0.79953  Biso   1.000  N
  C68      1.0000 0.38017  0.94653  0.78483  Biso   1.000  C
  C69      1.0000 0.35097  0.00373  0.80533  Biso   1.000  C
  N69      1.0000 0.35347  0.02273  0.83043  Biso   1.000  N
  C70      1.0000 0.32137  0.95553  0.63493  Biso   1.000  C
  N70      1.0000 0.33587  0.96353  0.68033  Biso   1.000  N
  N71      1.0000 0.33697  0.76653  0.72073  Biso   1.000  N
  C71      1.0000 0.30687  0.74903  0.71573  Biso   1.000  C
  N72      1.0000 0.59907  0.81913  0.59913  Biso   1.000  N
  C72      1.0000 0.60757  0.81203  0.55563  Biso   1.000  C
  C73      1.0000 0.50907  0.01323  0.07793  Biso   1.000  C
  N73      1.0000 0.50617  0.99633  0.03503  Biso   1.000  N
  C74      1.0000 0.30867  0.07413  0.86643  Biso   1.000  C
  N74      1.0000 0.32547  0.11403  0.85683  Biso   1.000  N
  C75      1.0000 0.68057  0.02973  0.99903  Biso   1.000  C
  N75      1.0000 0.65947  0.01733  0.97193  Biso   1.000  N
  Cu51     1.0000 0.05367  0.12759  0.08372  Biso   1.000  Cu
  Cu52     1.0000 0.08393  0.24434  0.15786  Biso   1.000  Cu
  Cu53     1.0000 0.17008  0.30485  0.31542  Biso   1.000  Cu
  Cu54     1.0000 0.28371  0.32646  0.25030  Biso   1.000  Cu
  Cu55     1.0000 0.30715  0.28371  0.05248  Biso   1.000  Cu
  Cu56     1.0000 0.24425  0.16123  0.98799  Biso   1.000  Cu
  Cu57     1.0000 0.12781  0.07425  0.06022  Biso   1.000  Cu
  Cu58     1.0000 0.02312  0.30708  0.09156  Biso   1.000  Cu
  Cu59     1.0000 0.99149  0.37504  0.22646  Biso   1.000  Cu
  Cu60     1.0000 0.30993  0.13820  0.82497  Biso   1.000  Cu
  C76      1.0000 0.07053  0.17817  0.09377  Biso   1.000  C
  N76      1.0000 0.07463  0.20027  0.13377  Biso   1.000  N
  C77      1.0000 0.10913  0.25647  0.24277  Biso   1.000  C
  N77      1.0000 0.13263  0.28057  0.26107  Biso   1.000  N
  N78      1.0000 0.21293  0.30937  0.29257  Biso   1.000  N
  C78      1.0000 0.24263  0.32667  0.27147  Biso   1.000  C
  C79      1.0000 0.28863  0.31317  0.17157  Biso   1.000  C
  N79      1.0000 0.29283  0.30197  0.12327  Biso   1.000  N
  N80      1.0000 0.28673  0.24197  0.03327  Biso   1.000  N
  C80      1.0000 0.27393  0.21207  0.01847  Biso   1.000  C
  C81      1.0000 0.20173  0.12677  0.03387  Biso   1.000  C
  N81      1.0000 0.17223  0.10547  0.02707  Biso   1.000  N
  N82      1.0000 0.09783  0.09227  0.05197  Biso   1.000  N
  C82      1.0000 0.08223  0.10647  0.06777  Biso   1.000  C
  N83      1.0000 0.06073  0.26707  0.13287  Biso   1.000  N
  C83      1.0000 0.04683  0.27987  0.11817  Biso   1.000  C
  C84      1.0000 0.01763  0.33707  0.13867  Biso   1.000  C
  N84      1.0000 0.02013  0.35607  0.16377  Biso   1.000  N
  C85      1.0000 0.98803  0.28887  0.96827  Biso   1.000  C
  N85      1.0000 0.00253  0.29687  0.01367  Biso   1.000  N
  N86      1.0000 0.00363  0.09987  0.05407  Biso   1.000  N
  C86      1.0000 0.97353  0.08237  0.04907  Biso   1.000  C
  N87      1.0000 0.26573  0.15247  0.93247  Biso   1.000  N
  C87      1.0000 0.27423  0.14537  0.88897  Biso   1.000  C
  C88      1.0000 0.17573  0.34657  0.41127  Biso   1.000  C
  N88      1.0000 0.17283  0.32967  0.36837  Biso   1.000  N
  C89      1.0000 0.97533  0.40747  0.19977  Biso   1.000  C
  N89      1.0000 0.99213  0.44737  0.19017  Biso   1.000  N
  C90      1.0000 0.34723  0.36307  0.33237  Biso   1.000  C
  N90      1.0000 0.32613  0.35067  0.30527  Biso   1.000  N
  Cu61     1.0000 0.53908  0.25942  0.41705  Biso   1.000  Cu
  Cu62     1.0000 0.42233  0.17293  0.49119  Biso   1.000  Cu
  Cu63     1.0000 0.36182  0.19857  0.64875  Biso   1.000  Cu
  Cu64     1.0000 0.34021  0.29059  0.58363  Biso   1.000  Cu
  Cu65     1.0000 0.38296  0.35678  0.38581  Biso   1.000  Cu
  Cu66     1.0000 0.50544  0.41636  0.32132  Biso   1.000  Cu
  Cu67     1.0000 0.59242  0.38690  0.39355  Biso   1.000  Cu
  Cu68     1.0000 0.35959  0.04938  0.42489  Biso   1.000  Cu
  Cu69     1.0000 0.29163  0.94979  0.55979  Biso   1.000  Cu
  Cu70     1.0000 0.52847  0.50507  0.15830  Biso   1.000  Cu
  C91      1.0000 0.48850  0.22570  0.42710  Biso   1.000  C
  N91      1.0000 0.46640  0.20770  0.46710  Biso   1.000  N
  C92      1.0000 0.41020  0.18600  0.57610  Biso   1.000  C
  N92      1.0000 0.38610  0.18540  0.59440  Biso   1.000  N
  N93      1.0000 0.35730  0.23690  0.62590  Biso   1.000  N
  C93      1.0000 0.34000  0.24930  0.60480  Biso   1.000  C
  C94      1.0000 0.35350  0.30880  0.50490  Biso   1.000  C
  N94      1.0000 0.36470  0.32420  0.45660  Biso   1.000  N
  N95      1.0000 0.42470  0.37810  0.36660  Biso   1.000  N
  C95      1.0000 0.45460  0.39520  0.35180  Biso   1.000  C
  C96      1.0000 0.53990  0.40830  0.36720  Biso   1.000  C
  N96      1.0000 0.56120  0.40010  0.36040  Biso   1.000  N
  N97      1.0000 0.57440  0.33890  0.38530  Biso   1.000  N
  C97      1.0000 0.56020  0.30910  0.40110  Biso   1.000  C
  N98      1.0000 0.39960  0.12700  0.46620  Biso   1.000  N
  C98      1.0000 0.38680  0.10030  0.45150  Biso   1.000  C
  C99      1.0000 0.32960  0.01390  0.47200  Biso   1.000  C
  N99      1.0000 0.31060  0.99740  0.49710  Biso   1.000  N
  C100     1.0000 0.37780  0.03250  0.30160  Biso   1.000  C
  N100     1.0000 0.36980  0.03900  0.34700  Biso   1.000  N
  N101     1.0000 0.56680  0.23710  0.38740  Biso   1.000  N
  C101     1.0000 0.58430  0.22450  0.38240  Biso   1.000  C
  N102     1.0000 0.51420  0.44660  0.26580  Biso   1.000  N
  C102     1.0000 0.52130  0.46220  0.22230  Biso   1.000  C
  C103     1.0000 0.32010  0.16250  0.74460  Biso   1.000  C
  N103     1.0000 0.33700  0.17650  0.70170  Biso   1.000  N
  C104     1.0000 0.25920  0.90120  0.53310  Biso   1.000  C
  N104     1.0000 0.21930  0.87810  0.52350  Biso   1.000  N
  C105     1.0000 0.30360  0.31750  0.66570  Biso   1.000  C
  N105     1.0000 0.31600  0.30880  0.63860  Biso   1.000  N
  Cu71     1.0000 0.20575  0.59275  0.75038  Biso   1.000  Cu
  Cu72     1.0000 0.08900  0.50626  0.82452  Biso   1.000  Cu
  Cu73     1.0000 0.02849  0.53190  0.98208  Biso   1.000  Cu
  Cu74     1.0000 0.00688  0.62392  0.91696  Biso   1.000  Cu
  Cu75     1.0000 0.04963  0.69011  0.71914  Biso   1.000  Cu
  Cu76     1.0000 0.17211  0.74969  0.65465  Biso   1.000  Cu
  Cu77     1.0000 0.25909  0.72023  0.72688  Biso   1.000  Cu
  Cu78     1.0000 0.02626  0.38271  0.75822  Biso   1.000  Cu
  Cu79     1.0000 0.95830  0.28312  0.89312  Biso   1.000  Cu
  Cu80     1.0000 0.19514  0.83840  0.49163  Biso   1.000  Cu
  C106     1.0000 0.15517  0.55903  0.76043  Biso   1.000  C
  N106     1.0000 0.13307  0.54103  0.80043  Biso   1.000  N
  C107     1.0000 0.07687  0.51933  0.90943  Biso   1.000  C
  N107     1.0000 0.05277  0.51873  0.92773  Biso   1.000  N
  N108     1.0000 0.02397  0.57023  0.95923  Biso   1.000  N
  C108     1.0000 0.00667  0.58263  0.93813  Biso   1.000  C
  C109     1.0000 0.02017  0.64213  0.83823  Biso   1.000  C
  N109     1.0000 0.03137  0.65753  0.78993  Biso   1.000  N
  N110     1.0000 0.09137  0.71143  0.69993  Biso   1.000  N
  C110     1.0000 0.12127  0.72853  0.68513  Biso   1.000  C
  C111     1.0000 0.20657  0.74163  0.70053  Biso   1.000  C
  N111     1.0000 0.22787  0.73343  0.69373  Biso   1.000  N
  N112     1.0000 0.24107  0.67223  0.71863  Biso   1.000  N
  C112     1.0000 0.22687  0.64243  0.73443  Biso   1.000  C
  N113     1.0000 0.06627  0.46033  0.79953  Biso   1.000  N
  C113     1.0000 0.05347  0.43363  0.78483  Biso   1.000  C
  C114     1.0000 0.99627  0.34723  0.80533  Biso   1.000  C
  N114     1.0000 0.97727  0.33073  0.83043  Biso   1.000  N
  C115     1.0000 0.04447  0.36583  0.63493  Biso   1.000  C
  N115     1.0000 0.03647  0.37233  0.68033  Biso   1.000  N
  N116     1.0000 0.23347  0.57043  0.72073  Biso   1.000  N
  C116     1.0000 0.25097  0.55783  0.71573  Biso   1.000  C
  N117     1.0000 0.18087  0.77993  0.59913  Biso   1.000  N
  C117     1.0000 0.18797  0.79553  0.55563  Biso   1.000  C
  C118     1.0000 0.98677  0.49583  0.07793  Biso   1.000  C
  N118     1.0000 0.00367  0.50983  0.03503  Biso   1.000  N
  C119     1.0000 0.92587  0.23453  0.86643  Biso   1.000  C
  N119     1.0000 0.88597  0.21143  0.85683  Biso   1.000  N
  C120     1.0000 0.97027  0.65083  0.99903  Biso   1.000  C
  N120     1.0000 0.98267  0.64213  0.97193  Biso   1.000  N
  Cu81     1.0000 0.87241  0.92609  0.08372  Biso   1.000  Cu
  Cu82     1.0000 0.75566  0.83960  0.15786  Biso   1.000  Cu
  Cu83     1.0000 0.69515  0.86524  0.31542  Biso   1.000  Cu
  Cu84     1.0000 0.67354  0.95726  0.25030  Biso   1.000  Cu
  Cu85     1.0000 0.71629  0.02345  0.05248  Biso   1.000  Cu
  Cu86     1.0000 0.83877  0.08303  0.98799  Biso   1.000  Cu
  Cu87     1.0000 0.92575  0.05357  0.06022  Biso   1.000  Cu
  Cu88     1.0000 0.69292  0.71605  0.09156  Biso   1.000  Cu
  Cu89     1.0000 0.62496  0.61646  0.22646  Biso   1.000  Cu
  Cu90     1.0000 0.86180  0.17174  0.82497  Biso   1.000  Cu
  C121     1.0000 0.82183  0.89237  0.09377  Biso   1.000  C
  N121     1.0000 0.79973  0.87437  0.13377  Biso   1.000  N
  C122     1.0000 0.74353  0.85267  0.24277  Biso   1.000  C
  N122     1.0000 0.71943  0.85207  0.26107  Biso   1.000  N
  N123     1.0000 0.69063  0.90357  0.29257  Biso   1.000  N
  C123     1.0000 0.67333  0.91597  0.27147  Biso   1.000  C
  C124     1.0000 0.68683  0.97547  0.17157  Biso   1.000  C
  N124     1.0000 0.69803  0.99087  0.12327  Biso   1.000  N
  N125     1.0000 0.75803  0.04477  0.03327  Biso   1.000  N
  C125     1.0000 0.78793  0.06187  0.01847  Biso   1.000  C
  C126     1.0000 0.87323  0.07497  0.03387  Biso   1.000  C
  N126     1.0000 0.89453  0.06677  0.02707  Biso   1.000  N
  N127     1.0000 0.90773  0.00557  0.05197  Biso   1.000  N
  C127     1.0000 0.89353  0.97577  0.06777  Biso   1.000  C
  N128     1.0000 0.73293  0.79367  0.13287  Biso   1.000  N
  C128     1.0000 0.72013  0.76697  0.11817  Biso   1.000  C
  C129     1.0000 0.66293  0.68057  0.13867  Biso   1.000  C
  N129     1.0000 0.64393  0.66407  0.16377  Biso   1.000  N
  C130     1.0000 0.71113  0.69917  0.96827  Biso   1.000  C
  N130     1.0000 0.70313  0.70567  0.01367  Biso   1.000  N
  N131     1.0000 0.90013  0.90377  0.05407  Biso   1.000  N
  C131     1.0000 0.91763  0.89117  0.04907  Biso   1.000  C
  N132     1.0000 0.84753  0.11327  0.93247  Biso   1.000  N
  C132     1.0000 0.85463  0.12887  0.88897  Biso   1.000  C
  C133     1.0000 0.65343  0.82917  0.41127  Biso   1.000  C
  N133     1.0000 0.67033  0.84317  0.36837  Biso   1.000  N
  C134     1.0000 0.59253  0.56787  0.19977  Biso   1.000  C
  N134     1.0000 0.55263  0.54477  0.19017  Biso   1.000  N
  C135     1.0000 0.63693  0.98417  0.33237  Biso   1.000  C
  N135     1.0000 0.64933  0.97547  0.30527  Biso   1.000  N
