data_image0
_cell_length_a       16.738
_cell_length_b       17.162
_cell_length_c       17.209
_cell_angle_alpha    90
_cell_angle_beta     90
_cell_angle_gamma    90

_symmetry_space_group_name_H-M    "P 1"
_symmetry_int_tables_number       1

loop_
  _symmetry_equiv_pos_as_xyz
  'x, y, z'

loop_
  _atom_site_label
  _atom_site_occupancy
  _atom_site_fract_x
  _atom_site_fract_y
  _atom_site_fract_z
  _atom_site_thermal_displace_type
  _atom_site_B_iso_or_equiv
  _atom_site_type_symbol
  Ho1      1.0000 0.08420  0.03992  0.34906  Biso   1.000  Ho
  O1       1.0000 0.95830  0.03990  0.29430  Biso   1.000  O
  O2       1.0000 0.99790  0.11110  0.43410  Biso   1.000  O
  O3       1.0000 0.09150  0.02330  0.21100  Biso   1.000  O
  O4       1.0000 0.05100  0.91060  0.30970  Biso   1.000  O
  O5       1.0000 0.21030  0.98250  0.34680  Biso   1.000  O
  O6       1.0000 0.06950  0.95980  0.46360  Biso   1.000  O
  O7       1.0000 0.10900  0.16650  0.30130  Biso   1.000  O
  Ho2      1.0000 0.90917  0.91467  0.31011  Biso   1.000  Ho
  Ho3      1.0000 0.96639  0.06049  0.15506  Biso   1.000  Ho
  S1       1.0000 0.97549  0.11235  0.51682  Biso   1.000  S
  Ho4      1.0000 0.09590  0.88619  0.18475  Biso   1.000  Ho
  S2       1.0000 0.26611  0.96547  0.28292  Biso   1.000  S
  O8       1.0000 0.96220  0.92800  0.18150  Biso   1.000  O
  O9       1.0000 0.91830  0.79090  0.25670  Biso   1.000  O
  O10      1.0000 0.95140  0.88380  0.43590  Biso   1.000  O
  O11      1.0000 0.79570  0.96070  0.24900  Biso   1.000  O
  O12      1.0000 0.88940  0.99700  0.05890  Biso   1.000  O
  O13      1.0000 0.00710  0.17960  0.20380  Biso   1.000  O
  O14      1.0000 0.05620  0.06740  0.05200  Biso   1.000  O
  O15      1.0000 0.83270  0.08120  0.18810  Biso   1.000  O
  O16      1.0000 0.92480  0.17940  0.53310  Biso   1.000  O
  O17      1.0000 0.22410  0.92060  0.22290  Biso   1.000  O
  O18      1.0000 0.10790  0.93750  0.06300  Biso   1.000  O
  S3       1.0000 0.91302  0.70659  0.27144  Biso   1.000  S
  S4       1.0000 0.88145  0.98593  0.97529  Biso   1.000  S
  O19      1.0000 0.85460  0.69020  0.33180  Biso   1.000  O
  O20      1.0000 0.80310  0.95360  0.95760  Biso   1.000  O
  Ho5      1.0000 0.41580  0.46008  0.34906  Biso   1.000  Ho
  O21      1.0000 0.54170  0.46010  0.29430  Biso   1.000  O
  O22      1.0000 0.50210  0.38890  0.43410  Biso   1.000  O
  O23      1.0000 0.40850  0.47670  0.21100  Biso   1.000  O
  O24      1.0000 0.44900  0.58940  0.30970  Biso   1.000  O
  O25      1.0000 0.28970  0.51750  0.34680  Biso   1.000  O
  O26      1.0000 0.43050  0.54020  0.46360  Biso   1.000  O
  O27      1.0000 0.39100  0.33350  0.30130  Biso   1.000  O
  Ho6      1.0000 0.59083  0.58533  0.31011  Biso   1.000  Ho
  Ho7      1.0000 0.53361  0.43951  0.15506  Biso   1.000  Ho
  S5       1.0000 0.52451  0.38765  0.51682  Biso   1.000  S
  Ho8      1.0000 0.40410  0.61381  0.18475  Biso   1.000  Ho
  S6       1.0000 0.23389  0.53453  0.28292  Biso   1.000  S
  O28      1.0000 0.53780  0.57200  0.18150  Biso   1.000  O
  O29      1.0000 0.58170  0.70910  0.25670  Biso   1.000  O
  O30      1.0000 0.54860  0.61620  0.43590  Biso   1.000  O
  O31      1.0000 0.70430  0.53930  0.24900  Biso   1.000  O
  O32      1.0000 0.61060  0.50300  0.05890  Biso   1.000  O
  O33      1.0000 0.49290  0.32040  0.20380  Biso   1.000  O
  O34      1.0000 0.44380  0.43260  0.05200  Biso   1.000  O
  O35      1.0000 0.66730  0.41880  0.18810  Biso   1.000  O
  O36      1.0000 0.57520  0.32060  0.53310  Biso   1.000  O
  O37      1.0000 0.27590  0.57940  0.22290  Biso   1.000  O
  O38      1.0000 0.39210  0.56250  0.06300  Biso   1.000  O
  S7       1.0000 0.58698  0.79341  0.27144  Biso   1.000  S
  S8       1.0000 0.61855  0.51407  0.97529  Biso   1.000  S
  O39      1.0000 0.64540  0.80980  0.33180  Biso   1.000  O
  O40      1.0000 0.69690  0.54640  0.95760  Biso   1.000  O
  Ho9      1.0000 0.91580  0.53992  0.15095  Biso   1.000  Ho
  O41      1.0000 0.04170  0.53990  0.20570  Biso   1.000  O
  O42      1.0000 0.00210  0.61110  0.06590  Biso   1.000  O
  O43      1.0000 0.90850  0.52330  0.28900  Biso   1.000  O
  O44      1.0000 0.94900  0.41060  0.19030  Biso   1.000  O
  O45      1.0000 0.78970  0.48250  0.15320  Biso   1.000  O
  O46      1.0000 0.93050  0.45980  0.03640  Biso   1.000  O
  O47      1.0000 0.89100  0.66650  0.19870  Biso   1.000  O
  Ho10     1.0000 0.09083  0.41467  0.18989  Biso   1.000  Ho
  Ho11     1.0000 0.03361  0.56049  0.34494  Biso   1.000  Ho
  S9       1.0000 0.02451  0.61235  0.98318  Biso   1.000  S
  Ho12     1.0000 0.90410  0.38619  0.31525  Biso   1.000  Ho
  S10      1.0000 0.73389  0.46547  0.21708  Biso   1.000  S
  O48      1.0000 0.03780  0.42800  0.31850  Biso   1.000  O
  O49      1.0000 0.08170  0.29090  0.24330  Biso   1.000  O
  O50      1.0000 0.04860  0.38380  0.06410  Biso   1.000  O
  O51      1.0000 0.20430  0.46070  0.25100  Biso   1.000  O
  O52      1.0000 0.11060  0.49700  0.44110  Biso   1.000  O
  O53      1.0000 0.99290  0.67960  0.29620  Biso   1.000  O
  O54      1.0000 0.94380  0.56740  0.44800  Biso   1.000  O
  O55      1.0000 0.16730  0.58120  0.31190  Biso   1.000  O
  O56      1.0000 0.07520  0.67940  0.96690  Biso   1.000  O
  O57      1.0000 0.77590  0.42060  0.27710  Biso   1.000  O
  O58      1.0000 0.89210  0.43750  0.43700  Biso   1.000  O
  S11      1.0000 0.08698  0.20659  0.22856  Biso   1.000  S
  S12      1.0000 0.11855  0.48593  0.52471  Biso   1.000  S
  O59      1.0000 0.14540  0.19020  0.16820  Biso   1.000  O
  O60      1.0000 0.19690  0.45360  0.54240  Biso   1.000  O
  Ho13     1.0000 0.58420  0.96008  0.15095  Biso   1.000  Ho
  O61      1.0000 0.45830  0.96010  0.20570  Biso   1.000  O
  O62      1.0000 0.49790  0.88890  0.06590  Biso   1.000  O
  O63      1.0000 0.59150  0.97670  0.28900  Biso   1.000  O
  O64      1.0000 0.55100  0.08940  0.19030  Biso   1.000  O
  O65      1.0000 0.71030  0.01750  0.15320  Biso   1.000  O
  O66      1.0000 0.56950  0.04020  0.03640  Biso   1.000  O
  O67      1.0000 0.60900  0.83350  0.19870  Biso   1.000  O
  Ho14     1.0000 0.40917  0.08533  0.18989  Biso   1.000  Ho
  Ho15     1.0000 0.46639  0.93951  0.34494  Biso   1.000  Ho
  S13      1.0000 0.47549  0.88765  0.98318  Biso   1.000  S
  Ho16     1.0000 0.59590  0.11381  0.31525  Biso   1.000  Ho
  S14      1.0000 0.76611  0.03453  0.21708  Biso   1.000  S
  O68      1.0000 0.46220  0.07200  0.31850  Biso   1.000  O
  O69      1.0000 0.41830  0.20910  0.24330  Biso   1.000  O
  O70      1.0000 0.45140  0.11620  0.06410  Biso   1.000  O
  O71      1.0000 0.29570  0.03930  0.25100  Biso   1.000  O
  O72      1.0000 0.38940  0.00300  0.44110  Biso   1.000  O
  O73      1.0000 0.50710  0.82040  0.29620  Biso   1.000  O
  O74      1.0000 0.55620  0.93260  0.44800  Biso   1.000  O
  O75      1.0000 0.33270  0.91880  0.31190  Biso   1.000  O
  O76      1.0000 0.42480  0.82060  0.96690  Biso   1.000  O
  O77      1.0000 0.72410  0.07940  0.27710  Biso   1.000  O
  O78      1.0000 0.60790  0.06250  0.43700  Biso   1.000  O
  S15      1.0000 0.41302  0.29341  0.22856  Biso   1.000  S
  S16      1.0000 0.38145  0.01407  0.52471  Biso   1.000  S
  O79      1.0000 0.35460  0.30980  0.16820  Biso   1.000  O
  O80      1.0000 0.30310  0.04640  0.54240  Biso   1.000  O
  Ho17     1.0000 0.91580  0.96008  0.65095  Biso   1.000  Ho
  O81      1.0000 0.04170  0.96010  0.70570  Biso   1.000  O
  O82      1.0000 0.00210  0.88890  0.56590  Biso   1.000  O
  O83      1.0000 0.90850  0.97670  0.78900  Biso   1.000  O
  O84      1.0000 0.94900  0.08940  0.69030  Biso   1.000  O
  O85      1.0000 0.78970  0.01750  0.65320  Biso   1.000  O
  O86      1.0000 0.93050  0.04020  0.53640  Biso   1.000  O
  O87      1.0000 0.89100  0.83350  0.69870  Biso   1.000  O
  Ho18     1.0000 0.09083  0.08533  0.68989  Biso   1.000  Ho
  Ho19     1.0000 0.03361  0.93951  0.84494  Biso   1.000  Ho
  S17      1.0000 0.02451  0.88765  0.48318  Biso   1.000  S
  Ho20     1.0000 0.90410  0.11381  0.81525  Biso   1.000  Ho
  S18      1.0000 0.73389  0.03453  0.71708  Biso   1.000  S
  O88      1.0000 0.03780  0.07200  0.81850  Biso   1.000  O
  O89      1.0000 0.08170  0.20910  0.74330  Biso   1.000  O
  O90      1.0000 0.04860  0.11620  0.56410  Biso   1.000  O
  O91      1.0000 0.20430  0.03930  0.75100  Biso   1.000  O
  O92      1.0000 0.11060  0.00300  0.94110  Biso   1.000  O
  O93      1.0000 0.99290  0.82040  0.79620  Biso   1.000  O
  O94      1.0000 0.94380  0.93260  0.94800  Biso   1.000  O
  O95      1.0000 0.16730  0.91880  0.81190  Biso   1.000  O
  O96      1.0000 0.07520  0.82060  0.46690  Biso   1.000  O
  O97      1.0000 0.77590  0.07940  0.77710  Biso   1.000  O
  O98      1.0000 0.89210  0.06250  0.93700  Biso   1.000  O
  S19      1.0000 0.08698  0.29341  0.72856  Biso   1.000  S
  S20      1.0000 0.11855  0.01407  0.02471  Biso   1.000  S
  O99      1.0000 0.14540  0.30980  0.66820  Biso   1.000  O
  O100     1.0000 0.19690  0.04640  0.04240  Biso   1.000  O
  Ho21     1.0000 0.58420  0.53992  0.65095  Biso   1.000  Ho
  O101     1.0000 0.45830  0.53990  0.70570  Biso   1.000  O
  O102     1.0000 0.49790  0.61110  0.56590  Biso   1.000  O
  O103     1.0000 0.59150  0.52330  0.78900  Biso   1.000  O
  O104     1.0000 0.55100  0.41060  0.69030  Biso   1.000  O
  O105     1.0000 0.71030  0.48250  0.65320  Biso   1.000  O
  O106     1.0000 0.56950  0.45980  0.53640  Biso   1.000  O
  O107     1.0000 0.60900  0.66650  0.69870  Biso   1.000  O
  Ho22     1.0000 0.40917  0.41467  0.68989  Biso   1.000  Ho
  Ho23     1.0000 0.46639  0.56049  0.84494  Biso   1.000  Ho
  S21      1.0000 0.47549  0.61235  0.48318  Biso   1.000  S
  Ho24     1.0000 0.59590  0.38619  0.81525  Biso   1.000  Ho
  S22      1.0000 0.76611  0.46547  0.71708  Biso   1.000  S
  O108     1.0000 0.46220  0.42800  0.81850  Biso   1.000  O
  O109     1.0000 0.41830  0.29090  0.74330  Biso   1.000  O
  O110     1.0000 0.45140  0.38380  0.56410  Biso   1.000  O
  O111     1.0000 0.29570  0.46070  0.75100  Biso   1.000  O
  O112     1.0000 0.38940  0.49700  0.94110  Biso   1.000  O
  O113     1.0000 0.50710  0.67960  0.79620  Biso   1.000  O
  O114     1.0000 0.55620  0.56740  0.94800  Biso   1.000  O
  O115     1.0000 0.33270  0.58120  0.81190  Biso   1.000  O
  O116     1.0000 0.42480  0.67940  0.46690  Biso   1.000  O
  O117     1.0000 0.72410  0.42060  0.77710  Biso   1.000  O
  O118     1.0000 0.60790  0.43750  0.93700  Biso   1.000  O
  S23      1.0000 0.41302  0.20659  0.72856  Biso   1.000  S
  S24      1.0000 0.38145  0.48593  0.02471  Biso   1.000  S
  O119     1.0000 0.35460  0.19020  0.66820  Biso   1.000  O
  O120     1.0000 0.30310  0.45360  0.04240  Biso   1.000  O
  Ho25     1.0000 0.08420  0.46008  0.84906  Biso   1.000  Ho
  O121     1.0000 0.95830  0.46010  0.79430  Biso   1.000  O
  O122     1.0000 0.99790  0.38890  0.93410  Biso   1.000  O
  O123     1.0000 0.09150  0.47670  0.71100  Biso   1.000  O
  O124     1.0000 0.05100  0.58940  0.80970  Biso   1.000  O
  O125     1.0000 0.21030  0.51750  0.84680  Biso   1.000  O
  O126     1.0000 0.06950  0.54020  0.96360  Biso   1.000  O
  O127     1.0000 0.10900  0.33350  0.80130  Biso   1.000  O
  Ho26     1.0000 0.90917  0.58533  0.81011  Biso   1.000  Ho
  Ho27     1.0000 0.96639  0.43951  0.65506  Biso   1.000  Ho
  S25      1.0000 0.97549  0.38765  0.01682  Biso   1.000  S
  Ho28     1.0000 0.09590  0.61381  0.68475  Biso   1.000  Ho
  S26      1.0000 0.26611  0.53453  0.78292  Biso   1.000  S
  O128     1.0000 0.96220  0.57200  0.68150  Biso   1.000  O
  O129     1.0000 0.91830  0.70910  0.75670  Biso   1.000  O
  O130     1.0000 0.95140  0.61620  0.93590  Biso   1.000  O
  O131     1.0000 0.79570  0.53930  0.74900  Biso   1.000  O
  O132     1.0000 0.88940  0.50300  0.55890  Biso   1.000  O
  O133     1.0000 0.00710  0.32040  0.70380  Biso   1.000  O
  O134     1.0000 0.05620  0.43260  0.55200  Biso   1.000  O
  O135     1.0000 0.83270  0.41880  0.68810  Biso   1.000  O
  O136     1.0000 0.92480  0.32060  0.03310  Biso   1.000  O
  O137     1.0000 0.22410  0.57940  0.72290  Biso   1.000  O
  O138     1.0000 0.10790  0.56250  0.56300  Biso   1.000  O
  S27      1.0000 0.91302  0.79341  0.77144  Biso   1.000  S
  S28      1.0000 0.88145  0.51407  0.47529  Biso   1.000  S
  O139     1.0000 0.85460  0.80980  0.83180  Biso   1.000  O
  O140     1.0000 0.80310  0.54640  0.45760  Biso   1.000  O
  Ho29     1.0000 0.41580  0.03992  0.84906  Biso   1.000  Ho
  O141     1.0000 0.54170  0.03990  0.79430  Biso   1.000  O
  O142     1.0000 0.50210  0.11110  0.93410  Biso   1.000  O
  O143     1.0000 0.40850  0.02330  0.71100  Biso   1.000  O
  O144     1.0000 0.44900  0.91060  0.80970  Biso   1.000  O
  O145     1.0000 0.28970  0.98250  0.84680  Biso   1.000  O
  O146     1.0000 0.43050  0.95980  0.96360  Biso   1.000  O
  O147     1.0000 0.39100  0.16650  0.80130  Biso   1.000  O
  Ho30     1.0000 0.59083  0.91467  0.81011  Biso   1.000  Ho
  Ho31     1.0000 0.53361  0.06049  0.65506  Biso   1.000  Ho
  S29      1.0000 0.52451  0.11235  0.01682  Biso   1.000  S
  Ho32     1.0000 0.40410  0.88619  0.68475  Biso   1.000  Ho
  S30      1.0000 0.23389  0.96547  0.78292  Biso   1.000  S
  O148     1.0000 0.53780  0.92800  0.68150  Biso   1.000  O
  O149     1.0000 0.58170  0.79090  0.75670  Biso   1.000  O
  O150     1.0000 0.54860  0.88380  0.93590  Biso   1.000  O
  O151     1.0000 0.70430  0.96070  0.74900  Biso   1.000  O
  O152     1.0000 0.61060  0.99700  0.55890  Biso   1.000  O
  O153     1.0000 0.49290  0.17960  0.70380  Biso   1.000  O
  O154     1.0000 0.44380  0.06740  0.55200  Biso   1.000  O
  O155     1.0000 0.66730  0.08120  0.68810  Biso   1.000  O
  O156     1.0000 0.57520  0.17940  0.03310  Biso   1.000  O
  O157     1.0000 0.27590  0.92060  0.72290  Biso   1.000  O
  O158     1.0000 0.39210  0.93750  0.56300  Biso   1.000  O
  S31      1.0000 0.58698  0.70659  0.77144  Biso   1.000  S
  S32      1.0000 0.61855  0.98593  0.47529  Biso   1.000  S
  O159     1.0000 0.64540  0.69020  0.83180  Biso   1.000  O
  O160     1.0000 0.69690  0.95360  0.45760  Biso   1.000  O
