data_image0
_cell_length_a       16.718
_cell_length_b       17.13
_cell_length_c       17.17
_cell_angle_alpha    90
_cell_angle_beta     90
_cell_angle_gamma    90

_symmetry_space_group_name_H-M    "P 1"
_symmetry_int_tables_number       1

loop_
  _symmetry_equiv_pos_as_xyz
  'x, y, z'

loop_
  _atom_site_label
  _atom_site_occupancy
  _atom_site_fract_x
  _atom_site_fract_y
  _atom_site_fract_z
  _atom_site_thermal_displace_type
  _atom_site_B_iso_or_equiv
  _atom_site_type_symbol
  Er1      1.0000 0.59044  0.91458  0.31016  Biso   1.000  Er
  Er2      1.0000 0.41586  0.03985  0.34893  Biso   1.000  Er
  Er3      1.0000 0.40406  0.88649  0.18476  Biso   1.000  Er
  Er4      1.0000 0.53374  0.06027  0.15525  Biso   1.000  Er
  S1       1.0000 0.52460  0.11245  0.51682  Biso   1.000  S
  S2       1.0000 0.41316  0.20649  0.22857  Biso   1.000  S
  S3       1.0000 0.61831  0.98581  0.97522  Biso   1.000  S
  S4       1.0000 0.73371  0.03406  0.21734  Biso   1.000  S
  O1       1.0000 0.50210  0.11090  0.43380  Biso   1.000  O
  O2       1.0000 0.44887  0.91040  0.30949  Biso   1.000  O
  O3       1.0000 0.56980  0.04040  0.53670  Biso   1.000  O
  O4       1.0000 0.40872  0.02330  0.21099  Biso   1.000  O
  O5       1.0000 0.57570  0.17970  0.53260  Biso   1.000  O
  O6       1.0000 0.53766  0.92810  0.18136  Biso   1.000  O
  O7       1.0000 0.45140  0.11670  0.56470  Biso   1.000  O
  O8       1.0000 0.54186  0.03975  0.29451  Biso   1.000  O
  O9       1.0000 0.39130  0.16600  0.30170  Biso   1.000  O
  O10      1.0000 0.49340  0.17960  0.20360  Biso   1.000  O
  O11      1.0000 0.35450  0.19010  0.16790  Biso   1.000  O
  O12      1.0000 0.41870  0.29110  0.24300  Biso   1.000  O
  O13      1.0000 0.61030  0.99710  0.05910  Biso   1.000  O
  O14      1.0000 0.69700  0.95330  0.95740  Biso   1.000  O
  O15      1.0000 0.55580  0.93230  0.94740  Biso   1.000  O
  O16      1.0000 0.60730  0.06260  0.93670  Biso   1.000  O
  O17      1.0000 0.70410  0.95990  0.24930  Biso   1.000  O
  O18      1.0000 0.66710  0.08130  0.18820  Biso   1.000  O
  O19      1.0000 0.78960  0.01670  0.15320  Biso   1.000  O
  O20      1.0000 0.77590  0.07890  0.27760  Biso   1.000  O
  Er5      1.0000 0.90956  0.58542  0.31016  Biso   1.000  Er
  Er6      1.0000 0.08414  0.46015  0.34893  Biso   1.000  Er
  Er7      1.0000 0.09594  0.61351  0.18476  Biso   1.000  Er
  Er8      1.0000 0.96626  0.43973  0.15525  Biso   1.000  Er
  S5       1.0000 0.97540  0.38755  0.51682  Biso   1.000  S
  S6       1.0000 0.08684  0.29351  0.22857  Biso   1.000  S
  S7       1.0000 0.88169  0.51419  0.97522  Biso   1.000  S
  S8       1.0000 0.76629  0.46594  0.21734  Biso   1.000  S
  O21      1.0000 0.99790  0.38910  0.43380  Biso   1.000  O
  O22      1.0000 0.05113  0.58960  0.30949  Biso   1.000  O
  O23      1.0000 0.93020  0.45960  0.53670  Biso   1.000  O
  O24      1.0000 0.09128  0.47670  0.21099  Biso   1.000  O
  O25      1.0000 0.92430  0.32030  0.53260  Biso   1.000  O
  O26      1.0000 0.96234  0.57190  0.18136  Biso   1.000  O
  O27      1.0000 0.04860  0.38330  0.56470  Biso   1.000  O
  O28      1.0000 0.95814  0.46025  0.29451  Biso   1.000  O
  O29      1.0000 0.10870  0.33400  0.30170  Biso   1.000  O
  O30      1.0000 0.00660  0.32040  0.20360  Biso   1.000  O
  O31      1.0000 0.14550  0.30990  0.16790  Biso   1.000  O
  O32      1.0000 0.08130  0.20890  0.24300  Biso   1.000  O
  O33      1.0000 0.88970  0.50290  0.05910  Biso   1.000  O
  O34      1.0000 0.80300  0.54670  0.95740  Biso   1.000  O
  O35      1.0000 0.94420  0.56770  0.94740  Biso   1.000  O
  O36      1.0000 0.89270  0.43740  0.93670  Biso   1.000  O
  O37      1.0000 0.79590  0.54010  0.24930  Biso   1.000  O
  O38      1.0000 0.83290  0.41870  0.18820  Biso   1.000  O
  O39      1.0000 0.71040  0.48330  0.15320  Biso   1.000  O
  O40      1.0000 0.72410  0.42110  0.27760  Biso   1.000  O
  Er9      1.0000 0.40956  0.41458  0.18984  Biso   1.000  Er
  Er10     1.0000 0.58414  0.53985  0.15107  Biso   1.000  Er
  Er11     1.0000 0.59594  0.38649  0.31524  Biso   1.000  Er
  Er12     1.0000 0.46626  0.56027  0.34475  Biso   1.000  Er
  S9       1.0000 0.47540  0.61245  0.98318  Biso   1.000  S
  S10      1.0000 0.58684  0.70649  0.27143  Biso   1.000  S
  S11      1.0000 0.38169  0.48581  0.52478  Biso   1.000  S
  S12      1.0000 0.26629  0.53406  0.28266  Biso   1.000  S
  O41      1.0000 0.49790  0.61090  0.06620  Biso   1.000  O
  O42      1.0000 0.55113  0.41040  0.19051  Biso   1.000  O
  O43      1.0000 0.43020  0.54040  0.96330  Biso   1.000  O
  O44      1.0000 0.59128  0.52330  0.28901  Biso   1.000  O
  O45      1.0000 0.42430  0.67970  0.96740  Biso   1.000  O
  O46      1.0000 0.46234  0.42810  0.31864  Biso   1.000  O
  O47      1.0000 0.54860  0.61670  0.93530  Biso   1.000  O
  O48      1.0000 0.45814  0.53975  0.20549  Biso   1.000  O
  O49      1.0000 0.60870  0.66600  0.19830  Biso   1.000  O
  O50      1.0000 0.50660  0.67960  0.29640  Biso   1.000  O
  O51      1.0000 0.64550  0.69010  0.33210  Biso   1.000  O
  O52      1.0000 0.58130  0.79110  0.25700  Biso   1.000  O
  O53      1.0000 0.38970  0.49710  0.44090  Biso   1.000  O
  O54      1.0000 0.30300  0.45330  0.54260  Biso   1.000  O
  O55      1.0000 0.44420  0.43230  0.55260  Biso   1.000  O
  O56      1.0000 0.39270  0.56260  0.56330  Biso   1.000  O
  O57      1.0000 0.29590  0.45990  0.25070  Biso   1.000  O
  O58      1.0000 0.33290  0.58130  0.31180  Biso   1.000  O
  O59      1.0000 0.21040  0.51670  0.34680  Biso   1.000  O
  O60      1.0000 0.22410  0.57890  0.22240  Biso   1.000  O
  Er13     1.0000 0.09044  0.08542  0.18984  Biso   1.000  Er
  Er14     1.0000 0.91586  0.96015  0.15107  Biso   1.000  Er
  Er15     1.0000 0.90406  0.11351  0.31524  Biso   1.000  Er
  Er16     1.0000 0.03374  0.93973  0.34475  Biso   1.000  Er
  S13      1.0000 0.02460  0.88755  0.98318  Biso   1.000  S
  S14      1.0000 0.91316  0.79351  0.27143  Biso   1.000  S
  S15      1.0000 0.11831  0.01419  0.52478  Biso   1.000  S
  S16      1.0000 0.23371  0.96594  0.28266  Biso   1.000  S
  O61      1.0000 0.00210  0.88910  0.06620  Biso   1.000  O
  O62      1.0000 0.94887  0.08960  0.19051  Biso   1.000  O
  O63      1.0000 0.06980  0.95960  0.96330  Biso   1.000  O
  O64      1.0000 0.90872  0.97670  0.28901  Biso   1.000  O
  O65      1.0000 0.07570  0.82030  0.96740  Biso   1.000  O
  O66      1.0000 0.03766  0.07190  0.31864  Biso   1.000  O
  O67      1.0000 0.95140  0.88330  0.93530  Biso   1.000  O
  O68      1.0000 0.04186  0.96025  0.20549  Biso   1.000  O
  O69      1.0000 0.89130  0.83400  0.19830  Biso   1.000  O
  O70      1.0000 0.99340  0.82040  0.29640  Biso   1.000  O
  O71      1.0000 0.85450  0.80990  0.33210  Biso   1.000  O
  O72      1.0000 0.91870  0.70890  0.25700  Biso   1.000  O
  O73      1.0000 0.11030  0.00290  0.44090  Biso   1.000  O
  O74      1.0000 0.19700  0.04670  0.54260  Biso   1.000  O
  O75      1.0000 0.05580  0.06770  0.55260  Biso   1.000  O
  O76      1.0000 0.10730  0.93740  0.56330  Biso   1.000  O
  O77      1.0000 0.20410  0.04010  0.25070  Biso   1.000  O
  O78      1.0000 0.16710  0.91870  0.31180  Biso   1.000  O
  O79      1.0000 0.28960  0.98330  0.34680  Biso   1.000  O
  O80      1.0000 0.27590  0.92110  0.22240  Biso   1.000  O
  Er17     1.0000 0.40956  0.08542  0.68984  Biso   1.000  Er
  Er18     1.0000 0.58414  0.96015  0.65107  Biso   1.000  Er
  Er19     1.0000 0.59594  0.11351  0.81524  Biso   1.000  Er
  Er20     1.0000 0.46626  0.93973  0.84475  Biso   1.000  Er
  S17      1.0000 0.47540  0.88755  0.48318  Biso   1.000  S
  S18      1.0000 0.58684  0.79351  0.77143  Biso   1.000  S
  S19      1.0000 0.38169  0.01419  0.02478  Biso   1.000  S
  S20      1.0000 0.26629  0.96594  0.78266  Biso   1.000  S
  O81      1.0000 0.49790  0.88910  0.56620  Biso   1.000  O
  O82      1.0000 0.55113  0.08960  0.69051  Biso   1.000  O
  O83      1.0000 0.43020  0.95960  0.46330  Biso   1.000  O
  O84      1.0000 0.59128  0.97670  0.78901  Biso   1.000  O
  O85      1.0000 0.42430  0.82030  0.46740  Biso   1.000  O
  O86      1.0000 0.46234  0.07190  0.81864  Biso   1.000  O
  O87      1.0000 0.54860  0.88330  0.43530  Biso   1.000  O
  O88      1.0000 0.45814  0.96025  0.70549  Biso   1.000  O
  O89      1.0000 0.60870  0.83400  0.69830  Biso   1.000  O
  O90      1.0000 0.50660  0.82040  0.79640  Biso   1.000  O
  O91      1.0000 0.64550  0.80990  0.83210  Biso   1.000  O
  O92      1.0000 0.58130  0.70890  0.75700  Biso   1.000  O
  O93      1.0000 0.38970  0.00290  0.94090  Biso   1.000  O
  O94      1.0000 0.30300  0.04670  0.04260  Biso   1.000  O
  O95      1.0000 0.44420  0.06770  0.05260  Biso   1.000  O
  O96      1.0000 0.39270  0.93740  0.06330  Biso   1.000  O
  O97      1.0000 0.29590  0.04010  0.75070  Biso   1.000  O
  O98      1.0000 0.33290  0.91870  0.81180  Biso   1.000  O
  O99      1.0000 0.21040  0.98330  0.84680  Biso   1.000  O
  O100     1.0000 0.22410  0.92110  0.72240  Biso   1.000  O
  Er21     1.0000 0.09044  0.41458  0.68984  Biso   1.000  Er
  Er22     1.0000 0.91586  0.53985  0.65107  Biso   1.000  Er
  Er23     1.0000 0.90406  0.38649  0.81524  Biso   1.000  Er
  Er24     1.0000 0.03374  0.56027  0.84475  Biso   1.000  Er
  S21      1.0000 0.02460  0.61245  0.48318  Biso   1.000  S
  S22      1.0000 0.91316  0.70649  0.77143  Biso   1.000  S
  S23      1.0000 0.11831  0.48581  0.02478  Biso   1.000  S
  S24      1.0000 0.23371  0.53406  0.78266  Biso   1.000  S
  O101     1.0000 0.00210  0.61090  0.56620  Biso   1.000  O
  O102     1.0000 0.94887  0.41040  0.69051  Biso   1.000  O
  O103     1.0000 0.06980  0.54040  0.46330  Biso   1.000  O
  O104     1.0000 0.90872  0.52330  0.78901  Biso   1.000  O
  O105     1.0000 0.07570  0.67970  0.46740  Biso   1.000  O
  O106     1.0000 0.03766  0.42810  0.81864  Biso   1.000  O
  O107     1.0000 0.95140  0.61670  0.43530  Biso   1.000  O
  O108     1.0000 0.04186  0.53975  0.70549  Biso   1.000  O
  O109     1.0000 0.89130  0.66600  0.69830  Biso   1.000  O
  O110     1.0000 0.99340  0.67960  0.79640  Biso   1.000  O
  O111     1.0000 0.85450  0.69010  0.83210  Biso   1.000  O
  O112     1.0000 0.91870  0.79110  0.75700  Biso   1.000  O
  O113     1.0000 0.11030  0.49710  0.94090  Biso   1.000  O
  O114     1.0000 0.19700  0.45330  0.04260  Biso   1.000  O
  O115     1.0000 0.05580  0.43230  0.05260  Biso   1.000  O
  O116     1.0000 0.10730  0.56260  0.06330  Biso   1.000  O
  O117     1.0000 0.20410  0.45990  0.75070  Biso   1.000  O
  O118     1.0000 0.16710  0.58130  0.81180  Biso   1.000  O
  O119     1.0000 0.28960  0.51670  0.84680  Biso   1.000  O
  O120     1.0000 0.27590  0.57890  0.72240  Biso   1.000  O
  Er25     1.0000 0.59044  0.58542  0.81016  Biso   1.000  Er
  Er26     1.0000 0.41586  0.46015  0.84893  Biso   1.000  Er
  Er27     1.0000 0.40406  0.61351  0.68476  Biso   1.000  Er
  Er28     1.0000 0.53374  0.43973  0.65525  Biso   1.000  Er
  S25      1.0000 0.52460  0.38755  0.01682  Biso   1.000  S
  S26      1.0000 0.41316  0.29351  0.72857  Biso   1.000  S
  S27      1.0000 0.61831  0.51419  0.47522  Biso   1.000  S
  S28      1.0000 0.73371  0.46594  0.71734  Biso   1.000  S
  O121     1.0000 0.50210  0.38910  0.93380  Biso   1.000  O
  O122     1.0000 0.44887  0.58960  0.80949  Biso   1.000  O
  O123     1.0000 0.56980  0.45960  0.03670  Biso   1.000  O
  O124     1.0000 0.40872  0.47670  0.71099  Biso   1.000  O
  O125     1.0000 0.57570  0.32030  0.03260  Biso   1.000  O
  O126     1.0000 0.53766  0.57190  0.68136  Biso   1.000  O
  O127     1.0000 0.45140  0.38330  0.06470  Biso   1.000  O
  O128     1.0000 0.54186  0.46025  0.79451  Biso   1.000  O
  O129     1.0000 0.39130  0.33400  0.80170  Biso   1.000  O
  O130     1.0000 0.49340  0.32040  0.70360  Biso   1.000  O
  O131     1.0000 0.35450  0.30990  0.66790  Biso   1.000  O
  O132     1.0000 0.41870  0.20890  0.74300  Biso   1.000  O
  O133     1.0000 0.61030  0.50290  0.55910  Biso   1.000  O
  O134     1.0000 0.69700  0.54670  0.45740  Biso   1.000  O
  O135     1.0000 0.55580  0.56770  0.44740  Biso   1.000  O
  O136     1.0000 0.60730  0.43740  0.43670  Biso   1.000  O
  O137     1.0000 0.70410  0.54010  0.74930  Biso   1.000  O
  O138     1.0000 0.66710  0.41870  0.68820  Biso   1.000  O
  O139     1.0000 0.78960  0.48330  0.65320  Biso   1.000  O
  O140     1.0000 0.77590  0.42110  0.77760  Biso   1.000  O
  Er29     1.0000 0.90956  0.91458  0.81016  Biso   1.000  Er
  Er30     1.0000 0.08414  0.03985  0.84893  Biso   1.000  Er
  Er31     1.0000 0.09594  0.88649  0.68476  Biso   1.000  Er
  Er32     1.0000 0.96626  0.06027  0.65525  Biso   1.000  Er
  S29      1.0000 0.97540  0.11245  0.01682  Biso   1.000  S
  S30      1.0000 0.08684  0.20649  0.72857  Biso   1.000  S
  S31      1.0000 0.88169  0.98581  0.47522  Biso   1.000  S
  S32      1.0000 0.76629  0.03406  0.71734  Biso   1.000  S
  O141     1.0000 0.99790  0.11090  0.93380  Biso   1.000  O
  O142     1.0000 0.05113  0.91040  0.80949  Biso   1.000  O
  O143     1.0000 0.93020  0.04040  0.03670  Biso   1.000  O
  O144     1.0000 0.09128  0.02330  0.71099  Biso   1.000  O
  O145     1.0000 0.92430  0.17970  0.03260  Biso   1.000  O
  O146     1.0000 0.96234  0.92810  0.68136  Biso   1.000  O
  O147     1.0000 0.04860  0.11670  0.06470  Biso   1.000  O
  O148     1.0000 0.95814  0.03975  0.79451  Biso   1.000  O
  O149     1.0000 0.10870  0.16600  0.80170  Biso   1.000  O
  O150     1.0000 0.00660  0.17960  0.70360  Biso   1.000  O
  O151     1.0000 0.14550  0.19010  0.66790  Biso   1.000  O
  O152     1.0000 0.08130  0.29110  0.74300  Biso   1.000  O
  O153     1.0000 0.88970  0.99710  0.55910  Biso   1.000  O
  O154     1.0000 0.80300  0.95330  0.45740  Biso   1.000  O
  O155     1.0000 0.94420  0.93230  0.44740  Biso   1.000  O
  O156     1.0000 0.89270  0.06260  0.43670  Biso   1.000  O
  O157     1.0000 0.79590  0.95990  0.74930  Biso   1.000  O
  O158     1.0000 0.83290  0.08130  0.68820  Biso   1.000  O
  O159     1.0000 0.71040  0.01670  0.65320  Biso   1.000  O
  O160     1.0000 0.72410  0.07890  0.77760  Biso   1.000  O
