data_image0
_cell_length_a       13.516
_cell_length_b       13.516
_cell_length_c       8.0533
_cell_angle_alpha    90
_cell_angle_beta     90
_cell_angle_gamma    120

_symmetry_space_group_name_H-M    "P 1"
_symmetry_int_tables_number       1

loop_
  _symmetry_equiv_pos_as_xyz
  'x, y, z'

loop_
  _atom_site_label
  _atom_site_occupancy
  _atom_site_fract_x
  _atom_site_fract_y
  _atom_site_fract_z
  _atom_site_thermal_displace_type
  _atom_site_B_iso_or_equiv
  _atom_site_type_symbol
  Mn1      1.0000 0.30163  0.33841  0.54518  Biso   1.000  Mn
  O1       1.0000 0.22904  0.18140  0.40550  Biso   1.000  O
  C1       1.0000 0.53450  0.32271  0.54860  Biso   1.000  C
  C2       1.0000 0.35370  0.56000  0.77710  Biso   1.000  C
  O2       1.0000 0.24483  0.05813  0.24590  Biso   1.000  O
  C3       1.0000 0.26710  0.15800  0.27930  Biso   1.000  C
  N1       1.0000 0.34730  0.20900  0.99960  Biso   1.000  N
  H1       1.0000 0.41180  0.25700  0.94480  Biso   1.000  H
  H2       1.0000 0.28700  0.19900  0.93900  Biso   1.000  H
  C4       1.0000 0.34580  0.25500  0.16330  Biso   1.000  C
  H3       1.0000 0.42320  0.28720  0.20850  Biso   1.000  H
  N2       1.0000 0.36630  0.42809  0.30260  Biso   1.000  N
  H4       1.0000 0.34860  0.48390  0.29480  Biso   1.000  H
  H5       1.0000 0.44290  0.46130  0.30140  Biso   1.000  H
  C5       1.0000 0.32010  0.35330  0.15560  Biso   1.000  C
  H6       1.0000 0.35370  0.39780  0.05590  Biso   1.000  H
  H7       1.0000 0.23810  0.32230  0.15020  Biso   1.000  H
  N3       1.0000 0.45540  0.32130  0.60370  Biso   1.000  N
  N4       1.0000 0.36780  0.50000  0.69130  Biso   1.000  N
  Mn2      1.0000 0.66159  0.96322  0.54518  Biso   1.000  Mn
  O3       1.0000 0.81860  0.04764  0.40550  Biso   1.000  O
  C6       1.0000 0.67729  0.21179  0.54860  Biso   1.000  C
  C7       1.0000 0.44000  0.79370  0.77710  Biso   1.000  C
  O4       1.0000 0.94187  0.18670  0.24590  Biso   1.000  O
  C8       1.0000 0.84200  0.10910  0.27930  Biso   1.000  C
  N5       1.0000 0.79100  0.13830  0.99960  Biso   1.000  N
  H8       1.0000 0.74300  0.15480  0.94480  Biso   1.000  H
  H9       1.0000 0.80100  0.08800  0.93900  Biso   1.000  H
  C9       1.0000 0.74500  0.09080  0.16330  Biso   1.000  C
  H10      1.0000 0.71280  0.13600  0.20850  Biso   1.000  H
  N6       1.0000 0.57191  0.93821  0.30260  Biso   1.000  N
  H11      1.0000 0.51610  0.86470  0.29480  Biso   1.000  H
  H12      1.0000 0.53870  0.98160  0.30140  Biso   1.000  H
  C10      1.0000 0.64670  0.96680  0.15560  Biso   1.000  C
  H13      1.0000 0.60220  0.95590  0.05590  Biso   1.000  H
  H14      1.0000 0.67770  0.91580  0.15020  Biso   1.000  H
  N7       1.0000 0.67870  0.13410  0.60370  Biso   1.000  N
  N8       1.0000 0.50000  0.86780  0.69130  Biso   1.000  N
  Mn3      1.0000 0.03678  0.69837  0.54518  Biso   1.000  Mn
  O5       1.0000 0.95236  0.77096  0.40550  Biso   1.000  O
  C11      1.0000 0.78821  0.46550  0.54860  Biso   1.000  C
  C12      1.0000 0.20630  0.64630  0.77710  Biso   1.000  C
  O6       1.0000 0.81330  0.75517  0.24590  Biso   1.000  O
  C13      1.0000 0.89090  0.73290  0.27930  Biso   1.000  C
  N9       1.0000 0.86170  0.65270  0.99960  Biso   1.000  N
  H15      1.0000 0.84520  0.58820  0.94480  Biso   1.000  H
  H16      1.0000 0.91200  0.71300  0.93900  Biso   1.000  H
  C14      1.0000 0.90920  0.65420  0.16330  Biso   1.000  C
  H17      1.0000 0.86400  0.57680  0.20850  Biso   1.000  H
  N10      1.0000 0.06179  0.63370  0.30260  Biso   1.000  N
  H18      1.0000 0.13530  0.65140  0.29480  Biso   1.000  H
  H19      1.0000 0.01840  0.55710  0.30140  Biso   1.000  H
  C15      1.0000 0.03320  0.67990  0.15560  Biso   1.000  C
  H20      1.0000 0.04410  0.64630  0.05590  Biso   1.000  H
  H21      1.0000 0.08420  0.76190  0.15020  Biso   1.000  H
  N11      1.0000 0.86590  0.54460  0.60370  Biso   1.000  N
  N12      1.0000 0.13220  0.63220  0.69130  Biso   1.000  N
  Mn4      1.0000 0.69837  0.66159  0.04518  Biso   1.000  Mn
  O7       1.0000 0.77096  0.81860  0.90550  Biso   1.000  O
  C16      1.0000 0.46550  0.67729  0.04860  Biso   1.000  C
  C17      1.0000 0.64630  0.44000  0.27710  Biso   1.000  C
  O8       1.0000 0.75517  0.94187  0.74590  Biso   1.000  O
  C18      1.0000 0.73290  0.84200  0.77930  Biso   1.000  C
  N13      1.0000 0.65270  0.79100  0.49960  Biso   1.000  N
  H22      1.0000 0.58820  0.74300  0.44480  Biso   1.000  H
  H23      1.0000 0.71300  0.80100  0.43900  Biso   1.000  H
  C19      1.0000 0.65420  0.74500  0.66330  Biso   1.000  C
  H24      1.0000 0.57680  0.71280  0.70850  Biso   1.000  H
  N14      1.0000 0.63370  0.57191  0.80260  Biso   1.000  N
  H25      1.0000 0.65140  0.51610  0.79480  Biso   1.000  H
  H26      1.0000 0.55710  0.53870  0.80140  Biso   1.000  H
  C20      1.0000 0.67990  0.64670  0.65560  Biso   1.000  C
  H27      1.0000 0.64630  0.60220  0.55590  Biso   1.000  H
  H28      1.0000 0.76190  0.67770  0.65020  Biso   1.000  H
  N15      1.0000 0.54460  0.67870  0.10370  Biso   1.000  N
  N16      1.0000 0.63220  0.50000  0.19130  Biso   1.000  N
  Mn5      1.0000 0.33841  0.03678  0.04518  Biso   1.000  Mn
  O9       1.0000 0.18140  0.95236  0.90550  Biso   1.000  O
  C21      1.0000 0.32271  0.78821  0.04860  Biso   1.000  C
  C22      1.0000 0.56000  0.20630  0.27710  Biso   1.000  C
  O10      1.0000 0.05813  0.81330  0.74590  Biso   1.000  O
  C23      1.0000 0.15800  0.89090  0.77930  Biso   1.000  C
  N17      1.0000 0.20900  0.86170  0.49960  Biso   1.000  N
  H29      1.0000 0.25700  0.84520  0.44480  Biso   1.000  H
  H30      1.0000 0.19900  0.91200  0.43900  Biso   1.000  H
  C24      1.0000 0.25500  0.90920  0.66330  Biso   1.000  C
  H31      1.0000 0.28720  0.86400  0.70850  Biso   1.000  H
  N18      1.0000 0.42809  0.06179  0.80260  Biso   1.000  N
  H32      1.0000 0.48390  0.13530  0.79480  Biso   1.000  H
  H33      1.0000 0.46130  0.01840  0.80140  Biso   1.000  H
  C25      1.0000 0.35330  0.03320  0.65560  Biso   1.000  C
  H34      1.0000 0.39780  0.04410  0.55590  Biso   1.000  H
  H35      1.0000 0.32230  0.08420  0.65020  Biso   1.000  H
  N19      1.0000 0.32130  0.86590  0.10370  Biso   1.000  N
  N20      1.0000 0.50000  0.13220  0.19130  Biso   1.000  N
  Mn6      1.0000 0.96322  0.30163  0.04518  Biso   1.000  Mn
  O11      1.0000 0.04764  0.22904  0.90550  Biso   1.000  O
  C26      1.0000 0.21179  0.53450  0.04860  Biso   1.000  C
  C27      1.0000 0.79370  0.35370  0.27710  Biso   1.000  C
  O12      1.0000 0.18670  0.24483  0.74590  Biso   1.000  O
  C28      1.0000 0.10910  0.26710  0.77930  Biso   1.000  C
  N21      1.0000 0.13830  0.34730  0.49960  Biso   1.000  N
  H36      1.0000 0.15480  0.41180  0.44480  Biso   1.000  H
  H37      1.0000 0.08800  0.28700  0.43900  Biso   1.000  H
  C29      1.0000 0.09080  0.34580  0.66330  Biso   1.000  C
  H38      1.0000 0.13600  0.42320  0.70850  Biso   1.000  H
  N22      1.0000 0.93821  0.36630  0.80260  Biso   1.000  N
  H39      1.0000 0.86470  0.34860  0.79480  Biso   1.000  H
  H40      1.0000 0.98160  0.44290  0.80140  Biso   1.000  H
  C30      1.0000 0.96680  0.32010  0.65560  Biso   1.000  C
  H41      1.0000 0.95590  0.35370  0.55590  Biso   1.000  H
  H42      1.0000 0.91580  0.23810  0.65020  Biso   1.000  H
  N23      1.0000 0.13410  0.45540  0.10370  Biso   1.000  N
  N24      1.0000 0.86780  0.36780  0.19130  Biso   1.000  N
  Mn7      1.0000 0.33333  0.66667  0.92263  Biso   1.000  Mn
  Mn8      1.0000 0.66667  0.33333  0.42263  Biso   1.000  Mn
