data_image0
_cell_length_a       13.5293
_cell_length_b       13.5293
_cell_length_c       8.0707
_cell_angle_alpha    90
_cell_angle_beta     90
_cell_angle_gamma    120

_symmetry_space_group_name_H-M    "P 1"
_symmetry_int_tables_number       1

loop_
  _symmetry_equiv_pos_as_xyz
  'x, y, z'

loop_
  _atom_site_label
  _atom_site_occupancy
  _atom_site_fract_x
  _atom_site_fract_y
  _atom_site_fract_z
  _atom_site_thermal_displace_type
  _atom_site_B_iso_or_equiv
  _atom_site_type_symbol
  Mn1      1.0000 0.30199  0.33804  0.54555  Biso   1.000  Mn
  O1       1.0000 0.23050  0.18151  0.40740  Biso   1.000  O
  C1       1.0000 0.53510  0.32270  0.54880  Biso   1.000  C
  C2       1.0000 0.35390  0.56000  0.77600  Biso   1.000  C
  O2       1.0000 0.24620  0.05810  0.24740  Biso   1.000  O
  C3       1.0000 0.26780  0.15740  0.28110  Biso   1.000  C
  N1       1.0000 0.34620  0.20800  0.00060  Biso   1.000  N
  H1       1.0000 0.41020  0.25600  0.94520  Biso   1.000  H
  H2       1.0000 0.28550  0.19780  0.94110  Biso   1.000  H
  C4       1.0000 0.34570  0.25410  0.16410  Biso   1.000  C
  H3       1.0000 0.42330  0.28650  0.20800  Biso   1.000  H
  N2       1.0000 0.36620  0.42740  0.30230  Biso   1.000  N
  H4       1.0000 0.34880  0.48330  0.29440  Biso   1.000  H
  H5       1.0000 0.44280  0.46040  0.30050  Biso   1.000  H
  C5       1.0000 0.31930  0.35210  0.15720  Biso   1.000  C
  H6       1.0000 0.35180  0.39620  0.05700  Biso   1.000  H
  H7       1.0000 0.23740  0.32080  0.15330  Biso   1.000  H
  N3       1.0000 0.45630  0.32130  0.60470  Biso   1.000  N
  N4       1.0000 0.36820  0.50060  0.69010  Biso   1.000  N
  Mn2      1.0000 0.66196  0.96395  0.54555  Biso   1.000  Mn
  O3       1.0000 0.81849  0.04899  0.40740  Biso   1.000  O
  C6       1.0000 0.67730  0.21240  0.54880  Biso   1.000  C
  C7       1.0000 0.44000  0.79390  0.77600  Biso   1.000  C
  O4       1.0000 0.94190  0.18810  0.24740  Biso   1.000  O
  C8       1.0000 0.84260  0.11040  0.28110  Biso   1.000  C
  N5       1.0000 0.79200  0.13820  0.00060  Biso   1.000  N
  H8       1.0000 0.74400  0.15420  0.94520  Biso   1.000  H
  H9       1.0000 0.80220  0.08770  0.94110  Biso   1.000  H
  C9       1.0000 0.74590  0.09160  0.16410  Biso   1.000  C
  H10      1.0000 0.71350  0.13680  0.20800  Biso   1.000  H
  N6       1.0000 0.57260  0.93880  0.30230  Biso   1.000  N
  H11      1.0000 0.51670  0.86550  0.29440  Biso   1.000  H
  H12      1.0000 0.53960  0.98240  0.30050  Biso   1.000  H
  C10      1.0000 0.64790  0.96720  0.15720  Biso   1.000  C
  H13      1.0000 0.60380  0.95560  0.05700  Biso   1.000  H
  H14      1.0000 0.67920  0.91660  0.15330  Biso   1.000  H
  N7       1.0000 0.67870  0.13500  0.60470  Biso   1.000  N
  N8       1.0000 0.49940  0.86760  0.69010  Biso   1.000  N
  Mn3      1.0000 0.03605  0.69801  0.54555  Biso   1.000  Mn
  O5       1.0000 0.95101  0.76950  0.40740  Biso   1.000  O
  C11      1.0000 0.78760  0.46490  0.54880  Biso   1.000  C
  C12      1.0000 0.20610  0.64610  0.77600  Biso   1.000  C
  O6       1.0000 0.81190  0.75380  0.24740  Biso   1.000  O
  C13      1.0000 0.88960  0.73220  0.28110  Biso   1.000  C
  N9       1.0000 0.86180  0.65380  0.00060  Biso   1.000  N
  H15      1.0000 0.84580  0.58980  0.94520  Biso   1.000  H
  H16      1.0000 0.91230  0.71450  0.94110  Biso   1.000  H
  C14      1.0000 0.90840  0.65430  0.16410  Biso   1.000  C
  H17      1.0000 0.86320  0.57670  0.20800  Biso   1.000  H
  N10      1.0000 0.06120  0.63380  0.30230  Biso   1.000  N
  H18      1.0000 0.13450  0.65120  0.29440  Biso   1.000  H
  H19      1.0000 0.01760  0.55720  0.30050  Biso   1.000  H
  C15      1.0000 0.03280  0.68070  0.15720  Biso   1.000  C
  H20      1.0000 0.04440  0.64820  0.05700  Biso   1.000  H
  H21      1.0000 0.08340  0.76260  0.15330  Biso   1.000  H
  N11      1.0000 0.86500  0.54370  0.60470  Biso   1.000  N
  N12      1.0000 0.13240  0.63180  0.69010  Biso   1.000  N
  Mn4      1.0000 0.69801  0.66196  0.04555  Biso   1.000  Mn
  O7       1.0000 0.76950  0.81849  0.90740  Biso   1.000  O
  C16      1.0000 0.46490  0.67730  0.04880  Biso   1.000  C
  C17      1.0000 0.64610  0.44000  0.27600  Biso   1.000  C
  O8       1.0000 0.75380  0.94190  0.74740  Biso   1.000  O
  C18      1.0000 0.73220  0.84260  0.78110  Biso   1.000  C
  N13      1.0000 0.65380  0.79200  0.50060  Biso   1.000  N
  H22      1.0000 0.58980  0.74400  0.44520  Biso   1.000  H
  H23      1.0000 0.71450  0.80220  0.44110  Biso   1.000  H
  C19      1.0000 0.65430  0.74590  0.66410  Biso   1.000  C
  H24      1.0000 0.57670  0.71350  0.70800  Biso   1.000  H
  N14      1.0000 0.63380  0.57260  0.80230  Biso   1.000  N
  H25      1.0000 0.65120  0.51670  0.79440  Biso   1.000  H
  H26      1.0000 0.55720  0.53960  0.80050  Biso   1.000  H
  C20      1.0000 0.68070  0.64790  0.65720  Biso   1.000  C
  H27      1.0000 0.64820  0.60380  0.55700  Biso   1.000  H
  H28      1.0000 0.76260  0.67920  0.65330  Biso   1.000  H
  N15      1.0000 0.54370  0.67870  0.10470  Biso   1.000  N
  N16      1.0000 0.63180  0.49940  0.19010  Biso   1.000  N
  Mn5      1.0000 0.33804  0.03605  0.04555  Biso   1.000  Mn
  O9       1.0000 0.18151  0.95101  0.90740  Biso   1.000  O
  C21      1.0000 0.32270  0.78760  0.04880  Biso   1.000  C
  C22      1.0000 0.56000  0.20610  0.27600  Biso   1.000  C
  O10      1.0000 0.05810  0.81190  0.74740  Biso   1.000  O
  C23      1.0000 0.15740  0.88960  0.78110  Biso   1.000  C
  N17      1.0000 0.20800  0.86180  0.50060  Biso   1.000  N
  H29      1.0000 0.25600  0.84580  0.44520  Biso   1.000  H
  H30      1.0000 0.19780  0.91230  0.44110  Biso   1.000  H
  C24      1.0000 0.25410  0.90840  0.66410  Biso   1.000  C
  H31      1.0000 0.28650  0.86320  0.70800  Biso   1.000  H
  N18      1.0000 0.42740  0.06120  0.80230  Biso   1.000  N
  H32      1.0000 0.48330  0.13450  0.79440  Biso   1.000  H
  H33      1.0000 0.46040  0.01760  0.80050  Biso   1.000  H
  C25      1.0000 0.35210  0.03280  0.65720  Biso   1.000  C
  H34      1.0000 0.39620  0.04440  0.55700  Biso   1.000  H
  H35      1.0000 0.32080  0.08340  0.65330  Biso   1.000  H
  N19      1.0000 0.32130  0.86500  0.10470  Biso   1.000  N
  N20      1.0000 0.50060  0.13240  0.19010  Biso   1.000  N
  Mn6      1.0000 0.96395  0.30199  0.04555  Biso   1.000  Mn
  O11      1.0000 0.04899  0.23050  0.90740  Biso   1.000  O
  C26      1.0000 0.21240  0.53510  0.04880  Biso   1.000  C
  C27      1.0000 0.79390  0.35390  0.27600  Biso   1.000  C
  O12      1.0000 0.18810  0.24620  0.74740  Biso   1.000  O
  C28      1.0000 0.11040  0.26780  0.78110  Biso   1.000  C
  N21      1.0000 0.13820  0.34620  0.50060  Biso   1.000  N
  H36      1.0000 0.15420  0.41020  0.44520  Biso   1.000  H
  H37      1.0000 0.08770  0.28550  0.44110  Biso   1.000  H
  C29      1.0000 0.09160  0.34570  0.66410  Biso   1.000  C
  H38      1.0000 0.13680  0.42330  0.70800  Biso   1.000  H
  N22      1.0000 0.93880  0.36620  0.80230  Biso   1.000  N
  H39      1.0000 0.86550  0.34880  0.79440  Biso   1.000  H
  H40      1.0000 0.98240  0.44280  0.80050  Biso   1.000  H
  C30      1.0000 0.96720  0.31930  0.65720  Biso   1.000  C
  H41      1.0000 0.95560  0.35180  0.55700  Biso   1.000  H
  H42      1.0000 0.91660  0.23740  0.65330  Biso   1.000  H
  N23      1.0000 0.13500  0.45630  0.10470  Biso   1.000  N
  N24      1.0000 0.86760  0.36820  0.19010  Biso   1.000  N
  Mn7      1.0000 0.33333  0.66667  0.92128  Biso   1.000  Mn
  Mn8      1.0000 0.66667  0.33333  0.42128  Biso   1.000  Mn
