data_image0
_cell_length_a       13.5105
_cell_length_b       13.5105
_cell_length_c       8.0463
_cell_angle_alpha    90
_cell_angle_beta     90
_cell_angle_gamma    120

_symmetry_space_group_name_H-M    "P 1"
_symmetry_int_tables_number       1

loop_
  _symmetry_equiv_pos_as_xyz
  'x, y, z'

loop_
  _atom_site_label
  _atom_site_occupancy
  _atom_site_fract_x
  _atom_site_fract_y
  _atom_site_fract_z
  _atom_site_thermal_displace_type
  _atom_site_B_iso_or_equiv
  _atom_site_type_symbol
  Mn1      1.0000 0.30249  0.33811  0.95433  Biso   1.000  Mn
  O1       1.0000 0.22935  0.18085  0.09350  Biso   1.000  O
  C1       1.0000 0.53506  0.32246  0.95120  Biso   1.000  C
  C2       1.0000 0.35410  0.55990  0.72370  Biso   1.000  C
  O2       1.0000 0.24407  0.05720  0.25410  Biso   1.000  O
  C3       1.0000 0.26690  0.15740  0.21990  Biso   1.000  C
  N1       1.0000 0.34660  0.20800  0.50020  Biso   1.000  N
  H1       1.0000 0.28610  0.19780  0.56060  Biso   1.000  H
  H2       1.0000 0.41100  0.25600  0.55540  Biso   1.000  H
  C4       1.0000 0.34550  0.25420  0.33610  Biso   1.000  C
  H3       1.0000 0.42300  0.28640  0.29120  Biso   1.000  H
  N2       1.0000 0.36680  0.42757  0.19800  Biso   1.000  N
  H4       1.0000 0.44350  0.46040  0.19980  Biso   1.000  H
  H5       1.0000 0.34960  0.48370  0.20560  Biso   1.000  H
  C5       1.0000 0.31970  0.35240  0.34450  Biso   1.000  C
  H6       1.0000 0.23770  0.32150  0.34920  Biso   1.000  H
  H7       1.0000 0.35290  0.39660  0.44490  Biso   1.000  H
  N3       1.0000 0.45590  0.32080  0.89390  Biso   1.000  N
  N4       1.0000 0.36840  0.50000  0.81000  Biso   1.000  N
  Mn2      1.0000 0.66189  0.96438  0.95433  Biso   1.000  Mn
  O3       1.0000 0.81915  0.04850  0.09350  Biso   1.000  O
  C6       1.0000 0.67754  0.21260  0.95120  Biso   1.000  C
  C7       1.0000 0.44010  0.79420  0.72370  Biso   1.000  C
  O4       1.0000 0.94280  0.18687  0.25410  Biso   1.000  O
  C8       1.0000 0.84260  0.10950  0.21990  Biso   1.000  C
  N5       1.0000 0.79200  0.13860  0.50020  Biso   1.000  N
  H8       1.0000 0.80220  0.08830  0.56060  Biso   1.000  H
  H9       1.0000 0.74400  0.15500  0.55540  Biso   1.000  H
  C9       1.0000 0.74580  0.09130  0.33610  Biso   1.000  C
  H10      1.0000 0.71360  0.13660  0.29120  Biso   1.000  H
  N6       1.0000 0.57243  0.93923  0.19800  Biso   1.000  N
  H11      1.0000 0.53960  0.98310  0.19980  Biso   1.000  H
  H12      1.0000 0.51630  0.86590  0.20560  Biso   1.000  H
  C10      1.0000 0.64760  0.96730  0.34450  Biso   1.000  C
  H13      1.0000 0.67850  0.91620  0.34920  Biso   1.000  H
  H14      1.0000 0.60340  0.95630  0.44490  Biso   1.000  H
  N7       1.0000 0.67920  0.13510  0.89390  Biso   1.000  N
  N8       1.0000 0.50000  0.86840  0.81000  Biso   1.000  N
  Mn3      1.0000 0.03562  0.69751  0.95433  Biso   1.000  Mn
  O5       1.0000 0.95150  0.77065  0.09350  Biso   1.000  O
  C11      1.0000 0.78740  0.46494  0.95120  Biso   1.000  C
  C12      1.0000 0.20580  0.64590  0.72370  Biso   1.000  C
  O6       1.0000 0.81313  0.75593  0.25410  Biso   1.000  O
  C13      1.0000 0.89050  0.73310  0.21990  Biso   1.000  C
  N9       1.0000 0.86140  0.65340  0.50020  Biso   1.000  N
  H15      1.0000 0.91170  0.71390  0.56060  Biso   1.000  H
  H16      1.0000 0.84500  0.58900  0.55540  Biso   1.000  H
  C14      1.0000 0.90870  0.65450  0.33610  Biso   1.000  C
  H17      1.0000 0.86340  0.57700  0.29120  Biso   1.000  H
  N10      1.0000 0.06077  0.63320  0.19800  Biso   1.000  N
  H18      1.0000 0.01690  0.55650  0.19980  Biso   1.000  H
  H19      1.0000 0.13410  0.65040  0.20560  Biso   1.000  H
  C15      1.0000 0.03270  0.68030  0.34450  Biso   1.000  C
  H20      1.0000 0.08380  0.76230  0.34920  Biso   1.000  H
  H21      1.0000 0.04370  0.64710  0.44490  Biso   1.000  H
  N11      1.0000 0.86490  0.54410  0.89390  Biso   1.000  N
  N12      1.0000 0.13160  0.63160  0.81000  Biso   1.000  N
  Mn4      1.0000 0.69751  0.66189  0.45433  Biso   1.000  Mn
  O7       1.0000 0.77065  0.81915  0.59350  Biso   1.000  O
  C16      1.0000 0.46494  0.67754  0.45120  Biso   1.000  C
  C17      1.0000 0.64590  0.44010  0.22370  Biso   1.000  C
  O8       1.0000 0.75593  0.94280  0.75410  Biso   1.000  O
  C18      1.0000 0.73310  0.84260  0.71990  Biso   1.000  C
  N13      1.0000 0.65340  0.79200  0.00020  Biso   1.000  N
  H22      1.0000 0.71390  0.80220  0.06060  Biso   1.000  H
  H23      1.0000 0.58900  0.74400  0.05540  Biso   1.000  H
  C19      1.0000 0.65450  0.74580  0.83610  Biso   1.000  C
  H24      1.0000 0.57700  0.71360  0.79120  Biso   1.000  H
  N14      1.0000 0.63320  0.57243  0.69800  Biso   1.000  N
  H25      1.0000 0.55650  0.53960  0.69980  Biso   1.000  H
  H26      1.0000 0.65040  0.51630  0.70560  Biso   1.000  H
  C20      1.0000 0.68030  0.64760  0.84450  Biso   1.000  C
  H27      1.0000 0.76230  0.67850  0.84920  Biso   1.000  H
  H28      1.0000 0.64710  0.60340  0.94490  Biso   1.000  H
  N15      1.0000 0.54410  0.67920  0.39390  Biso   1.000  N
  N16      1.0000 0.63160  0.50000  0.31000  Biso   1.000  N
  Mn5      1.0000 0.33811  0.03562  0.45433  Biso   1.000  Mn
  O9       1.0000 0.18085  0.95150  0.59350  Biso   1.000  O
  C21      1.0000 0.32246  0.78740  0.45120  Biso   1.000  C
  C22      1.0000 0.55990  0.20580  0.22370  Biso   1.000  C
  O10      1.0000 0.05720  0.81313  0.75410  Biso   1.000  O
  C23      1.0000 0.15740  0.89050  0.71990  Biso   1.000  C
  N17      1.0000 0.20800  0.86140  0.00020  Biso   1.000  N
  H29      1.0000 0.19780  0.91170  0.06060  Biso   1.000  H
  H30      1.0000 0.25600  0.84500  0.05540  Biso   1.000  H
  C24      1.0000 0.25420  0.90870  0.83610  Biso   1.000  C
  H31      1.0000 0.28640  0.86340  0.79120  Biso   1.000  H
  N18      1.0000 0.42757  0.06077  0.69800  Biso   1.000  N
  H32      1.0000 0.46040  0.01690  0.69980  Biso   1.000  H
  H33      1.0000 0.48370  0.13410  0.70560  Biso   1.000  H
  C25      1.0000 0.35240  0.03270  0.84450  Biso   1.000  C
  H34      1.0000 0.32150  0.08380  0.84920  Biso   1.000  H
  H35      1.0000 0.39660  0.04370  0.94490  Biso   1.000  H
  N19      1.0000 0.32080  0.86490  0.39390  Biso   1.000  N
  N20      1.0000 0.50000  0.13160  0.31000  Biso   1.000  N
  Mn6      1.0000 0.96438  0.30249  0.45433  Biso   1.000  Mn
  O11      1.0000 0.04850  0.22935  0.59350  Biso   1.000  O
  C26      1.0000 0.21260  0.53506  0.45120  Biso   1.000  C
  C27      1.0000 0.79420  0.35410  0.22370  Biso   1.000  C
  O12      1.0000 0.18687  0.24407  0.75410  Biso   1.000  O
  C28      1.0000 0.10950  0.26690  0.71990  Biso   1.000  C
  N21      1.0000 0.13860  0.34660  0.00020  Biso   1.000  N
  H36      1.0000 0.08830  0.28610  0.06060  Biso   1.000  H
  H37      1.0000 0.15500  0.41100  0.05540  Biso   1.000  H
  C29      1.0000 0.09130  0.34550  0.83610  Biso   1.000  C
  H38      1.0000 0.13660  0.42300  0.79120  Biso   1.000  H
  N22      1.0000 0.93923  0.36680  0.69800  Biso   1.000  N
  H39      1.0000 0.98310  0.44350  0.69980  Biso   1.000  H
  H40      1.0000 0.86590  0.34960  0.70560  Biso   1.000  H
  C30      1.0000 0.96730  0.31970  0.84450  Biso   1.000  C
  H41      1.0000 0.91620  0.23770  0.84920  Biso   1.000  H
  H42      1.0000 0.95630  0.35290  0.94490  Biso   1.000  H
  N23      1.0000 0.13510  0.45590  0.39390  Biso   1.000  N
  N24      1.0000 0.86840  0.36840  0.31000  Biso   1.000  N
  Mn7      1.0000 0.33333  0.66667  0.57877  Biso   1.000  Mn
  Mn8      1.0000 0.66667  0.33333  0.07877  Biso   1.000  Mn
