data_image0
_cell_length_a       13.5274
_cell_length_b       13.5274
_cell_length_c       8.0726
_cell_angle_alpha    90
_cell_angle_beta     90
_cell_angle_gamma    120

_symmetry_space_group_name_H-M    "P 1"
_symmetry_int_tables_number       1

loop_
  _symmetry_equiv_pos_as_xyz
  'x, y, z'

loop_
  _atom_site_label
  _atom_site_occupancy
  _atom_site_fract_x
  _atom_site_fract_y
  _atom_site_fract_z
  _atom_site_thermal_displace_type
  _atom_site_B_iso_or_equiv
  _atom_site_type_symbol
  Mn1      1.0000 0.30132  0.33822  0.54516  Biso   1.000  Mn
  O1       1.0000 0.22957  0.18151  0.40610  Biso   1.000  O
  C1       1.0000 0.53477  0.32292  0.54850  Biso   1.000  C
  C2       1.0000 0.35367  0.55980  0.77660  Biso   1.000  C
  O2       1.0000 0.24563  0.05844  0.24650  Biso   1.000  O
  C3       1.0000 0.26730  0.15800  0.28010  Biso   1.000  C
  N1       1.0000 0.34690  0.20880  0.00010  Biso   1.000  N
  H1       1.0000 0.41120  0.25680  0.94530  Biso   1.000  H
  H2       1.0000 0.28660  0.19880  0.93980  Biso   1.000  H
  C4       1.0000 0.34560  0.25500  0.16380  Biso   1.000  C
  H3       1.0000 0.42310  0.28730  0.20850  Biso   1.000  H
  N2       1.0000 0.36593  0.42779  0.30290  Biso   1.000  N
  H4       1.0000 0.34840  0.48370  0.29520  Biso   1.000  H
  H5       1.0000 0.44250  0.46090  0.30170  Biso   1.000  H
  C5       1.0000 0.31970  0.35310  0.15640  Biso   1.000  C
  H6       1.0000 0.35310  0.39760  0.05690  Biso   1.000  H
  H7       1.0000 0.23780  0.32200  0.15120  Biso   1.000  H
  N3       1.0000 0.45550  0.32150  0.60310  Biso   1.000  N
  N4       1.0000 0.36780  0.50010  0.69190  Biso   1.000  N
  Mn2      1.0000 0.66178  0.96310  0.54516  Biso   1.000  Mn
  O3       1.0000 0.81849  0.04806  0.40610  Biso   1.000  O
  C6       1.0000 0.67708  0.21185  0.54850  Biso   1.000  C
  C7       1.0000 0.44020  0.79387  0.77660  Biso   1.000  C
  O4       1.0000 0.94156  0.18719  0.24650  Biso   1.000  O
  C8       1.0000 0.84200  0.10930  0.28010  Biso   1.000  C
  N5       1.0000 0.79120  0.13810  0.00010  Biso   1.000  N
  H8       1.0000 0.74320  0.15440  0.94530  Biso   1.000  H
  H9       1.0000 0.80120  0.08780  0.93980  Biso   1.000  H
  C9       1.0000 0.74500  0.09060  0.16380  Biso   1.000  C
  H10      1.0000 0.71270  0.13580  0.20850  Biso   1.000  H
  N6       1.0000 0.57221  0.93814  0.30290  Biso   1.000  N
  H11      1.0000 0.51630  0.86470  0.29520  Biso   1.000  H
  H12      1.0000 0.53910  0.98160  0.30170  Biso   1.000  H
  C10      1.0000 0.64690  0.96660  0.15640  Biso   1.000  C
  H13      1.0000 0.60240  0.95550  0.05690  Biso   1.000  H
  H14      1.0000 0.67800  0.91580  0.15120  Biso   1.000  H
  N7       1.0000 0.67850  0.13400  0.60310  Biso   1.000  N
  N8       1.0000 0.49990  0.86770  0.69190  Biso   1.000  N
  Mn3      1.0000 0.03690  0.69868  0.54516  Biso   1.000  Mn
  O5       1.0000 0.95194  0.77043  0.40610  Biso   1.000  O
  C11      1.0000 0.78815  0.46523  0.54850  Biso   1.000  C
  C12      1.0000 0.20613  0.64633  0.77660  Biso   1.000  C
  O6       1.0000 0.81281  0.75437  0.24650  Biso   1.000  O
  C13      1.0000 0.89070  0.73270  0.28010  Biso   1.000  C
  N9       1.0000 0.86190  0.65310  0.00010  Biso   1.000  N
  H15      1.0000 0.84560  0.58880  0.94530  Biso   1.000  H
  H16      1.0000 0.91220  0.71340  0.93980  Biso   1.000  H
  C14      1.0000 0.90940  0.65440  0.16380  Biso   1.000  C
  H17      1.0000 0.86420  0.57690  0.20850  Biso   1.000  H
  N10      1.0000 0.06186  0.63407  0.30290  Biso   1.000  N
  H18      1.0000 0.13530  0.65160  0.29520  Biso   1.000  H
  H19      1.0000 0.01840  0.55750  0.30170  Biso   1.000  H
  C15      1.0000 0.03340  0.68030  0.15640  Biso   1.000  C
  H20      1.0000 0.04450  0.64690  0.05690  Biso   1.000  H
  H21      1.0000 0.08420  0.76220  0.15120  Biso   1.000  H
  N11      1.0000 0.86600  0.54450  0.60310  Biso   1.000  N
  N12      1.0000 0.13230  0.63220  0.69190  Biso   1.000  N
  Mn4      1.0000 0.69868  0.66178  0.04516  Biso   1.000  Mn
  O7       1.0000 0.77043  0.81849  0.90610  Biso   1.000  O
  C16      1.0000 0.46523  0.67708  0.04850  Biso   1.000  C
  C17      1.0000 0.64633  0.44020  0.27660  Biso   1.000  C
  O8       1.0000 0.75437  0.94156  0.74650  Biso   1.000  O
  C18      1.0000 0.73270  0.84200  0.78010  Biso   1.000  C
  N13      1.0000 0.65310  0.79120  0.50010  Biso   1.000  N
  H22      1.0000 0.58880  0.74320  0.44530  Biso   1.000  H
  H23      1.0000 0.71340  0.80120  0.43980  Biso   1.000  H
  C19      1.0000 0.65440  0.74500  0.66380  Biso   1.000  C
  H24      1.0000 0.57690  0.71270  0.70850  Biso   1.000  H
  N14      1.0000 0.63407  0.57221  0.80290  Biso   1.000  N
  H25      1.0000 0.65160  0.51630  0.79520  Biso   1.000  H
  H26      1.0000 0.55750  0.53910  0.80170  Biso   1.000  H
  C20      1.0000 0.68030  0.64690  0.65640  Biso   1.000  C
  H27      1.0000 0.64690  0.60240  0.55690  Biso   1.000  H
  H28      1.0000 0.76220  0.67800  0.65120  Biso   1.000  H
  N15      1.0000 0.54450  0.67850  0.10310  Biso   1.000  N
  N16      1.0000 0.63220  0.49990  0.19190  Biso   1.000  N
  Mn5      1.0000 0.33822  0.03690  0.04516  Biso   1.000  Mn
  O9       1.0000 0.18151  0.95194  0.90610  Biso   1.000  O
  C21      1.0000 0.32292  0.78815  0.04850  Biso   1.000  C
  C22      1.0000 0.55980  0.20613  0.27660  Biso   1.000  C
  O10      1.0000 0.05844  0.81281  0.74650  Biso   1.000  O
  C23      1.0000 0.15800  0.89070  0.78010  Biso   1.000  C
  N17      1.0000 0.20880  0.86190  0.50010  Biso   1.000  N
  H29      1.0000 0.25680  0.84560  0.44530  Biso   1.000  H
  H30      1.0000 0.19880  0.91220  0.43980  Biso   1.000  H
  C24      1.0000 0.25500  0.90940  0.66380  Biso   1.000  C
  H31      1.0000 0.28730  0.86420  0.70850  Biso   1.000  H
  N18      1.0000 0.42779  0.06186  0.80290  Biso   1.000  N
  H32      1.0000 0.48370  0.13530  0.79520  Biso   1.000  H
  H33      1.0000 0.46090  0.01840  0.80170  Biso   1.000  H
  C25      1.0000 0.35310  0.03340  0.65640  Biso   1.000  C
  H34      1.0000 0.39760  0.04450  0.55690  Biso   1.000  H
  H35      1.0000 0.32200  0.08420  0.65120  Biso   1.000  H
  N19      1.0000 0.32150  0.86600  0.10310  Biso   1.000  N
  N20      1.0000 0.50010  0.13230  0.19190  Biso   1.000  N
  Mn6      1.0000 0.96310  0.30132  0.04516  Biso   1.000  Mn
  O11      1.0000 0.04806  0.22957  0.90610  Biso   1.000  O
  C26      1.0000 0.21185  0.53477  0.04850  Biso   1.000  C
  C27      1.0000 0.79387  0.35367  0.27660  Biso   1.000  C
  O12      1.0000 0.18719  0.24563  0.74650  Biso   1.000  O
  C28      1.0000 0.10930  0.26730  0.78010  Biso   1.000  C
  N21      1.0000 0.13810  0.34690  0.50010  Biso   1.000  N
  H36      1.0000 0.15440  0.41120  0.44530  Biso   1.000  H
  H37      1.0000 0.08780  0.28660  0.43980  Biso   1.000  H
  C29      1.0000 0.09060  0.34560  0.66380  Biso   1.000  C
  H38      1.0000 0.13580  0.42310  0.70850  Biso   1.000  H
  N22      1.0000 0.93814  0.36593  0.80290  Biso   1.000  N
  H39      1.0000 0.86470  0.34840  0.79520  Biso   1.000  H
  H40      1.0000 0.98160  0.44250  0.80170  Biso   1.000  H
  C30      1.0000 0.96660  0.31970  0.65640  Biso   1.000  C
  H41      1.0000 0.95550  0.35310  0.55690  Biso   1.000  H
  H42      1.0000 0.91580  0.23780  0.65120  Biso   1.000  H
  N23      1.0000 0.13400  0.45550  0.10310  Biso   1.000  N
  N24      1.0000 0.86770  0.36780  0.19190  Biso   1.000  N
  Mn7      1.0000 0.33333  0.66667  0.92240  Biso   1.000  Mn
  Mn8      1.0000 0.66667  0.33333  0.42240  Biso   1.000  Mn
