data_image0
_cell_length_a       13.5329
_cell_length_b       13.5329
_cell_length_c       8.0816
_cell_angle_alpha    90
_cell_angle_beta     90
_cell_angle_gamma    120

_symmetry_space_group_name_H-M    "P 1"
_symmetry_int_tables_number       1

loop_
  _symmetry_equiv_pos_as_xyz
  'x, y, z'

loop_
  _atom_site_label
  _atom_site_occupancy
  _atom_site_fract_x
  _atom_site_fract_y
  _atom_site_fract_z
  _atom_site_thermal_displace_type
  _atom_site_B_iso_or_equiv
  _atom_site_type_symbol
  Mn1      1.0000 0.30086  0.33799  0.54514  Biso   1.000  Mn
  O1       1.0000 0.22937  0.18133  0.40590  Biso   1.000  O
  C1       1.0000 0.53474  0.32295  0.54790  Biso   1.000  C
  C2       1.0000 0.35360  0.55970  0.77670  Biso   1.000  C
  O2       1.0000 0.24559  0.05855  0.24630  Biso   1.000  O
  C3       1.0000 0.26710  0.15810  0.28000  Biso   1.000  C
  N1       1.0000 0.34670  0.20900  0.00070  Biso   1.000  N
  H1       1.0000 0.41110  0.25700  0.94600  Biso   1.000  H
  H2       1.0000 0.28650  0.19910  0.94050  Biso   1.000  H
  C4       1.0000 0.34550  0.25520  0.16380  Biso   1.000  C
  H3       1.0000 0.42290  0.28740  0.20840  Biso   1.000  H
  N2       1.0000 0.36580  0.42797  0.30390  Biso   1.000  N
  H4       1.0000 0.34820  0.48380  0.29620  Biso   1.000  H
  H5       1.0000 0.44240  0.46110  0.30290  Biso   1.000  H
  C5       1.0000 0.31960  0.35310  0.15740  Biso   1.000  C
  H6       1.0000 0.35290  0.39770  0.05790  Biso   1.000  H
  H7       1.0000 0.23770  0.32200  0.15230  Biso   1.000  H
  N3       1.0000 0.45560  0.32180  0.60250  Biso   1.000  N
  N4       1.0000 0.36740  0.49980  0.69220  Biso   1.000  N
  Mn2      1.0000 0.66201  0.96287  0.54514  Biso   1.000  Mn
  O3       1.0000 0.81867  0.04804  0.40590  Biso   1.000  O
  C6       1.0000 0.67705  0.21179  0.54790  Biso   1.000  C
  C7       1.0000 0.44030  0.79390  0.77670  Biso   1.000  C
  O4       1.0000 0.94145  0.18704  0.24630  Biso   1.000  O
  C8       1.0000 0.84190  0.10900  0.28000  Biso   1.000  C
  N5       1.0000 0.79100  0.13770  0.00070  Biso   1.000  N
  H8       1.0000 0.74300  0.15410  0.94600  Biso   1.000  H
  H9       1.0000 0.80090  0.08740  0.94050  Biso   1.000  H
  C9       1.0000 0.74480  0.09030  0.16380  Biso   1.000  C
  H10      1.0000 0.71260  0.13550  0.20840  Biso   1.000  H
  N6       1.0000 0.57203  0.93783  0.30390  Biso   1.000  N
  H11      1.0000 0.51620  0.86440  0.29620  Biso   1.000  H
  H12      1.0000 0.53890  0.98130  0.30290  Biso   1.000  H
  C10      1.0000 0.64690  0.96650  0.15740  Biso   1.000  C
  H13      1.0000 0.60230  0.95520  0.05790  Biso   1.000  H
  H14      1.0000 0.67800  0.91570  0.15230  Biso   1.000  H
  N7       1.0000 0.67820  0.13380  0.60250  Biso   1.000  N
  N8       1.0000 0.50020  0.86760  0.69220  Biso   1.000  N
  Mn3      1.0000 0.03713  0.69914  0.54514  Biso   1.000  Mn
  O5       1.0000 0.95196  0.77063  0.40590  Biso   1.000  O
  C11      1.0000 0.78821  0.46526  0.54790  Biso   1.000  C
  C12      1.0000 0.20610  0.64640  0.77670  Biso   1.000  C
  O6       1.0000 0.81296  0.75441  0.24630  Biso   1.000  O
  C13      1.0000 0.89100  0.73290  0.28000  Biso   1.000  C
  N9       1.0000 0.86230  0.65330  0.00070  Biso   1.000  N
  H15      1.0000 0.84590  0.58890  0.94600  Biso   1.000  H
  H16      1.0000 0.91260  0.71350  0.94050  Biso   1.000  H
  C14      1.0000 0.90970  0.65450  0.16380  Biso   1.000  C
  H17      1.0000 0.86450  0.57710  0.20840  Biso   1.000  H
  N10      1.0000 0.06217  0.63420  0.30390  Biso   1.000  N
  H18      1.0000 0.13560  0.65180  0.29620  Biso   1.000  H
  H19      1.0000 0.01870  0.55760  0.30290  Biso   1.000  H
  C15      1.0000 0.03350  0.68040  0.15740  Biso   1.000  C
  H20      1.0000 0.04480  0.64710  0.05790  Biso   1.000  H
  H21      1.0000 0.08430  0.76230  0.15230  Biso   1.000  H
  N11      1.0000 0.86620  0.54440  0.60250  Biso   1.000  N
  N12      1.0000 0.13240  0.63260  0.69220  Biso   1.000  N
  Mn4      1.0000 0.69914  0.66201  0.04514  Biso   1.000  Mn
  O7       1.0000 0.77063  0.81867  0.90590  Biso   1.000  O
  C16      1.0000 0.46526  0.67705  0.04790  Biso   1.000  C
  C17      1.0000 0.64640  0.44030  0.27670  Biso   1.000  C
  O8       1.0000 0.75441  0.94145  0.74630  Biso   1.000  O
  C18      1.0000 0.73290  0.84190  0.78000  Biso   1.000  C
  N13      1.0000 0.65330  0.79100  0.50070  Biso   1.000  N
  H22      1.0000 0.58890  0.74300  0.44600  Biso   1.000  H
  H23      1.0000 0.71350  0.80090  0.44050  Biso   1.000  H
  C19      1.0000 0.65450  0.74480  0.66380  Biso   1.000  C
  H24      1.0000 0.57710  0.71260  0.70840  Biso   1.000  H
  N14      1.0000 0.63420  0.57203  0.80390  Biso   1.000  N
  H25      1.0000 0.65180  0.51620  0.79620  Biso   1.000  H
  H26      1.0000 0.55760  0.53890  0.80290  Biso   1.000  H
  C20      1.0000 0.68040  0.64690  0.65740  Biso   1.000  C
  H27      1.0000 0.64710  0.60230  0.55790  Biso   1.000  H
  H28      1.0000 0.76230  0.67800  0.65230  Biso   1.000  H
  N15      1.0000 0.54440  0.67820  0.10250  Biso   1.000  N
  N16      1.0000 0.63260  0.50020  0.19220  Biso   1.000  N
  Mn5      1.0000 0.33799  0.03713  0.04514  Biso   1.000  Mn
  O9       1.0000 0.18133  0.95196  0.90590  Biso   1.000  O
  C21      1.0000 0.32295  0.78821  0.04790  Biso   1.000  C
  C22      1.0000 0.55970  0.20610  0.27670  Biso   1.000  C
  O10      1.0000 0.05855  0.81296  0.74630  Biso   1.000  O
  C23      1.0000 0.15810  0.89100  0.78000  Biso   1.000  C
  N17      1.0000 0.20900  0.86230  0.50070  Biso   1.000  N
  H29      1.0000 0.25700  0.84590  0.44600  Biso   1.000  H
  H30      1.0000 0.19910  0.91260  0.44050  Biso   1.000  H
  C24      1.0000 0.25520  0.90970  0.66380  Biso   1.000  C
  H31      1.0000 0.28740  0.86450  0.70840  Biso   1.000  H
  N18      1.0000 0.42797  0.06217  0.80390  Biso   1.000  N
  H32      1.0000 0.48380  0.13560  0.79620  Biso   1.000  H
  H33      1.0000 0.46110  0.01870  0.80290  Biso   1.000  H
  C25      1.0000 0.35310  0.03350  0.65740  Biso   1.000  C
  H34      1.0000 0.39770  0.04480  0.55790  Biso   1.000  H
  H35      1.0000 0.32200  0.08430  0.65230  Biso   1.000  H
  N19      1.0000 0.32180  0.86620  0.10250  Biso   1.000  N
  N20      1.0000 0.49980  0.13240  0.19220  Biso   1.000  N
  Mn6      1.0000 0.96287  0.30086  0.04514  Biso   1.000  Mn
  O11      1.0000 0.04804  0.22937  0.90590  Biso   1.000  O
  C26      1.0000 0.21179  0.53474  0.04790  Biso   1.000  C
  C27      1.0000 0.79390  0.35360  0.27670  Biso   1.000  C
  O12      1.0000 0.18704  0.24559  0.74630  Biso   1.000  O
  C28      1.0000 0.10900  0.26710  0.78000  Biso   1.000  C
  N21      1.0000 0.13770  0.34670  0.50070  Biso   1.000  N
  H36      1.0000 0.15410  0.41110  0.44600  Biso   1.000  H
  H37      1.0000 0.08740  0.28650  0.44050  Biso   1.000  H
  C29      1.0000 0.09030  0.34550  0.66380  Biso   1.000  C
  H38      1.0000 0.13550  0.42290  0.70840  Biso   1.000  H
  N22      1.0000 0.93783  0.36580  0.80390  Biso   1.000  N
  H39      1.0000 0.86440  0.34820  0.79620  Biso   1.000  H
  H40      1.0000 0.98130  0.44240  0.80290  Biso   1.000  H
  C30      1.0000 0.96650  0.31960  0.65740  Biso   1.000  C
  H41      1.0000 0.95520  0.35290  0.55790  Biso   1.000  H
  H42      1.0000 0.91570  0.23770  0.65230  Biso   1.000  H
  N23      1.0000 0.13380  0.45560  0.10250  Biso   1.000  N
  N24      1.0000 0.86760  0.36740  0.19220  Biso   1.000  N
  Mn7      1.0000 0.33333  0.66667  0.92237  Biso   1.000  Mn
  Mn8      1.0000 0.66667  0.33333  0.42237  Biso   1.000  Mn
