data_image0
_cell_length_a       13.5324
_cell_length_b       13.5324
_cell_length_c       8.0668
_cell_angle_alpha    90
_cell_angle_beta     90
_cell_angle_gamma    120

_symmetry_space_group_name_H-M    "P 1"
_symmetry_int_tables_number       1

loop_
  _symmetry_equiv_pos_as_xyz
  'x, y, z'

loop_
  _atom_site_label
  _atom_site_occupancy
  _atom_site_fract_x
  _atom_site_fract_y
  _atom_site_fract_z
  _atom_site_thermal_displace_type
  _atom_site_B_iso_or_equiv
  _atom_site_type_symbol
  Mn1      1.0000 0.30192  0.33787  0.54561  Biso   1.000  Mn
  O1       1.0000 0.23044  0.18111  0.40710  Biso   1.000  O
  C1       1.0000 0.53512  0.32276  0.54840  Biso   1.000  C
  C2       1.0000 0.35411  0.56029  0.77610  Biso   1.000  C
  O2       1.0000 0.24610  0.05757  0.24740  Biso   1.000  O
  C3       1.0000 0.26810  0.15782  0.28130  Biso   1.000  C
  N1       1.0000 0.34619  0.20801  0.00060  Biso   1.000  N
  H1       1.0000 0.41020  0.25590  0.94500  Biso   1.000  H
  H2       1.0000 0.28560  0.19780  0.94090  Biso   1.000  H
  C4       1.0000 0.34579  0.25444  0.16390  Biso   1.000  C
  H3       1.0000 0.42340  0.28700  0.20770  Biso   1.000  H
  N2       1.0000 0.36601  0.42703  0.30250  Biso   1.000  N
  H4       1.0000 0.34840  0.48280  0.29470  Biso   1.000  H
  H5       1.0000 0.44260  0.46020  0.30090  Biso   1.000  H
  C5       1.0000 0.31950  0.35210  0.15620  Biso   1.000  C
  H6       1.0000 0.35260  0.39640  0.05630  Biso   1.000  H
  H7       1.0000 0.23760  0.32080  0.15150  Biso   1.000  H
  N3       1.0000 0.45641  0.32135  0.60520  Biso   1.000  N
  N4       1.0000 0.36851  0.50053  0.68970  Biso   1.000  N
  Mn2      1.0000 0.66213  0.96405  0.54561  Biso   1.000  Mn
  O3       1.0000 0.81889  0.04933  0.40710  Biso   1.000  O
  C6       1.0000 0.67724  0.21236  0.54840  Biso   1.000  C
  C7       1.0000 0.43971  0.79382  0.77610  Biso   1.000  C
  O4       1.0000 0.94243  0.18853  0.24740  Biso   1.000  O
  C8       1.0000 0.84218  0.11028  0.28130  Biso   1.000  C
  N5       1.0000 0.79199  0.13818  0.00060  Biso   1.000  N
  H8       1.0000 0.74410  0.15430  0.94500  Biso   1.000  H
  H9       1.0000 0.80220  0.08780  0.94090  Biso   1.000  H
  C9       1.0000 0.74556  0.09135  0.16390  Biso   1.000  C
  H10      1.0000 0.71300  0.13640  0.20770  Biso   1.000  H
  N6       1.0000 0.57297  0.93898  0.30250  Biso   1.000  N
  H11      1.0000 0.51720  0.86560  0.29470  Biso   1.000  H
  H12      1.0000 0.53980  0.98240  0.30090  Biso   1.000  H
  C10      1.0000 0.64790  0.96740  0.15620  Biso   1.000  C
  H13      1.0000 0.60360  0.95620  0.05630  Biso   1.000  H
  H14      1.0000 0.67920  0.91680  0.15150  Biso   1.000  H
  N7       1.0000 0.67865  0.13506  0.60520  Biso   1.000  N
  N8       1.0000 0.49947  0.86798  0.68970  Biso   1.000  N
  Mn3      1.0000 0.03595  0.69808  0.54561  Biso   1.000  Mn
  O5       1.0000 0.95067  0.76956  0.40710  Biso   1.000  O
  C11      1.0000 0.78764  0.46488  0.54840  Biso   1.000  C
  C12      1.0000 0.20618  0.64589  0.77610  Biso   1.000  C
  O6       1.0000 0.81147  0.75390  0.24740  Biso   1.000  O
  C13      1.0000 0.88972  0.73190  0.28130  Biso   1.000  C
  N9       1.0000 0.86182  0.65381  0.00060  Biso   1.000  N
  H15      1.0000 0.84570  0.58980  0.94500  Biso   1.000  H
  H16      1.0000 0.91220  0.71440  0.94090  Biso   1.000  H
  C14      1.0000 0.90865  0.65421  0.16390  Biso   1.000  C
  H17      1.0000 0.86360  0.57660  0.20770  Biso   1.000  H
  N10      1.0000 0.06102  0.63399  0.30250  Biso   1.000  N
  H18      1.0000 0.13440  0.65160  0.29470  Biso   1.000  H
  H19      1.0000 0.01760  0.55740  0.30090  Biso   1.000  H
  C15      1.0000 0.03260  0.68050  0.15620  Biso   1.000  C
  H20      1.0000 0.04380  0.64740  0.05630  Biso   1.000  H
  H21      1.0000 0.08320  0.76240  0.15150  Biso   1.000  H
  N11      1.0000 0.86494  0.54359  0.60520  Biso   1.000  N
  N12      1.0000 0.13202  0.63149  0.68970  Biso   1.000  N
  Mn4      1.0000 0.69808  0.66213  0.04561  Biso   1.000  Mn
  O7       1.0000 0.76956  0.81889  0.90710  Biso   1.000  O
  C16      1.0000 0.46488  0.67724  0.04840  Biso   1.000  C
  C17      1.0000 0.64589  0.43971  0.27610  Biso   1.000  C
  O8       1.0000 0.75390  0.94243  0.74740  Biso   1.000  O
  C18      1.0000 0.73190  0.84218  0.78130  Biso   1.000  C
  N13      1.0000 0.65381  0.79199  0.50060  Biso   1.000  N
  H22      1.0000 0.58980  0.74410  0.44500  Biso   1.000  H
  H23      1.0000 0.71440  0.80220  0.44090  Biso   1.000  H
  C19      1.0000 0.65421  0.74556  0.66390  Biso   1.000  C
  H24      1.0000 0.57660  0.71300  0.70770  Biso   1.000  H
  N14      1.0000 0.63399  0.57297  0.80250  Biso   1.000  N
  H25      1.0000 0.65160  0.51720  0.79470  Biso   1.000  H
  H26      1.0000 0.55740  0.53980  0.80090  Biso   1.000  H
  C20      1.0000 0.68050  0.64790  0.65620  Biso   1.000  C
  H27      1.0000 0.64740  0.60360  0.55630  Biso   1.000  H
  H28      1.0000 0.76240  0.67920  0.65150  Biso   1.000  H
  N15      1.0000 0.54359  0.67865  0.10520  Biso   1.000  N
  N16      1.0000 0.63149  0.49947  0.18970  Biso   1.000  N
  Mn5      1.0000 0.33787  0.03595  0.04561  Biso   1.000  Mn
  O9       1.0000 0.18111  0.95067  0.90710  Biso   1.000  O
  C21      1.0000 0.32276  0.78764  0.04840  Biso   1.000  C
  C22      1.0000 0.56029  0.20618  0.27610  Biso   1.000  C
  O10      1.0000 0.05757  0.81147  0.74740  Biso   1.000  O
  C23      1.0000 0.15782  0.88972  0.78130  Biso   1.000  C
  N17      1.0000 0.20801  0.86182  0.50060  Biso   1.000  N
  H29      1.0000 0.25590  0.84570  0.44500  Biso   1.000  H
  H30      1.0000 0.19780  0.91220  0.44090  Biso   1.000  H
  C24      1.0000 0.25444  0.90865  0.66390  Biso   1.000  C
  H31      1.0000 0.28700  0.86360  0.70770  Biso   1.000  H
  N18      1.0000 0.42703  0.06102  0.80250  Biso   1.000  N
  H32      1.0000 0.48280  0.13440  0.79470  Biso   1.000  H
  H33      1.0000 0.46020  0.01760  0.80090  Biso   1.000  H
  C25      1.0000 0.35210  0.03260  0.65620  Biso   1.000  C
  H34      1.0000 0.39640  0.04380  0.55630  Biso   1.000  H
  H35      1.0000 0.32080  0.08320  0.65150  Biso   1.000  H
  N19      1.0000 0.32135  0.86494  0.10520  Biso   1.000  N
  N20      1.0000 0.50053  0.13202  0.18970  Biso   1.000  N
  Mn6      1.0000 0.96405  0.30192  0.04561  Biso   1.000  Mn
  O11      1.0000 0.04933  0.23044  0.90710  Biso   1.000  O
  C26      1.0000 0.21236  0.53512  0.04840  Biso   1.000  C
  C27      1.0000 0.79382  0.35411  0.27610  Biso   1.000  C
  O12      1.0000 0.18853  0.24610  0.74740  Biso   1.000  O
  C28      1.0000 0.11028  0.26810  0.78130  Biso   1.000  C
  N21      1.0000 0.13818  0.34619  0.50060  Biso   1.000  N
  H36      1.0000 0.15430  0.41020  0.44500  Biso   1.000  H
  H37      1.0000 0.08780  0.28560  0.44090  Biso   1.000  H
  C29      1.0000 0.09135  0.34579  0.66390  Biso   1.000  C
  H38      1.0000 0.13640  0.42340  0.70770  Biso   1.000  H
  N22      1.0000 0.93898  0.36601  0.80250  Biso   1.000  N
  H39      1.0000 0.86560  0.34840  0.79470  Biso   1.000  H
  H40      1.0000 0.98240  0.44260  0.80090  Biso   1.000  H
  C30      1.0000 0.96740  0.31950  0.65620  Biso   1.000  C
  H41      1.0000 0.95620  0.35260  0.55630  Biso   1.000  H
  H42      1.0000 0.91680  0.23760  0.65150  Biso   1.000  H
  N23      1.0000 0.13506  0.45641  0.10520  Biso   1.000  N
  N24      1.0000 0.86798  0.36851  0.18970  Biso   1.000  N
  Mn7      1.0000 0.33333  0.66667  0.92101  Biso   1.000  Mn
  Mn8      1.0000 0.66667  0.33333  0.42101  Biso   1.000  Mn
