data_image0
_cell_length_a       13.4846
_cell_length_b       13.4846
_cell_length_c       8.032
_cell_angle_alpha    90
_cell_angle_beta     90
_cell_angle_gamma    120

_symmetry_space_group_name_H-M    "P 1"
_symmetry_int_tables_number       1

loop_
  _symmetry_equiv_pos_as_xyz
  'x, y, z'

loop_
  _atom_site_label
  _atom_site_occupancy
  _atom_site_fract_x
  _atom_site_fract_y
  _atom_site_fract_z
  _atom_site_thermal_displace_type
  _atom_site_B_iso_or_equiv
  _atom_site_type_symbol
  Mn1      1.0000 0.30142  0.33873  0.54463  Biso   1.000  Mn
  O1       1.0000 0.22620  0.18127  0.40320  Biso   1.000  O
  C1       1.0000 0.53360  0.32250  0.54810  Biso   1.000  C
  C2       1.0000 0.35330  0.55930  0.77860  Biso   1.000  C
  O2       1.0000 0.24040  0.05749  0.24240  Biso   1.000  O
  C3       1.0000 0.26450  0.15770  0.27700  Biso   1.000  C
  N1       1.0000 0.34850  0.21040  0.99930  Biso   1.000  N
  H1       1.0000 0.41390  0.25880  0.94600  Biso   1.000  H
  H2       1.0000 0.28890  0.20090  0.93690  Biso   1.000  H
  C4       1.0000 0.34520  0.25520  0.16260  Biso   1.000  C
  H3       1.0000 0.42210  0.28660  0.20990  Biso   1.000  H
  N2       1.0000 0.36650  0.42900  0.30210  Biso   1.000  N
  H4       1.0000 0.34880  0.48500  0.29470  Biso   1.000  H
  H5       1.0000 0.44330  0.46230  0.30130  Biso   1.000  H
  C5       1.0000 0.32070  0.35480  0.15410  Biso   1.000  C
  H6       1.0000 0.35550  0.39960  0.05460  Biso   1.000  H
  H7       1.0000 0.23870  0.32460  0.14720  Biso   1.000  H
  N3       1.0000 0.45400  0.32030  0.60370  Biso   1.000  N
  N4       1.0000 0.36690  0.49930  0.69290  Biso   1.000  N
  Mn2      1.0000 0.66127  0.96269  0.54463  Biso   1.000  Mn
  O3       1.0000 0.81873  0.04493  0.40320  Biso   1.000  O
  C6       1.0000 0.67750  0.21110  0.54810  Biso   1.000  C
  C7       1.0000 0.44070  0.79400  0.77860  Biso   1.000  C
  O4       1.0000 0.94251  0.18291  0.24240  Biso   1.000  O
  C8       1.0000 0.84230  0.10680  0.27700  Biso   1.000  C
  N5       1.0000 0.78960  0.13810  0.99930  Biso   1.000  N
  H8       1.0000 0.74120  0.15510  0.94600  Biso   1.000  H
  H9       1.0000 0.79910  0.08800  0.93690  Biso   1.000  H
  C9       1.0000 0.74480  0.09000  0.16260  Biso   1.000  C
  H10      1.0000 0.71340  0.13550  0.20990  Biso   1.000  H
  N6       1.0000 0.57100  0.93750  0.30210  Biso   1.000  N
  H11      1.0000 0.51500  0.86380  0.29470  Biso   1.000  H
  H12      1.0000 0.53770  0.98100  0.30130  Biso   1.000  H
  C10      1.0000 0.64520  0.96590  0.15410  Biso   1.000  C
  H13      1.0000 0.60040  0.95590  0.05460  Biso   1.000  H
  H14      1.0000 0.67540  0.91410  0.14720  Biso   1.000  H
  N7       1.0000 0.67970  0.13370  0.60370  Biso   1.000  N
  N8       1.0000 0.50070  0.86760  0.69290  Biso   1.000  N
  Mn3      1.0000 0.03731  0.69858  0.54463  Biso   1.000  Mn
  O5       1.0000 0.95507  0.77380  0.40320  Biso   1.000  O
  C11      1.0000 0.78890  0.46640  0.54810  Biso   1.000  C
  C12      1.0000 0.20600  0.64670  0.77860  Biso   1.000  C
  O6       1.0000 0.81709  0.75960  0.24240  Biso   1.000  O
  C13      1.0000 0.89320  0.73550  0.27700  Biso   1.000  C
  N9       1.0000 0.86190  0.65150  0.99930  Biso   1.000  N
  H15      1.0000 0.84490  0.58610  0.94600  Biso   1.000  H
  H16      1.0000 0.91200  0.71110  0.93690  Biso   1.000  H
  C14      1.0000 0.91000  0.65480  0.16260  Biso   1.000  C
  H17      1.0000 0.86450  0.57790  0.20990  Biso   1.000  H
  N10      1.0000 0.06250  0.63350  0.30210  Biso   1.000  N
  H18      1.0000 0.13620  0.65120  0.29470  Biso   1.000  H
  H19      1.0000 0.01900  0.55670  0.30130  Biso   1.000  H
  C15      1.0000 0.03410  0.67930  0.15410  Biso   1.000  C
  H20      1.0000 0.04410  0.64450  0.05460  Biso   1.000  H
  H21      1.0000 0.08590  0.76130  0.14720  Biso   1.000  H
  N11      1.0000 0.86630  0.54600  0.60370  Biso   1.000  N
  N12      1.0000 0.13240  0.63310  0.69290  Biso   1.000  N
  Mn4      1.0000 0.69858  0.66127  0.04463  Biso   1.000  Mn
  O7       1.0000 0.77380  0.81873  0.90320  Biso   1.000  O
  C16      1.0000 0.46640  0.67750  0.04810  Biso   1.000  C
  C17      1.0000 0.64670  0.44070  0.27860  Biso   1.000  C
  O8       1.0000 0.75960  0.94251  0.74240  Biso   1.000  O
  C18      1.0000 0.73550  0.84230  0.77700  Biso   1.000  C
  N13      1.0000 0.65150  0.78960  0.49930  Biso   1.000  N
  H22      1.0000 0.58610  0.74120  0.44600  Biso   1.000  H
  H23      1.0000 0.71110  0.79910  0.43690  Biso   1.000  H
  C19      1.0000 0.65480  0.74480  0.66260  Biso   1.000  C
  H24      1.0000 0.57790  0.71340  0.70990  Biso   1.000  H
  N14      1.0000 0.63350  0.57100  0.80210  Biso   1.000  N
  H25      1.0000 0.65120  0.51500  0.79470  Biso   1.000  H
  H26      1.0000 0.55670  0.53770  0.80130  Biso   1.000  H
  C20      1.0000 0.67930  0.64520  0.65410  Biso   1.000  C
  H27      1.0000 0.64450  0.60040  0.55460  Biso   1.000  H
  H28      1.0000 0.76130  0.67540  0.64720  Biso   1.000  H
  N15      1.0000 0.54600  0.67970  0.10370  Biso   1.000  N
  N16      1.0000 0.63310  0.50070  0.19290  Biso   1.000  N
  Mn5      1.0000 0.33873  0.03731  0.04463  Biso   1.000  Mn
  O9       1.0000 0.18127  0.95507  0.90320  Biso   1.000  O
  C21      1.0000 0.32250  0.78890  0.04810  Biso   1.000  C
  C22      1.0000 0.55930  0.20600  0.27860  Biso   1.000  C
  O10      1.0000 0.05749  0.81709  0.74240  Biso   1.000  O
  C23      1.0000 0.15770  0.89320  0.77700  Biso   1.000  C
  N17      1.0000 0.21040  0.86190  0.49930  Biso   1.000  N
  H29      1.0000 0.25880  0.84490  0.44600  Biso   1.000  H
  H30      1.0000 0.20090  0.91200  0.43690  Biso   1.000  H
  C24      1.0000 0.25520  0.91000  0.66260  Biso   1.000  C
  H31      1.0000 0.28660  0.86450  0.70990  Biso   1.000  H
  N18      1.0000 0.42900  0.06250  0.80210  Biso   1.000  N
  H32      1.0000 0.48500  0.13620  0.79470  Biso   1.000  H
  H33      1.0000 0.46230  0.01900  0.80130  Biso   1.000  H
  C25      1.0000 0.35480  0.03410  0.65410  Biso   1.000  C
  H34      1.0000 0.39960  0.04410  0.55460  Biso   1.000  H
  H35      1.0000 0.32460  0.08590  0.64720  Biso   1.000  H
  N19      1.0000 0.32030  0.86630  0.10370  Biso   1.000  N
  N20      1.0000 0.49930  0.13240  0.19290  Biso   1.000  N
  Mn6      1.0000 0.96269  0.30142  0.04463  Biso   1.000  Mn
  O11      1.0000 0.04493  0.22620  0.90320  Biso   1.000  O
  C26      1.0000 0.21110  0.53360  0.04810  Biso   1.000  C
  C27      1.0000 0.79400  0.35330  0.27860  Biso   1.000  C
  O12      1.0000 0.18291  0.24040  0.74240  Biso   1.000  O
  C28      1.0000 0.10680  0.26450  0.77700  Biso   1.000  C
  N21      1.0000 0.13810  0.34850  0.49930  Biso   1.000  N
  H36      1.0000 0.15510  0.41390  0.44600  Biso   1.000  H
  H37      1.0000 0.08800  0.28890  0.43690  Biso   1.000  H
  C29      1.0000 0.09000  0.34520  0.66260  Biso   1.000  C
  H38      1.0000 0.13550  0.42210  0.70990  Biso   1.000  H
  N22      1.0000 0.93750  0.36650  0.80210  Biso   1.000  N
  H39      1.0000 0.86380  0.34880  0.79470  Biso   1.000  H
  H40      1.0000 0.98100  0.44330  0.80130  Biso   1.000  H
  C30      1.0000 0.96590  0.32070  0.65410  Biso   1.000  C
  H41      1.0000 0.95590  0.35550  0.55460  Biso   1.000  H
  H42      1.0000 0.91410  0.23870  0.64720  Biso   1.000  H
  N23      1.0000 0.13370  0.45400  0.10370  Biso   1.000  N
  N24      1.0000 0.86760  0.36690  0.19290  Biso   1.000  N
  Mn7      1.0000 0.33333  0.66667  0.92480  Biso   1.000  Mn
  Mn8      1.0000 0.66667  0.33333  0.42480  Biso   1.000  Mn
