data_image0
_cell_length_a       13.475
_cell_length_b       13.475
_cell_length_c       8.0291
_cell_angle_alpha    90
_cell_angle_beta     90
_cell_angle_gamma    120

_symmetry_space_group_name_H-M    "P 1"
_symmetry_int_tables_number       1

loop_
  _symmetry_equiv_pos_as_xyz
  'x, y, z'

loop_
  _atom_site_label
  _atom_site_occupancy
  _atom_site_fract_x
  _atom_site_fract_y
  _atom_site_fract_z
  _atom_site_thermal_displace_type
  _atom_site_B_iso_or_equiv
  _atom_site_type_symbol
  Mn1      1.0000 0.30265  0.33739  0.95416  Biso   1.000  Mn
  O1       1.0000 0.22656  0.17902  0.09350  Biso   1.000  O
  C1       1.0000 0.53497  0.32188  0.94990  Biso   1.000  C
  C2       1.0000 0.35407  0.55960  0.72430  Biso   1.000  C
  O2       1.0000 0.23911  0.05498  0.25740  Biso   1.000  O
  C3       1.0000 0.26342  0.15580  0.22150  Biso   1.000  C
  N1       1.0000 0.34632  0.20777  0.50150  Biso   1.000  N
  H1       1.0000 0.28610  0.19770  0.56290  Biso   1.000  H
  H2       1.0000 0.41130  0.25610  0.55570  Biso   1.000  H
  C4       1.0000 0.34394  0.25337  0.33640  Biso   1.000  C
  H3       1.0000 0.42110  0.28500  0.28980  Biso   1.000  H
  N2       1.0000 0.36683  0.42781  0.19820  Biso   1.000  N
  H4       1.0000 0.44370  0.46070  0.20040  Biso   1.000  H
  H5       1.0000 0.34950  0.48410  0.20530  Biso   1.000  H
  C5       1.0000 0.31899  0.35239  0.34530  Biso   1.000  C
  H6       1.0000 0.23680  0.32190  0.34990  Biso   1.000  H
  H7       1.0000 0.35250  0.39650  0.44590  Biso   1.000  H
  N3       1.0000 0.45553  0.31973  0.89260  Biso   1.000  N
  N4       1.0000 0.36777  0.49852  0.80870  Biso   1.000  N
  Mn2      1.0000 0.66261  0.96526  0.95416  Biso   1.000  Mn
  O3       1.0000 0.82098  0.04754  0.09350  Biso   1.000  O
  C6       1.0000 0.67812  0.21309  0.94990  Biso   1.000  C
  C7       1.0000 0.44040  0.79447  0.72430  Biso   1.000  C
  O4       1.0000 0.94502  0.18413  0.25740  Biso   1.000  O
  C8       1.0000 0.84420  0.10762  0.22150  Biso   1.000  C
  N5       1.0000 0.79223  0.13855  0.50150  Biso   1.000  N
  H8       1.0000 0.80230  0.08840  0.56290  Biso   1.000  H
  H9       1.0000 0.74390  0.15520  0.55570  Biso   1.000  H
  C9       1.0000 0.74663  0.09057  0.33640  Biso   1.000  C
  H10      1.0000 0.71500  0.13610  0.28980  Biso   1.000  H
  N6       1.0000 0.57219  0.93902  0.19820  Biso   1.000  N
  H11      1.0000 0.53930  0.98300  0.20040  Biso   1.000  H
  H12      1.0000 0.51590  0.86540  0.20530  Biso   1.000  H
  C10      1.0000 0.64761  0.96660  0.34530  Biso   1.000  C
  H13      1.0000 0.67810  0.91490  0.34990  Biso   1.000  H
  H14      1.0000 0.60350  0.95600  0.44590  Biso   1.000  H
  N7       1.0000 0.68027  0.13580  0.89260  Biso   1.000  N
  N8       1.0000 0.50148  0.86925  0.80870  Biso   1.000  N
  Mn3      1.0000 0.03474  0.69735  0.95416  Biso   1.000  Mn
  O5       1.0000 0.95246  0.77344  0.09350  Biso   1.000  O
  C11      1.0000 0.78691  0.46503  0.94990  Biso   1.000  C
  C12      1.0000 0.20553  0.64593  0.72430  Biso   1.000  C
  O6       1.0000 0.81587  0.76089  0.25740  Biso   1.000  O
  C13      1.0000 0.89238  0.73658  0.22150  Biso   1.000  C
  N9       1.0000 0.86145  0.65368  0.50150  Biso   1.000  N
  H15      1.0000 0.91160  0.71390  0.56290  Biso   1.000  H
  H16      1.0000 0.84480  0.58870  0.55570  Biso   1.000  H
  C14      1.0000 0.90943  0.65606  0.33640  Biso   1.000  C
  H17      1.0000 0.86390  0.57890  0.28980  Biso   1.000  H
  N10      1.0000 0.06098  0.63317  0.19820  Biso   1.000  N
  H18      1.0000 0.01700  0.55630  0.20040  Biso   1.000  H
  H19      1.0000 0.13460  0.65050  0.20530  Biso   1.000  H
  C15      1.0000 0.03340  0.68101  0.34530  Biso   1.000  C
  H20      1.0000 0.08510  0.76320  0.34990  Biso   1.000  H
  H21      1.0000 0.04400  0.64750  0.44590  Biso   1.000  H
  N11      1.0000 0.86420  0.54447  0.89260  Biso   1.000  N
  N12      1.0000 0.13075  0.63223  0.80870  Biso   1.000  N
  Mn4      1.0000 0.69735  0.66261  0.45416  Biso   1.000  Mn
  O7       1.0000 0.77344  0.82098  0.59350  Biso   1.000  O
  C16      1.0000 0.46503  0.67812  0.44990  Biso   1.000  C
  C17      1.0000 0.64593  0.44040  0.22430  Biso   1.000  C
  O8       1.0000 0.76089  0.94502  0.75740  Biso   1.000  O
  C18      1.0000 0.73658  0.84420  0.72150  Biso   1.000  C
  N13      1.0000 0.65368  0.79223  0.00150  Biso   1.000  N
  H22      1.0000 0.71390  0.80230  0.06290  Biso   1.000  H
  H23      1.0000 0.58870  0.74390  0.05570  Biso   1.000  H
  C19      1.0000 0.65606  0.74663  0.83640  Biso   1.000  C
  H24      1.0000 0.57890  0.71500  0.78980  Biso   1.000  H
  N14      1.0000 0.63317  0.57219  0.69820  Biso   1.000  N
  H25      1.0000 0.55630  0.53930  0.70040  Biso   1.000  H
  H26      1.0000 0.65050  0.51590  0.70530  Biso   1.000  H
  C20      1.0000 0.68101  0.64761  0.84530  Biso   1.000  C
  H27      1.0000 0.76320  0.67810  0.84990  Biso   1.000  H
  H28      1.0000 0.64750  0.60350  0.94590  Biso   1.000  H
  N15      1.0000 0.54447  0.68027  0.39260  Biso   1.000  N
  N16      1.0000 0.63223  0.50148  0.30870  Biso   1.000  N
  Mn5      1.0000 0.33739  0.03474  0.45416  Biso   1.000  Mn
  O9       1.0000 0.17902  0.95246  0.59350  Biso   1.000  O
  C21      1.0000 0.32188  0.78691  0.44990  Biso   1.000  C
  C22      1.0000 0.55960  0.20553  0.22430  Biso   1.000  C
  O10      1.0000 0.05498  0.81587  0.75740  Biso   1.000  O
  C23      1.0000 0.15580  0.89238  0.72150  Biso   1.000  C
  N17      1.0000 0.20777  0.86145  0.00150  Biso   1.000  N
  H29      1.0000 0.19770  0.91160  0.06290  Biso   1.000  H
  H30      1.0000 0.25610  0.84480  0.05570  Biso   1.000  H
  C24      1.0000 0.25337  0.90943  0.83640  Biso   1.000  C
  H31      1.0000 0.28500  0.86390  0.78980  Biso   1.000  H
  N18      1.0000 0.42781  0.06098  0.69820  Biso   1.000  N
  H32      1.0000 0.46070  0.01700  0.70040  Biso   1.000  H
  H33      1.0000 0.48410  0.13460  0.70530  Biso   1.000  H
  C25      1.0000 0.35239  0.03340  0.84530  Biso   1.000  C
  H34      1.0000 0.32190  0.08510  0.84990  Biso   1.000  H
  H35      1.0000 0.39650  0.04400  0.94590  Biso   1.000  H
  N19      1.0000 0.31973  0.86420  0.39260  Biso   1.000  N
  N20      1.0000 0.49852  0.13075  0.30870  Biso   1.000  N
  Mn6      1.0000 0.96526  0.30265  0.45416  Biso   1.000  Mn
  O11      1.0000 0.04754  0.22656  0.59350  Biso   1.000  O
  C26      1.0000 0.21309  0.53497  0.44990  Biso   1.000  C
  C27      1.0000 0.79447  0.35407  0.22430  Biso   1.000  C
  O12      1.0000 0.18413  0.23911  0.75740  Biso   1.000  O
  C28      1.0000 0.10762  0.26342  0.72150  Biso   1.000  C
  N21      1.0000 0.13855  0.34632  0.00150  Biso   1.000  N
  H36      1.0000 0.08840  0.28610  0.06290  Biso   1.000  H
  H37      1.0000 0.15520  0.41130  0.05570  Biso   1.000  H
  C29      1.0000 0.09057  0.34394  0.83640  Biso   1.000  C
  H38      1.0000 0.13610  0.42110  0.78980  Biso   1.000  H
  N22      1.0000 0.93902  0.36683  0.69820  Biso   1.000  N
  H39      1.0000 0.98300  0.44370  0.70040  Biso   1.000  H
  H40      1.0000 0.86540  0.34950  0.70530  Biso   1.000  H
  C30      1.0000 0.96660  0.31899  0.84530  Biso   1.000  C
  H41      1.0000 0.91490  0.23680  0.84990  Biso   1.000  H
  H42      1.0000 0.95600  0.35250  0.94590  Biso   1.000  H
  N23      1.0000 0.13580  0.45553  0.39260  Biso   1.000  N
  N24      1.0000 0.86925  0.36777  0.30870  Biso   1.000  N
  Mn7      1.0000 0.33333  0.66667  0.57900  Biso   1.000  Mn
  Mn8      1.0000 0.66667  0.33333  0.07900  Biso   1.000  Mn
