data_image0
_cell_length_a       13.5114
_cell_length_b       13.5114
_cell_length_c       8.0589
_cell_angle_alpha    90
_cell_angle_beta     90
_cell_angle_gamma    120

_symmetry_space_group_name_H-M    "P 1"
_symmetry_int_tables_number       1

loop_
  _symmetry_equiv_pos_as_xyz
  'x, y, z'

loop_
  _atom_site_label
  _atom_site_occupancy
  _atom_site_fract_x
  _atom_site_fract_y
  _atom_site_fract_z
  _atom_site_thermal_displace_type
  _atom_site_B_iso_or_equiv
  _atom_site_type_symbol
  Mn1      1.0000 0.30247  0.33808  0.54568  Biso   1.000  Mn
  O1       1.0000 0.22890  0.18047  0.40650  Biso   1.000  O
  C1       1.0000 0.53511  0.32253  0.54880  Biso   1.000  C
  C2       1.0000 0.35407  0.55993  0.77650  Biso   1.000  C
  O2       1.0000 0.24345  0.05717  0.24514  Biso   1.000  O
  C3       1.0000 0.26635  0.15693  0.27990  Biso   1.000  C
  N1       1.0000 0.34674  0.20787  0.99970  Biso   1.000  N
  H1       1.0000 0.41120  0.25590  0.94480  Biso   1.000  H
  H2       1.0000 0.28640  0.19770  0.93910  Biso   1.000  H
  C4       1.0000 0.34533  0.25423  0.16350  Biso   1.000  C
  H3       1.0000 0.42270  0.28650  0.20860  Biso   1.000  H
  N2       1.0000 0.36706  0.42788  0.30220  Biso   1.000  N
  H4       1.0000 0.34990  0.48410  0.29470  Biso   1.000  H
  H5       1.0000 0.44370  0.46060  0.30040  Biso   1.000  H
  C5       1.0000 0.31960  0.35242  0.15510  Biso   1.000  C
  H6       1.0000 0.35280  0.39660  0.05500  Biso   1.000  H
  H7       1.0000 0.23760  0.32150  0.15060  Biso   1.000  H
  N3       1.0000 0.45571  0.32051  0.60580  Biso   1.000  N
  N4       1.0000 0.36818  0.49968  0.69040  Biso   1.000  N
  Mn2      1.0000 0.66192  0.96439  0.54568  Biso   1.000  Mn
  O3       1.0000 0.81953  0.04843  0.40650  Biso   1.000  O
  C6       1.0000 0.67747  0.21258  0.54880  Biso   1.000  C
  C7       1.0000 0.44007  0.79414  0.77650  Biso   1.000  C
  O4       1.0000 0.94283  0.18628  0.24514  Biso   1.000  O
  C8       1.0000 0.84307  0.10942  0.27990  Biso   1.000  C
  N5       1.0000 0.79213  0.13887  0.99970  Biso   1.000  N
  H8       1.0000 0.74410  0.15530  0.94480  Biso   1.000  H
  H9       1.0000 0.80230  0.08870  0.93910  Biso   1.000  H
  C9       1.0000 0.74577  0.09110  0.16350  Biso   1.000  C
  H10      1.0000 0.71350  0.13620  0.20860  Biso   1.000  H
  N6       1.0000 0.57212  0.93918  0.30220  Biso   1.000  N
  H11      1.0000 0.51590  0.86580  0.29470  Biso   1.000  H
  H12      1.0000 0.53940  0.98310  0.30040  Biso   1.000  H
  C10      1.0000 0.64758  0.96718  0.15510  Biso   1.000  C
  H13      1.0000 0.60340  0.95620  0.05500  Biso   1.000  H
  H14      1.0000 0.67850  0.91610  0.15060  Biso   1.000  H
  N7       1.0000 0.67949  0.13520  0.60580  Biso   1.000  N
  N8       1.0000 0.50032  0.86850  0.69040  Biso   1.000  N
  Mn3      1.0000 0.03561  0.69753  0.54568  Biso   1.000  Mn
  O5       1.0000 0.95157  0.77110  0.40650  Biso   1.000  O
  C11      1.0000 0.78742  0.46489  0.54880  Biso   1.000  C
  C12      1.0000 0.20586  0.64593  0.77650  Biso   1.000  C
  O6       1.0000 0.81372  0.75655  0.24514  Biso   1.000  O
  C13      1.0000 0.89058  0.73365  0.27990  Biso   1.000  C
  N9       1.0000 0.86113  0.65326  0.99970  Biso   1.000  N
  H15      1.0000 0.84470  0.58880  0.94480  Biso   1.000  H
  H16      1.0000 0.91130  0.71360  0.93910  Biso   1.000  H
  C14      1.0000 0.90890  0.65467  0.16350  Biso   1.000  C
  H17      1.0000 0.86380  0.57730  0.20860  Biso   1.000  H
  N10      1.0000 0.06082  0.63294  0.30220  Biso   1.000  N
  H18      1.0000 0.13420  0.65010  0.29470  Biso   1.000  H
  H19      1.0000 0.01690  0.55630  0.30040  Biso   1.000  H
  C15      1.0000 0.03282  0.68040  0.15510  Biso   1.000  C
  H20      1.0000 0.04380  0.64720  0.05500  Biso   1.000  H
  H21      1.0000 0.08390  0.76240  0.15060  Biso   1.000  H
  N11      1.0000 0.86480  0.54429  0.60580  Biso   1.000  N
  N12      1.0000 0.13150  0.63182  0.69040  Biso   1.000  N
  Mn4      1.0000 0.69753  0.66192  0.04568  Biso   1.000  Mn
  O7       1.0000 0.77110  0.81953  0.90650  Biso   1.000  O
  C16      1.0000 0.46489  0.67747  0.04880  Biso   1.000  C
  C17      1.0000 0.64593  0.44007  0.27650  Biso   1.000  C
  O8       1.0000 0.75655  0.94283  0.74514  Biso   1.000  O
  C18      1.0000 0.73365  0.84307  0.77990  Biso   1.000  C
  N13      1.0000 0.65326  0.79213  0.49970  Biso   1.000  N
  H22      1.0000 0.58880  0.74410  0.44480  Biso   1.000  H
  H23      1.0000 0.71360  0.80230  0.43910  Biso   1.000  H
  C19      1.0000 0.65467  0.74577  0.66350  Biso   1.000  C
  H24      1.0000 0.57730  0.71350  0.70860  Biso   1.000  H
  N14      1.0000 0.63294  0.57212  0.80220  Biso   1.000  N
  H25      1.0000 0.65010  0.51590  0.79470  Biso   1.000  H
  H26      1.0000 0.55630  0.53940  0.80040  Biso   1.000  H
  C20      1.0000 0.68040  0.64758  0.65510  Biso   1.000  C
  H27      1.0000 0.64720  0.60340  0.55500  Biso   1.000  H
  H28      1.0000 0.76240  0.67850  0.65060  Biso   1.000  H
  N15      1.0000 0.54429  0.67949  0.10580  Biso   1.000  N
  N16      1.0000 0.63182  0.50032  0.19040  Biso   1.000  N
  Mn5      1.0000 0.33808  0.03561  0.04568  Biso   1.000  Mn
  O9       1.0000 0.18047  0.95157  0.90650  Biso   1.000  O
  C21      1.0000 0.32253  0.78742  0.04880  Biso   1.000  C
  C22      1.0000 0.55993  0.20586  0.27650  Biso   1.000  C
  O10      1.0000 0.05717  0.81372  0.74514  Biso   1.000  O
  C23      1.0000 0.15693  0.89058  0.77990  Biso   1.000  C
  N17      1.0000 0.20787  0.86113  0.49970  Biso   1.000  N
  H29      1.0000 0.25590  0.84470  0.44480  Biso   1.000  H
  H30      1.0000 0.19770  0.91130  0.43910  Biso   1.000  H
  C24      1.0000 0.25423  0.90890  0.66350  Biso   1.000  C
  H31      1.0000 0.28650  0.86380  0.70860  Biso   1.000  H
  N18      1.0000 0.42788  0.06082  0.80220  Biso   1.000  N
  H32      1.0000 0.48410  0.13420  0.79470  Biso   1.000  H
  H33      1.0000 0.46060  0.01690  0.80040  Biso   1.000  H
  C25      1.0000 0.35242  0.03282  0.65510  Biso   1.000  C
  H34      1.0000 0.39660  0.04380  0.55500  Biso   1.000  H
  H35      1.0000 0.32150  0.08390  0.65060  Biso   1.000  H
  N19      1.0000 0.32051  0.86480  0.10580  Biso   1.000  N
  N20      1.0000 0.49968  0.13150  0.19040  Biso   1.000  N
  Mn6      1.0000 0.96439  0.30247  0.04568  Biso   1.000  Mn
  O11      1.0000 0.04843  0.22890  0.90650  Biso   1.000  O
  C26      1.0000 0.21258  0.53511  0.04880  Biso   1.000  C
  C27      1.0000 0.79414  0.35407  0.27650  Biso   1.000  C
  O12      1.0000 0.18628  0.24345  0.74514  Biso   1.000  O
  C28      1.0000 0.10942  0.26635  0.77990  Biso   1.000  C
  N21      1.0000 0.13887  0.34674  0.49970  Biso   1.000  N
  H36      1.0000 0.15530  0.41120  0.44480  Biso   1.000  H
  H37      1.0000 0.08870  0.28640  0.43910  Biso   1.000  H
  C29      1.0000 0.09110  0.34533  0.66350  Biso   1.000  C
  H38      1.0000 0.13620  0.42270  0.70860  Biso   1.000  H
  N22      1.0000 0.93918  0.36706  0.80220  Biso   1.000  N
  H39      1.0000 0.86580  0.34990  0.79470  Biso   1.000  H
  H40      1.0000 0.98310  0.44370  0.80040  Biso   1.000  H
  C30      1.0000 0.96718  0.31960  0.65510  Biso   1.000  C
  H41      1.0000 0.95620  0.35280  0.55500  Biso   1.000  H
  H42      1.0000 0.91610  0.23760  0.65060  Biso   1.000  H
  N23      1.0000 0.13520  0.45571  0.10580  Biso   1.000  N
  N24      1.0000 0.86850  0.36818  0.19040  Biso   1.000  N
  Mn7      1.0000 0.33333  0.66667  0.92125  Biso   1.000  Mn
  Mn8      1.0000 0.66667  0.33333  0.42125  Biso   1.000  Mn
