data_image0
_cell_length_a       13.5214
_cell_length_b       13.5214
_cell_length_c       8.0686
_cell_angle_alpha    90
_cell_angle_beta     90
_cell_angle_gamma    120

_symmetry_space_group_name_H-M    "P 1"
_symmetry_int_tables_number       1

loop_
  _symmetry_equiv_pos_as_xyz
  'x, y, z'

loop_
  _atom_site_label
  _atom_site_occupancy
  _atom_site_fract_x
  _atom_site_fract_y
  _atom_site_fract_z
  _atom_site_thermal_displace_type
  _atom_site_B_iso_or_equiv
  _atom_site_type_symbol
  Mn1      1.0000 0.30139  0.33802  0.54531  Biso   1.000  Mn
  O1       1.0000 0.23003  0.18142  0.40680  Biso   1.000  O
  C1       1.0000 0.53482  0.32273  0.54860  Biso   1.000  C
  C2       1.0000 0.35370  0.55990  0.77660  Biso   1.000  C
  O2       1.0000 0.24578  0.05806  0.24680  Biso   1.000  O
  C3       1.0000 0.26770  0.15790  0.28030  Biso   1.000  C
  N1       1.0000 0.34680  0.20870  0.00070  Biso   1.000  N
  H1       1.0000 0.41120  0.25670  0.94590  Biso   1.000  H
  H2       1.0000 0.28650  0.19870  0.94040  Biso   1.000  H
  C4       1.0000 0.34560  0.25470  0.16390  Biso   1.000  C
  H3       1.0000 0.42310  0.28720  0.20840  Biso   1.000  H
  N2       1.0000 0.36580  0.42760  0.30330  Biso   1.000  N
  H4       1.0000 0.34820  0.48340  0.29560  Biso   1.000  H
  H5       1.0000 0.44250  0.46080  0.30200  Biso   1.000  H
  C5       1.0000 0.31950  0.35250  0.15670  Biso   1.000  C
  H6       1.0000 0.35270  0.39700  0.05700  Biso   1.000  H
  H7       1.0000 0.23750  0.32130  0.15170  Biso   1.000  H
  N3       1.0000 0.45600  0.32140  0.60370  Biso   1.000  N
  N4       1.0000 0.36800  0.50000  0.69100  Biso   1.000  N
  Mn2      1.0000 0.66198  0.96337  0.54531  Biso   1.000  Mn
  O3       1.0000 0.81858  0.04861  0.40680  Biso   1.000  O
  C6       1.0000 0.67727  0.21209  0.54860  Biso   1.000  C
  C7       1.0000 0.44010  0.79380  0.77660  Biso   1.000  C
  O4       1.0000 0.94194  0.18772  0.24680  Biso   1.000  O
  C8       1.0000 0.84210  0.10980  0.28030  Biso   1.000  C
  N5       1.0000 0.79130  0.13810  0.00070  Biso   1.000  N
  H8       1.0000 0.74330  0.15450  0.94590  Biso   1.000  H
  H9       1.0000 0.80130  0.08780  0.94040  Biso   1.000  H
  C9       1.0000 0.74530  0.09090  0.16390  Biso   1.000  C
  H10      1.0000 0.71280  0.13590  0.20840  Biso   1.000  H
  N6       1.0000 0.57240  0.93820  0.30330  Biso   1.000  N
  H11      1.0000 0.51660  0.86480  0.29560  Biso   1.000  H
  H12      1.0000 0.53920  0.98170  0.30200  Biso   1.000  H
  C10      1.0000 0.64750  0.96700  0.15670  Biso   1.000  C
  H13      1.0000 0.60300  0.95570  0.05700  Biso   1.000  H
  H14      1.0000 0.67870  0.91620  0.15170  Biso   1.000  H
  N7       1.0000 0.67860  0.13460  0.60370  Biso   1.000  N
  N8       1.0000 0.50000  0.86800  0.69100  Biso   1.000  N
  Mn3      1.0000 0.03663  0.69861  0.54531  Biso   1.000  Mn
  O5       1.0000 0.95139  0.76997  0.40680  Biso   1.000  O
  C11      1.0000 0.78791  0.46518  0.54860  Biso   1.000  C
  C12      1.0000 0.20620  0.64630  0.77660  Biso   1.000  C
  O6       1.0000 0.81228  0.75422  0.24680  Biso   1.000  O
  C13      1.0000 0.89020  0.73230  0.28030  Biso   1.000  C
  N9       1.0000 0.86190  0.65320  0.00070  Biso   1.000  N
  H15      1.0000 0.84550  0.58880  0.94590  Biso   1.000  H
  H16      1.0000 0.91220  0.71350  0.94040  Biso   1.000  H
  C14      1.0000 0.90910  0.65440  0.16390  Biso   1.000  C
  H17      1.0000 0.86410  0.57690  0.20840  Biso   1.000  H
  N10      1.0000 0.06180  0.63420  0.30330  Biso   1.000  N
  H18      1.0000 0.13520  0.65180  0.29560  Biso   1.000  H
  H19      1.0000 0.01830  0.55750  0.30200  Biso   1.000  H
  C15      1.0000 0.03300  0.68050  0.15670  Biso   1.000  C
  H20      1.0000 0.04430  0.64730  0.05700  Biso   1.000  H
  H21      1.0000 0.08380  0.76250  0.15170  Biso   1.000  H
  N11      1.0000 0.86540  0.54400  0.60370  Biso   1.000  N
  N12      1.0000 0.13200  0.63200  0.69100  Biso   1.000  N
  Mn4      1.0000 0.69861  0.66198  0.04531  Biso   1.000  Mn
  O7       1.0000 0.76997  0.81858  0.90680  Biso   1.000  O
  C16      1.0000 0.46518  0.67727  0.04860  Biso   1.000  C
  C17      1.0000 0.64630  0.44010  0.27660  Biso   1.000  C
  O8       1.0000 0.75422  0.94194  0.74680  Biso   1.000  O
  C18      1.0000 0.73230  0.84210  0.78030  Biso   1.000  C
  N13      1.0000 0.65320  0.79130  0.50070  Biso   1.000  N
  H22      1.0000 0.58880  0.74330  0.44590  Biso   1.000  H
  H23      1.0000 0.71350  0.80130  0.44040  Biso   1.000  H
  C19      1.0000 0.65440  0.74530  0.66390  Biso   1.000  C
  H24      1.0000 0.57690  0.71280  0.70840  Biso   1.000  H
  N14      1.0000 0.63420  0.57240  0.80330  Biso   1.000  N
  H25      1.0000 0.65180  0.51660  0.79560  Biso   1.000  H
  H26      1.0000 0.55750  0.53920  0.80200  Biso   1.000  H
  C20      1.0000 0.68050  0.64750  0.65670  Biso   1.000  C
  H27      1.0000 0.64730  0.60300  0.55700  Biso   1.000  H
  H28      1.0000 0.76250  0.67870  0.65170  Biso   1.000  H
  N15      1.0000 0.54400  0.67860  0.10370  Biso   1.000  N
  N16      1.0000 0.63200  0.50000  0.19100  Biso   1.000  N
  Mn5      1.0000 0.33802  0.03663  0.04531  Biso   1.000  Mn
  O9       1.0000 0.18142  0.95139  0.90680  Biso   1.000  O
  C21      1.0000 0.32273  0.78791  0.04860  Biso   1.000  C
  C22      1.0000 0.55990  0.20620  0.27660  Biso   1.000  C
  O10      1.0000 0.05806  0.81228  0.74680  Biso   1.000  O
  C23      1.0000 0.15790  0.89020  0.78030  Biso   1.000  C
  N17      1.0000 0.20870  0.86190  0.50070  Biso   1.000  N
  H29      1.0000 0.25670  0.84550  0.44590  Biso   1.000  H
  H30      1.0000 0.19870  0.91220  0.44040  Biso   1.000  H
  C24      1.0000 0.25470  0.90910  0.66390  Biso   1.000  C
  H31      1.0000 0.28720  0.86410  0.70840  Biso   1.000  H
  N18      1.0000 0.42760  0.06180  0.80330  Biso   1.000  N
  H32      1.0000 0.48340  0.13520  0.79560  Biso   1.000  H
  H33      1.0000 0.46080  0.01830  0.80200  Biso   1.000  H
  C25      1.0000 0.35250  0.03300  0.65670  Biso   1.000  C
  H34      1.0000 0.39700  0.04430  0.55700  Biso   1.000  H
  H35      1.0000 0.32130  0.08380  0.65170  Biso   1.000  H
  N19      1.0000 0.32140  0.86540  0.10370  Biso   1.000  N
  N20      1.0000 0.50000  0.13200  0.19100  Biso   1.000  N
  Mn6      1.0000 0.96337  0.30139  0.04531  Biso   1.000  Mn
  O11      1.0000 0.04861  0.23003  0.90680  Biso   1.000  O
  C26      1.0000 0.21209  0.53482  0.04860  Biso   1.000  C
  C27      1.0000 0.79380  0.35370  0.27660  Biso   1.000  C
  O12      1.0000 0.18772  0.24578  0.74680  Biso   1.000  O
  C28      1.0000 0.10980  0.26770  0.78030  Biso   1.000  C
  N21      1.0000 0.13810  0.34680  0.50070  Biso   1.000  N
  H36      1.0000 0.15450  0.41120  0.44590  Biso   1.000  H
  H37      1.0000 0.08780  0.28650  0.44040  Biso   1.000  H
  C29      1.0000 0.09090  0.34560  0.66390  Biso   1.000  C
  H38      1.0000 0.13590  0.42310  0.70840  Biso   1.000  H
  N22      1.0000 0.93820  0.36580  0.80330  Biso   1.000  N
  H39      1.0000 0.86480  0.34820  0.79560  Biso   1.000  H
  H40      1.0000 0.98170  0.44250  0.80200  Biso   1.000  H
  C30      1.0000 0.96700  0.31950  0.65670  Biso   1.000  C
  H41      1.0000 0.95570  0.35270  0.55700  Biso   1.000  H
  H42      1.0000 0.91620  0.23750  0.65170  Biso   1.000  H
  N23      1.0000 0.13460  0.45600  0.10370  Biso   1.000  N
  N24      1.0000 0.86800  0.36800  0.19100  Biso   1.000  N
  Mn7      1.0000 0.33333  0.66667  0.92189  Biso   1.000  Mn
  Mn8      1.0000 0.66667  0.33333  0.42189  Biso   1.000  Mn
