data_image0
_cell_length_a       13.5068
_cell_length_b       13.5068
_cell_length_c       8.0676
_cell_angle_alpha    90
_cell_angle_beta     90
_cell_angle_gamma    120

_symmetry_space_group_name_H-M    "P 1"
_symmetry_int_tables_number       1

loop_
  _symmetry_equiv_pos_as_xyz
  'x, y, z'

loop_
  _atom_site_label
  _atom_site_occupancy
  _atom_site_fract_x
  _atom_site_fract_y
  _atom_site_fract_z
  _atom_site_thermal_displace_type
  _atom_site_B_iso_or_equiv
  _atom_site_type_symbol
  Mn1      1.0000 0.30249  0.33787  0.54595  Biso   1.000  Mn
  O1       1.0000 0.22970  0.18051  0.40702  Biso   1.000  O
  C1       1.0000 0.53539  0.32267  0.54860  Biso   1.000  C
  C2       1.0000 0.35424  0.56007  0.77620  Biso   1.000  C
  O2       1.0000 0.24420  0.05708  0.24600  Biso   1.000  O
  C3       1.0000 0.26685  0.15690  0.28060  Biso   1.000  C
  N1       1.0000 0.34672  0.20793  0.00035  Biso   1.000  N
  H1       1.0000 0.41120  0.25590  0.94540  Biso   1.000  H
  H2       1.0000 0.28640  0.19790  0.94000  Biso   1.000  H
  C4       1.0000 0.34553  0.25434  0.16400  Biso   1.000  C
  H3       1.0000 0.42310  0.28670  0.20870  Biso   1.000  H
  N2       1.0000 0.36695  0.42765  0.30300  Biso   1.000  N
  H4       1.0000 0.34970  0.48380  0.29550  Biso   1.000  H
  H5       1.0000 0.44360  0.46050  0.30120  Biso   1.000  H
  C5       1.0000 0.31970  0.35247  0.15620  Biso   1.000  C
  H6       1.0000 0.35280  0.39680  0.05630  Biso   1.000  H
  H7       1.0000 0.23760  0.32150  0.15170  Biso   1.000  H
  N3       1.0000 0.45618  0.32068  0.60580  Biso   1.000  N
  N4       1.0000 0.36840  0.49985  0.69010  Biso   1.000  N
  Mn2      1.0000 0.66213  0.96462  0.54595  Biso   1.000  Mn
  O3       1.0000 0.81949  0.04919  0.40702  Biso   1.000  O
  C6       1.0000 0.67733  0.21272  0.54860  Biso   1.000  C
  C7       1.0000 0.43993  0.79417  0.77620  Biso   1.000  C
  O4       1.0000 0.94292  0.18712  0.24600  Biso   1.000  O
  C8       1.0000 0.84310  0.10995  0.28060  Biso   1.000  C
  N5       1.0000 0.79207  0.13879  0.00035  Biso   1.000  N
  H8       1.0000 0.74410  0.15530  0.94540  Biso   1.000  H
  H9       1.0000 0.80210  0.08850  0.94000  Biso   1.000  H
  C9       1.0000 0.74566  0.09119  0.16400  Biso   1.000  C
  H10      1.0000 0.71330  0.13640  0.20870  Biso   1.000  H
  N6       1.0000 0.57235  0.93930  0.30300  Biso   1.000  N
  H11      1.0000 0.51620  0.86590  0.29550  Biso   1.000  H
  H12      1.0000 0.53950  0.98310  0.30120  Biso   1.000  H
  C10      1.0000 0.64753  0.96723  0.15620  Biso   1.000  C
  H13      1.0000 0.60320  0.95600  0.05630  Biso   1.000  H
  H14      1.0000 0.67850  0.91610  0.15170  Biso   1.000  H
  N7       1.0000 0.67932  0.13550  0.60580  Biso   1.000  N
  N8       1.0000 0.50015  0.86855  0.69010  Biso   1.000  N
  Mn3      1.0000 0.03538  0.69751  0.54595  Biso   1.000  Mn
  O5       1.0000 0.95081  0.77030  0.40702  Biso   1.000  O
  C11      1.0000 0.78728  0.46461  0.54860  Biso   1.000  C
  C12      1.0000 0.20583  0.64576  0.77620  Biso   1.000  C
  O6       1.0000 0.81288  0.75580  0.24600  Biso   1.000  O
  C13      1.0000 0.89005  0.73315  0.28060  Biso   1.000  C
  N9       1.0000 0.86121  0.65328  0.00035  Biso   1.000  N
  H15      1.0000 0.84470  0.58880  0.94540  Biso   1.000  H
  H16      1.0000 0.91150  0.71360  0.94000  Biso   1.000  H
  C14      1.0000 0.90881  0.65447  0.16400  Biso   1.000  C
  H17      1.0000 0.86360  0.57690  0.20870  Biso   1.000  H
  N10      1.0000 0.06070  0.63305  0.30300  Biso   1.000  N
  H18      1.0000 0.13410  0.65030  0.29550  Biso   1.000  H
  H19      1.0000 0.01690  0.55640  0.30120  Biso   1.000  H
  C15      1.0000 0.03277  0.68030  0.15620  Biso   1.000  C
  H20      1.0000 0.04400  0.64720  0.05630  Biso   1.000  H
  H21      1.0000 0.08390  0.76240  0.15170  Biso   1.000  H
  N11      1.0000 0.86450  0.54382  0.60580  Biso   1.000  N
  N12      1.0000 0.13145  0.63160  0.69010  Biso   1.000  N
  Mn4      1.0000 0.69751  0.66213  0.04595  Biso   1.000  Mn
  O7       1.0000 0.77030  0.81949  0.90702  Biso   1.000  O
  C16      1.0000 0.46461  0.67733  0.04860  Biso   1.000  C
  C17      1.0000 0.64576  0.43993  0.27620  Biso   1.000  C
  O8       1.0000 0.75580  0.94292  0.74600  Biso   1.000  O
  C18      1.0000 0.73315  0.84310  0.78060  Biso   1.000  C
  N13      1.0000 0.65328  0.79207  0.50035  Biso   1.000  N
  H22      1.0000 0.58880  0.74410  0.44540  Biso   1.000  H
  H23      1.0000 0.71360  0.80210  0.44000  Biso   1.000  H
  C19      1.0000 0.65447  0.74566  0.66400  Biso   1.000  C
  H24      1.0000 0.57690  0.71330  0.70870  Biso   1.000  H
  N14      1.0000 0.63305  0.57235  0.80300  Biso   1.000  N
  H25      1.0000 0.65030  0.51620  0.79550  Biso   1.000  H
  H26      1.0000 0.55640  0.53950  0.80120  Biso   1.000  H
  C20      1.0000 0.68030  0.64753  0.65620  Biso   1.000  C
  H27      1.0000 0.64720  0.60320  0.55630  Biso   1.000  H
  H28      1.0000 0.76240  0.67850  0.65170  Biso   1.000  H
  N15      1.0000 0.54382  0.67932  0.10580  Biso   1.000  N
  N16      1.0000 0.63160  0.50015  0.19010  Biso   1.000  N
  Mn5      1.0000 0.33787  0.03538  0.04595  Biso   1.000  Mn
  O9       1.0000 0.18051  0.95081  0.90702  Biso   1.000  O
  C21      1.0000 0.32267  0.78728  0.04860  Biso   1.000  C
  C22      1.0000 0.56007  0.20583  0.27620  Biso   1.000  C
  O10      1.0000 0.05708  0.81288  0.74600  Biso   1.000  O
  C23      1.0000 0.15690  0.89005  0.78060  Biso   1.000  C
  N17      1.0000 0.20793  0.86121  0.50035  Biso   1.000  N
  H29      1.0000 0.25590  0.84470  0.44540  Biso   1.000  H
  H30      1.0000 0.19790  0.91150  0.44000  Biso   1.000  H
  C24      1.0000 0.25434  0.90881  0.66400  Biso   1.000  C
  H31      1.0000 0.28670  0.86360  0.70870  Biso   1.000  H
  N18      1.0000 0.42765  0.06070  0.80300  Biso   1.000  N
  H32      1.0000 0.48380  0.13410  0.79550  Biso   1.000  H
  H33      1.0000 0.46050  0.01690  0.80120  Biso   1.000  H
  C25      1.0000 0.35247  0.03277  0.65620  Biso   1.000  C
  H34      1.0000 0.39680  0.04400  0.55630  Biso   1.000  H
  H35      1.0000 0.32150  0.08390  0.65170  Biso   1.000  H
  N19      1.0000 0.32068  0.86450  0.10580  Biso   1.000  N
  N20      1.0000 0.49985  0.13145  0.19010  Biso   1.000  N
  Mn6      1.0000 0.96462  0.30249  0.04595  Biso   1.000  Mn
  O11      1.0000 0.04919  0.22970  0.90702  Biso   1.000  O
  C26      1.0000 0.21272  0.53539  0.04860  Biso   1.000  C
  C27      1.0000 0.79417  0.35424  0.27620  Biso   1.000  C
  O12      1.0000 0.18712  0.24420  0.74600  Biso   1.000  O
  C28      1.0000 0.10995  0.26685  0.78060  Biso   1.000  C
  N21      1.0000 0.13879  0.34672  0.50035  Biso   1.000  N
  H36      1.0000 0.15530  0.41120  0.44540  Biso   1.000  H
  H37      1.0000 0.08850  0.28640  0.44000  Biso   1.000  H
  C29      1.0000 0.09119  0.34553  0.66400  Biso   1.000  C
  H38      1.0000 0.13640  0.42310  0.70870  Biso   1.000  H
  N22      1.0000 0.93930  0.36695  0.80300  Biso   1.000  N
  H39      1.0000 0.86590  0.34970  0.79550  Biso   1.000  H
  H40      1.0000 0.98310  0.44360  0.80120  Biso   1.000  H
  C30      1.0000 0.96723  0.31970  0.65620  Biso   1.000  C
  H41      1.0000 0.95600  0.35280  0.55630  Biso   1.000  H
  H42      1.0000 0.91610  0.23760  0.65170  Biso   1.000  H
  N23      1.0000 0.13550  0.45618  0.10580  Biso   1.000  N
  N24      1.0000 0.86855  0.36840  0.19010  Biso   1.000  N
  Mn7      1.0000 0.33333  0.66667  0.92056  Biso   1.000  Mn
  Mn8      1.0000 0.66667  0.33333  0.42056  Biso   1.000  Mn
