data_image0
_cell_length_a       13.5263
_cell_length_b       13.5263
_cell_length_c       8.0567
_cell_angle_alpha    90
_cell_angle_beta     90
_cell_angle_gamma    120

_symmetry_space_group_name_H-M    "P 1"
_symmetry_int_tables_number       1

loop_
  _symmetry_equiv_pos_as_xyz
  'x, y, z'

loop_
  _atom_site_label
  _atom_site_occupancy
  _atom_site_fract_x
  _atom_site_fract_y
  _atom_site_fract_z
  _atom_site_thermal_displace_type
  _atom_site_B_iso_or_equiv
  _atom_site_type_symbol
  C1       1.0000 0.35426  0.56009  0.72420  Biso   1.000  C
  C2       1.0000 0.46465  0.67738  0.45110  Biso   1.000  C
  N1       1.0000 0.36859  0.50032  0.81020  Biso   1.000  N
  Mn1      1.0000 0.30250  0.33791  0.95413  Biso   1.000  Mn
  O1       1.0000 0.22991  0.18078  0.09280  Biso   1.000  O
  N2       1.0000 0.36678  0.42724  0.19760  Biso   1.000  N
  N3       1.0000 0.45632  0.32084  0.89370  Biso   1.000  N
  O2       1.0000 0.18784  0.24517  0.75310  Biso   1.000  O
  N4       1.0000 0.13888  0.34651  0.99970  Biso   1.000  N
  C3       1.0000 0.26724  0.15694  0.21910  Biso   1.000  C
  H1       1.0000 0.44330  0.46000  0.19940  Biso   1.000  H
  H2       1.0000 0.34950  0.48330  0.20530  Biso   1.000  H
  C4       1.0000 0.31960  0.35190  0.34410  Biso   1.000  C
  C5       1.0000 0.34566  0.25420  0.33600  Biso   1.000  C
  H3       1.0000 0.23760  0.32080  0.34840  Biso   1.000  H
  H4       1.0000 0.35240  0.39600  0.44440  Biso   1.000  H
  H5       1.0000 0.42320  0.28670  0.29150  Biso   1.000  H
  H6       1.0000 0.28610  0.19750  0.55990  Biso   1.000  H
  H7       1.0000 0.41070  0.25550  0.55500  Biso   1.000  H
  C6       1.0000 0.43991  0.79417  0.72420  Biso   1.000  C
  C7       1.0000 0.32262  0.78727  0.45110  Biso   1.000  C
  N5       1.0000 0.49968  0.86827  0.81020  Biso   1.000  N
  Mn2      1.0000 0.66209  0.96459  0.95413  Biso   1.000  Mn
  O3       1.0000 0.81922  0.04913  0.09280  Biso   1.000  O
  N6       1.0000 0.57276  0.93954  0.19760  Biso   1.000  N
  N7       1.0000 0.67916  0.13548  0.89370  Biso   1.000  N
  O4       1.0000 0.75483  0.94267  0.75310  Biso   1.000  O
  N8       1.0000 0.65349  0.79237  0.99970  Biso   1.000  N
  C8       1.0000 0.84306  0.11030  0.21910  Biso   1.000  C
  H8       1.0000 0.54000  0.98330  0.19940  Biso   1.000  H
  H9       1.0000 0.51670  0.86620  0.20530  Biso   1.000  H
  C9       1.0000 0.64810  0.96770  0.34410  Biso   1.000  C
  C10      1.0000 0.74580  0.09146  0.33600  Biso   1.000  C
  H10      1.0000 0.67920  0.91680  0.34840  Biso   1.000  H
  H11      1.0000 0.60400  0.95640  0.44440  Biso   1.000  H
  H12      1.0000 0.71330  0.13650  0.29150  Biso   1.000  H
  H13      1.0000 0.80250  0.08860  0.55990  Biso   1.000  H
  H14      1.0000 0.74450  0.15520  0.55500  Biso   1.000  H
  C11      1.0000 0.20583  0.64574  0.72420  Biso   1.000  C
  C12      1.0000 0.21273  0.53535  0.45110  Biso   1.000  C
  N9       1.0000 0.13173  0.63141  0.81020  Biso   1.000  N
  Mn3      1.0000 0.03541  0.69750  0.95413  Biso   1.000  Mn
  O5       1.0000 0.95087  0.77009  0.09280  Biso   1.000  O
  N10      1.0000 0.06046  0.63322  0.19760  Biso   1.000  N
  N11      1.0000 0.86452  0.54368  0.89370  Biso   1.000  N
  O6       1.0000 0.05733  0.81216  0.75310  Biso   1.000  O
  N12      1.0000 0.20763  0.86112  0.99970  Biso   1.000  N
  C13      1.0000 0.88970  0.73276  0.21910  Biso   1.000  C
  H15      1.0000 0.01670  0.55670  0.19940  Biso   1.000  H
  H16      1.0000 0.13380  0.65050  0.20530  Biso   1.000  H
  C14      1.0000 0.03230  0.68040  0.34410  Biso   1.000  C
  C15      1.0000 0.90854  0.65434  0.33600  Biso   1.000  C
  H17      1.0000 0.08320  0.76240  0.34840  Biso   1.000  H
  H18      1.0000 0.04360  0.64760  0.44440  Biso   1.000  H
  H19      1.0000 0.86350  0.57680  0.29150  Biso   1.000  H
  H20      1.0000 0.91140  0.71390  0.55990  Biso   1.000  H
  H21      1.0000 0.84480  0.58930  0.55500  Biso   1.000  H
  C16      1.0000 0.64574  0.43991  0.22420  Biso   1.000  C
  C17      1.0000 0.53535  0.32262  0.95110  Biso   1.000  C
  N13      1.0000 0.63141  0.49968  0.31020  Biso   1.000  N
  Mn4      1.0000 0.69750  0.66209  0.45413  Biso   1.000  Mn
  O7       1.0000 0.77009  0.81922  0.59280  Biso   1.000  O
  N14      1.0000 0.63322  0.57276  0.69760  Biso   1.000  N
  N15      1.0000 0.54368  0.67916  0.39370  Biso   1.000  N
  O8       1.0000 0.81216  0.75483  0.25310  Biso   1.000  O
  N16      1.0000 0.86112  0.65349  0.49970  Biso   1.000  N
  C18      1.0000 0.73276  0.84306  0.71910  Biso   1.000  C
  H22      1.0000 0.55670  0.54000  0.69940  Biso   1.000  H
  H23      1.0000 0.65050  0.51670  0.70530  Biso   1.000  H
  C19      1.0000 0.68040  0.64810  0.84410  Biso   1.000  C
  C20      1.0000 0.65434  0.74580  0.83600  Biso   1.000  C
  H24      1.0000 0.76240  0.67920  0.84840  Biso   1.000  H
  H25      1.0000 0.64760  0.60400  0.94440  Biso   1.000  H
  H26      1.0000 0.57680  0.71330  0.79150  Biso   1.000  H
  H27      1.0000 0.71390  0.80250  0.05990  Biso   1.000  H
  H28      1.0000 0.58930  0.74450  0.05500  Biso   1.000  H
  C21      1.0000 0.56009  0.20583  0.22420  Biso   1.000  C
  C22      1.0000 0.67738  0.21273  0.95110  Biso   1.000  C
  N17      1.0000 0.50032  0.13173  0.31020  Biso   1.000  N
  Mn5      1.0000 0.33791  0.03541  0.45413  Biso   1.000  Mn
  O9       1.0000 0.18078  0.95087  0.59280  Biso   1.000  O
  N18      1.0000 0.42724  0.06046  0.69760  Biso   1.000  N
  N19      1.0000 0.32084  0.86452  0.39370  Biso   1.000  N
  O10      1.0000 0.24517  0.05733  0.25310  Biso   1.000  O
  N20      1.0000 0.34651  0.20763  0.49970  Biso   1.000  N
  C23      1.0000 0.15694  0.88970  0.71910  Biso   1.000  C
  H29      1.0000 0.46000  0.01670  0.69940  Biso   1.000  H
  H30      1.0000 0.48330  0.13380  0.70530  Biso   1.000  H
  C24      1.0000 0.35190  0.03230  0.84410  Biso   1.000  C
  C25      1.0000 0.25420  0.90854  0.83600  Biso   1.000  C
  H31      1.0000 0.32080  0.08320  0.84840  Biso   1.000  H
  H32      1.0000 0.39600  0.04360  0.94440  Biso   1.000  H
  H33      1.0000 0.28670  0.86350  0.79150  Biso   1.000  H
  H34      1.0000 0.19750  0.91140  0.05990  Biso   1.000  H
  H35      1.0000 0.25550  0.84480  0.05500  Biso   1.000  H
  C26      1.0000 0.79417  0.35426  0.22420  Biso   1.000  C
  C27      1.0000 0.78727  0.46465  0.95110  Biso   1.000  C
  N21      1.0000 0.86827  0.36859  0.31020  Biso   1.000  N
  Mn6      1.0000 0.96459  0.30250  0.45413  Biso   1.000  Mn
  O11      1.0000 0.04913  0.22991  0.59280  Biso   1.000  O
  N22      1.0000 0.93954  0.36678  0.69760  Biso   1.000  N
  N23      1.0000 0.13548  0.45632  0.39370  Biso   1.000  N
  O12      1.0000 0.94267  0.18784  0.25310  Biso   1.000  O
  N24      1.0000 0.79237  0.13888  0.49970  Biso   1.000  N
  C28      1.0000 0.11030  0.26724  0.71910  Biso   1.000  C
  H36      1.0000 0.98330  0.44330  0.69940  Biso   1.000  H
  H37      1.0000 0.86620  0.34950  0.70530  Biso   1.000  H
  C29      1.0000 0.96770  0.31960  0.84410  Biso   1.000  C
  C30      1.0000 0.09146  0.34566  0.83600  Biso   1.000  C
  H38      1.0000 0.91680  0.23760  0.84840  Biso   1.000  H
  H39      1.0000 0.95640  0.35240  0.94440  Biso   1.000  H
  H40      1.0000 0.13650  0.42320  0.79150  Biso   1.000  H
  H41      1.0000 0.08860  0.28610  0.05990  Biso   1.000  H
  H42      1.0000 0.15520  0.41070  0.05500  Biso   1.000  H
  Mn7      1.0000 0.33333  0.66667  0.57942  Biso   1.000  Mn
  Mn8      1.0000 0.66667  0.33333  0.07942  Biso   1.000  Mn
