data_image0
_cell_length_a       13.4917
_cell_length_b       13.4917
_cell_length_c       8.0644
_cell_angle_alpha    90
_cell_angle_beta     90
_cell_angle_gamma    120

_symmetry_space_group_name_H-M    "P 1"
_symmetry_int_tables_number       1

loop_
  _symmetry_equiv_pos_as_xyz
  'x, y, z'

loop_
  _atom_site_label
  _atom_site_occupancy
  _atom_site_fract_x
  _atom_site_fract_y
  _atom_site_fract_z
  _atom_site_thermal_displace_type
  _atom_site_B_iso_or_equiv
  _atom_site_type_symbol
  Mn1      1.0000 0.30259  0.33801  0.95420  Biso   1.000  Mn
  O1       1.0000 0.22856  0.18034  0.09360  Biso   1.000  O
  C1       1.0000 0.53517  0.32237  0.95090  Biso   1.000  C
  C2       1.0000 0.35398  0.55983  0.72340  Biso   1.000  C
  O2       1.0000 0.24225  0.05669  0.25590  Biso   1.000  O
  C3       1.0000 0.26591  0.15691  0.22050  Biso   1.000  C
  N1       1.0000 0.34703  0.20836  0.50000  Biso   1.000  N
  H1       1.0000 0.28680  0.19840  0.56070  Biso   1.000  H
  H2       1.0000 0.41170  0.25650  0.55440  Biso   1.000  H
  C4       1.0000 0.34531  0.25425  0.33590  Biso   1.000  C
  H3       1.0000 0.42270  0.28630  0.29040  Biso   1.000  H
  N2       1.0000 0.36693  0.42807  0.19720  Biso   1.000  N
  H4       1.0000 0.44370  0.46110  0.19890  Biso   1.000  H
  H5       1.0000 0.34950  0.48420  0.20450  Biso   1.000  H
  C5       1.0000 0.31980  0.35290  0.34400  Biso   1.000  C
  H6       1.0000 0.23770  0.32210  0.34880  Biso   1.000  H
  H7       1.0000 0.35320  0.39730  0.44390  Biso   1.000  H
  N3       1.0000 0.45563  0.32038  0.89410  Biso   1.000  N
  N4       1.0000 0.36820  0.49931  0.80910  Biso   1.000  N
  Mn2      1.0000 0.66199  0.96458  0.95420  Biso   1.000  Mn
  O3       1.0000 0.81966  0.04822  0.09360  Biso   1.000  O
  C6       1.0000 0.67763  0.21280  0.95090  Biso   1.000  C
  C7       1.0000 0.44017  0.79415  0.72340  Biso   1.000  C
  O4       1.0000 0.94331  0.18556  0.25590  Biso   1.000  O
  C8       1.0000 0.84309  0.10900  0.22050  Biso   1.000  C
  N5       1.0000 0.79164  0.13867  0.50000  Biso   1.000  N
  H8       1.0000 0.80160  0.08840  0.56070  Biso   1.000  H
  H9       1.0000 0.74350  0.15520  0.55440  Biso   1.000  H
  C9       1.0000 0.74575  0.09106  0.33590  Biso   1.000  C
  H10      1.0000 0.71370  0.13640  0.29040  Biso   1.000  H
  N6       1.0000 0.57193  0.93886  0.19720  Biso   1.000  N
  H11      1.0000 0.53890  0.98260  0.19890  Biso   1.000  H
  H12      1.0000 0.51580  0.86530  0.20450  Biso   1.000  H
  C10      1.0000 0.64710  0.96690  0.34400  Biso   1.000  C
  H13      1.0000 0.67790  0.91560  0.34880  Biso   1.000  H
  H14      1.0000 0.60270  0.95590  0.44390  Biso   1.000  H
  N7       1.0000 0.67962  0.13525  0.89410  Biso   1.000  N
  N8       1.0000 0.50069  0.86889  0.80910  Biso   1.000  N
  Mn3      1.0000 0.03542  0.69741  0.95420  Biso   1.000  Mn
  O5       1.0000 0.95178  0.77144  0.09360  Biso   1.000  O
  C11      1.0000 0.78720  0.46483  0.95090  Biso   1.000  C
  C12      1.0000 0.20585  0.64602  0.72340  Biso   1.000  C
  O6       1.0000 0.81444  0.75775  0.25590  Biso   1.000  O
  C13      1.0000 0.89100  0.73409  0.22050  Biso   1.000  C
  N9       1.0000 0.86133  0.65297  0.50000  Biso   1.000  N
  H15      1.0000 0.91160  0.71320  0.56070  Biso   1.000  H
  H16      1.0000 0.84480  0.58830  0.55440  Biso   1.000  H
  C14      1.0000 0.90894  0.65469  0.33590  Biso   1.000  C
  H17      1.0000 0.86360  0.57730  0.29040  Biso   1.000  H
  N10      1.0000 0.06114  0.63307  0.19720  Biso   1.000  N
  H18      1.0000 0.01740  0.55630  0.19890  Biso   1.000  H
  H19      1.0000 0.13470  0.65050  0.20450  Biso   1.000  H
  C15      1.0000 0.03310  0.68020  0.34400  Biso   1.000  C
  H20      1.0000 0.08440  0.76230  0.34880  Biso   1.000  H
  H21      1.0000 0.04410  0.64680  0.44390  Biso   1.000  H
  N11      1.0000 0.86475  0.54437  0.89410  Biso   1.000  N
  N12      1.0000 0.13111  0.63180  0.80910  Biso   1.000  N
  Mn4      1.0000 0.69741  0.66199  0.45420  Biso   1.000  Mn
  O7       1.0000 0.77144  0.81966  0.59360  Biso   1.000  O
  C16      1.0000 0.46483  0.67763  0.45090  Biso   1.000  C
  C17      1.0000 0.64602  0.44017  0.22340  Biso   1.000  C
  O8       1.0000 0.75775  0.94331  0.75590  Biso   1.000  O
  C18      1.0000 0.73409  0.84309  0.72050  Biso   1.000  C
  N13      1.0000 0.65297  0.79164  0.00000  Biso   1.000  N
  H22      1.0000 0.71320  0.80160  0.06070  Biso   1.000  H
  H23      1.0000 0.58830  0.74350  0.05440  Biso   1.000  H
  C19      1.0000 0.65469  0.74575  0.83590  Biso   1.000  C
  H24      1.0000 0.57730  0.71370  0.79040  Biso   1.000  H
  N14      1.0000 0.63307  0.57193  0.69720  Biso   1.000  N
  H25      1.0000 0.55630  0.53890  0.69890  Biso   1.000  H
  H26      1.0000 0.65050  0.51580  0.70450  Biso   1.000  H
  C20      1.0000 0.68020  0.64710  0.84400  Biso   1.000  C
  H27      1.0000 0.76230  0.67790  0.84880  Biso   1.000  H
  H28      1.0000 0.64680  0.60270  0.94390  Biso   1.000  H
  N15      1.0000 0.54437  0.67962  0.39410  Biso   1.000  N
  N16      1.0000 0.63180  0.50069  0.30910  Biso   1.000  N
  Mn5      1.0000 0.33801  0.03542  0.45420  Biso   1.000  Mn
  O9       1.0000 0.18034  0.95178  0.59360  Biso   1.000  O
  C21      1.0000 0.32237  0.78720  0.45090  Biso   1.000  C
  C22      1.0000 0.55983  0.20585  0.22340  Biso   1.000  C
  O10      1.0000 0.05669  0.81444  0.75590  Biso   1.000  O
  C23      1.0000 0.15691  0.89100  0.72050  Biso   1.000  C
  N17      1.0000 0.20836  0.86133  0.00000  Biso   1.000  N
  H29      1.0000 0.19840  0.91160  0.06070  Biso   1.000  H
  H30      1.0000 0.25650  0.84480  0.05440  Biso   1.000  H
  C24      1.0000 0.25425  0.90894  0.83590  Biso   1.000  C
  H31      1.0000 0.28630  0.86360  0.79040  Biso   1.000  H
  N18      1.0000 0.42807  0.06114  0.69720  Biso   1.000  N
  H32      1.0000 0.46110  0.01740  0.69890  Biso   1.000  H
  H33      1.0000 0.48420  0.13470  0.70450  Biso   1.000  H
  C25      1.0000 0.35290  0.03310  0.84400  Biso   1.000  C
  H34      1.0000 0.32210  0.08440  0.84880  Biso   1.000  H
  H35      1.0000 0.39730  0.04410  0.94390  Biso   1.000  H
  N19      1.0000 0.32038  0.86475  0.39410  Biso   1.000  N
  N20      1.0000 0.49931  0.13111  0.30910  Biso   1.000  N
  Mn6      1.0000 0.96458  0.30259  0.45420  Biso   1.000  Mn
  O11      1.0000 0.04822  0.22856  0.59360  Biso   1.000  O
  C26      1.0000 0.21280  0.53517  0.45090  Biso   1.000  C
  C27      1.0000 0.79415  0.35398  0.22340  Biso   1.000  C
  O12      1.0000 0.18556  0.24225  0.75590  Biso   1.000  O
  C28      1.0000 0.10900  0.26591  0.72050  Biso   1.000  C
  N21      1.0000 0.13867  0.34703  0.00000  Biso   1.000  N
  H36      1.0000 0.08840  0.28680  0.06070  Biso   1.000  H
  H37      1.0000 0.15520  0.41170  0.05440  Biso   1.000  H
  C29      1.0000 0.09106  0.34531  0.83590  Biso   1.000  C
  H38      1.0000 0.13640  0.42270  0.79040  Biso   1.000  H
  N22      1.0000 0.93886  0.36693  0.69720  Biso   1.000  N
  H39      1.0000 0.98260  0.44370  0.69890  Biso   1.000  H
  H40      1.0000 0.86530  0.34950  0.70450  Biso   1.000  H
  C30      1.0000 0.96690  0.31980  0.84400  Biso   1.000  C
  H41      1.0000 0.91560  0.23770  0.84880  Biso   1.000  H
  H42      1.0000 0.95590  0.35320  0.94390  Biso   1.000  H
  N23      1.0000 0.13525  0.45563  0.39410  Biso   1.000  N
  N24      1.0000 0.86889  0.36820  0.30910  Biso   1.000  N
  Mn7      1.0000 0.33333  0.66667  0.57888  Biso   1.000  Mn
  Mn8      1.0000 0.66667  0.33333  0.07888  Biso   1.000  Mn
