data_image0
_cell_length_a       13.4873
_cell_length_b       13.4873
_cell_length_c       8.0256
_cell_angle_alpha    90
_cell_angle_beta     90
_cell_angle_gamma    120

_symmetry_space_group_name_H-M    "P 1"
_symmetry_int_tables_number       1

loop_
  _symmetry_equiv_pos_as_xyz
  'x, y, z'

loop_
  _atom_site_label
  _atom_site_occupancy
  _atom_site_fract_x
  _atom_site_fract_y
  _atom_site_fract_z
  _atom_site_thermal_displace_type
  _atom_site_B_iso_or_equiv
  _atom_site_type_symbol
  Mn1      1.0000 0.30158  0.33859  0.54474  Biso   1.000  Mn
  O1       1.0000 0.22616  0.18084  0.40370  Biso   1.000  O
  C1       1.0000 0.53366  0.32224  0.54860  Biso   1.000  C
  C2       1.0000 0.35340  0.55970  0.77860  Biso   1.000  C
  O2       1.0000 0.24023  0.05707  0.24220  Biso   1.000  O
  C3       1.0000 0.26440  0.15780  0.27730  Biso   1.000  C
  N1       1.0000 0.34820  0.20990  0.99820  Biso   1.000  N
  H1       1.0000 0.41350  0.25820  0.94470  Biso   1.000  H
  H2       1.0000 0.28850  0.20020  0.93600  Biso   1.000  H
  C4       1.0000 0.34500  0.25510  0.16310  Biso   1.000  C
  H3       1.0000 0.42190  0.28660  0.21040  Biso   1.000  H
  N2       1.0000 0.36661  0.42887  0.30120  Biso   1.000  N
  H4       1.0000 0.34910  0.48490  0.29370  Biso   1.000  H
  H5       1.0000 0.44340  0.46200  0.30010  Biso   1.000  H
  C5       1.0000 0.32040  0.35430  0.15350  Biso   1.000  C
  H6       1.0000 0.35490  0.39870  0.05360  Biso   1.000  H
  H7       1.0000 0.23840  0.32400  0.14710  Biso   1.000  H
  N3       1.0000 0.45440  0.32060  0.60390  Biso   1.000  N
  N4       1.0000 0.36670  0.49920  0.69290  Biso   1.000  N
  Mn2      1.0000 0.66141  0.96299  0.54474  Biso   1.000  Mn
  O3       1.0000 0.81916  0.04532  0.40370  Biso   1.000  O
  C6       1.0000 0.67776  0.21142  0.54860  Biso   1.000  C
  C7       1.0000 0.44030  0.79370  0.77860  Biso   1.000  C
  O4       1.0000 0.94293  0.18316  0.24220  Biso   1.000  O
  C8       1.0000 0.84220  0.10660  0.27730  Biso   1.000  C
  N5       1.0000 0.79010  0.13830  0.99820  Biso   1.000  N
  H8       1.0000 0.74180  0.15530  0.94470  Biso   1.000  H
  H9       1.0000 0.79980  0.08830  0.93600  Biso   1.000  H
  C9       1.0000 0.74490  0.08990  0.16310  Biso   1.000  C
  H10      1.0000 0.71340  0.13530  0.21040  Biso   1.000  H
  N6       1.0000 0.57113  0.93774  0.30120  Biso   1.000  N
  H11      1.0000 0.51510  0.86420  0.29370  Biso   1.000  H
  H12      1.0000 0.53800  0.98140  0.30010  Biso   1.000  H
  C10      1.0000 0.64570  0.96610  0.15350  Biso   1.000  C
  H13      1.0000 0.60130  0.95620  0.05360  Biso   1.000  H
  H14      1.0000 0.67600  0.91440  0.14710  Biso   1.000  H
  N7       1.0000 0.67940  0.13380  0.60390  Biso   1.000  N
  N8       1.0000 0.50080  0.86750  0.69290  Biso   1.000  N
  Mn3      1.0000 0.03701  0.69842  0.54474  Biso   1.000  Mn
  O5       1.0000 0.95468  0.77384  0.40370  Biso   1.000  O
  C11      1.0000 0.78858  0.46634  0.54860  Biso   1.000  C
  C12      1.0000 0.20630  0.64660  0.77860  Biso   1.000  C
  O6       1.0000 0.81684  0.75977  0.24220  Biso   1.000  O
  C13      1.0000 0.89340  0.73560  0.27730  Biso   1.000  C
  N9       1.0000 0.86170  0.65180  0.99820  Biso   1.000  N
  H15      1.0000 0.84470  0.58650  0.94470  Biso   1.000  H
  H16      1.0000 0.91170  0.71150  0.93600  Biso   1.000  H
  C14      1.0000 0.91010  0.65500  0.16310  Biso   1.000  C
  H17      1.0000 0.86470  0.57810  0.21040  Biso   1.000  H
  N10      1.0000 0.06226  0.63339  0.30120  Biso   1.000  N
  H18      1.0000 0.13580  0.65090  0.29370  Biso   1.000  H
  H19      1.0000 0.01860  0.55660  0.30010  Biso   1.000  H
  C15      1.0000 0.03390  0.67960  0.15350  Biso   1.000  C
  H20      1.0000 0.04380  0.64510  0.05360  Biso   1.000  H
  H21      1.0000 0.08560  0.76160  0.14710  Biso   1.000  H
  N11      1.0000 0.86620  0.54560  0.60390  Biso   1.000  N
  N12      1.0000 0.13250  0.63330  0.69290  Biso   1.000  N
  Mn4      1.0000 0.69842  0.66141  0.04474  Biso   1.000  Mn
  O7       1.0000 0.77384  0.81916  0.90370  Biso   1.000  O
  C16      1.0000 0.46634  0.67776  0.04860  Biso   1.000  C
  C17      1.0000 0.64660  0.44030  0.27860  Biso   1.000  C
  O8       1.0000 0.75977  0.94293  0.74220  Biso   1.000  O
  C18      1.0000 0.73560  0.84220  0.77730  Biso   1.000  C
  N13      1.0000 0.65180  0.79010  0.49820  Biso   1.000  N
  H22      1.0000 0.58650  0.74180  0.44470  Biso   1.000  H
  H23      1.0000 0.71150  0.79980  0.43600  Biso   1.000  H
  C19      1.0000 0.65500  0.74490  0.66310  Biso   1.000  C
  H24      1.0000 0.57810  0.71340  0.71040  Biso   1.000  H
  N14      1.0000 0.63339  0.57113  0.80120  Biso   1.000  N
  H25      1.0000 0.65090  0.51510  0.79370  Biso   1.000  H
  H26      1.0000 0.55660  0.53800  0.80010  Biso   1.000  H
  C20      1.0000 0.67960  0.64570  0.65350  Biso   1.000  C
  H27      1.0000 0.64510  0.60130  0.55360  Biso   1.000  H
  H28      1.0000 0.76160  0.67600  0.64710  Biso   1.000  H
  N15      1.0000 0.54560  0.67940  0.10390  Biso   1.000  N
  N16      1.0000 0.63330  0.50080  0.19290  Biso   1.000  N
  Mn5      1.0000 0.33859  0.03701  0.04474  Biso   1.000  Mn
  O9       1.0000 0.18084  0.95468  0.90370  Biso   1.000  O
  C21      1.0000 0.32224  0.78858  0.04860  Biso   1.000  C
  C22      1.0000 0.55970  0.20630  0.27860  Biso   1.000  C
  O10      1.0000 0.05707  0.81684  0.74220  Biso   1.000  O
  C23      1.0000 0.15780  0.89340  0.77730  Biso   1.000  C
  N17      1.0000 0.20990  0.86170  0.49820  Biso   1.000  N
  H29      1.0000 0.25820  0.84470  0.44470  Biso   1.000  H
  H30      1.0000 0.20020  0.91170  0.43600  Biso   1.000  H
  C24      1.0000 0.25510  0.91010  0.66310  Biso   1.000  C
  H31      1.0000 0.28660  0.86470  0.71040  Biso   1.000  H
  N18      1.0000 0.42887  0.06226  0.80120  Biso   1.000  N
  H32      1.0000 0.48490  0.13580  0.79370  Biso   1.000  H
  H33      1.0000 0.46200  0.01860  0.80010  Biso   1.000  H
  C25      1.0000 0.35430  0.03390  0.65350  Biso   1.000  C
  H34      1.0000 0.39870  0.04380  0.55360  Biso   1.000  H
  H35      1.0000 0.32400  0.08560  0.64710  Biso   1.000  H
  N19      1.0000 0.32060  0.86620  0.10390  Biso   1.000  N
  N20      1.0000 0.49920  0.13250  0.19290  Biso   1.000  N
  Mn6      1.0000 0.96299  0.30158  0.04474  Biso   1.000  Mn
  O11      1.0000 0.04532  0.22616  0.90370  Biso   1.000  O
  C26      1.0000 0.21142  0.53366  0.04860  Biso   1.000  C
  C27      1.0000 0.79370  0.35340  0.27860  Biso   1.000  C
  O12      1.0000 0.18316  0.24023  0.74220  Biso   1.000  O
  C28      1.0000 0.10660  0.26440  0.77730  Biso   1.000  C
  N21      1.0000 0.13830  0.34820  0.49820  Biso   1.000  N
  H36      1.0000 0.15530  0.41350  0.44470  Biso   1.000  H
  H37      1.0000 0.08830  0.28850  0.43600  Biso   1.000  H
  C29      1.0000 0.08990  0.34500  0.66310  Biso   1.000  C
  H38      1.0000 0.13530  0.42190  0.71040  Biso   1.000  H
  N22      1.0000 0.93774  0.36661  0.80120  Biso   1.000  N
  H39      1.0000 0.86420  0.34910  0.79370  Biso   1.000  H
  H40      1.0000 0.98140  0.44340  0.80010  Biso   1.000  H
  C30      1.0000 0.96610  0.32040  0.65350  Biso   1.000  C
  H41      1.0000 0.95620  0.35490  0.55360  Biso   1.000  H
  H42      1.0000 0.91440  0.23840  0.64710  Biso   1.000  H
  N23      1.0000 0.13380  0.45440  0.10390  Biso   1.000  N
  N24      1.0000 0.86750  0.36670  0.19290  Biso   1.000  N
  Mn7      1.0000 0.33333  0.66667  0.92447  Biso   1.000  Mn
  Mn8      1.0000 0.66667  0.33333  0.42447  Biso   1.000  Mn
