data_image0
_cell_length_a       13.5416
_cell_length_b       13.5416
_cell_length_c       8.114
_cell_angle_alpha    90
_cell_angle_beta     90
_cell_angle_gamma    120

_symmetry_space_group_name_H-M    "P 1"
_symmetry_int_tables_number       1

loop_
  _symmetry_equiv_pos_as_xyz
  'x, y, z'

loop_
  _atom_site_label
  _atom_site_occupancy
  _atom_site_fract_x
  _atom_site_fract_y
  _atom_site_fract_z
  _atom_site_thermal_displace_type
  _atom_site_B_iso_or_equiv
  _atom_site_type_symbol
  Mn1      1.0000 0.29530  0.33142  0.54425  Biso   1.000  Mn
  O1       1.0000 0.22640  0.17630  0.40750  Biso   1.000  O
  C1       1.0000 0.53090  0.32040  0.56070  Biso   1.000  C
  C2       1.0000 0.35280  0.55380  0.77320  Biso   1.000  C
  O2       1.0000 0.23790  0.05410  0.24430  Biso   1.000  O
  C3       1.0000 0.26110  0.15400  0.28080  Biso   1.000  C
  N1       1.0000 0.33970  0.20620  0.00050  Biso   1.000  N
  H1       1.0000 0.40370  0.25410  0.94550  Biso   1.000  H
  H2       1.0000 0.27920  0.19610  0.94110  Biso   1.000  H
  C4       1.0000 0.33900  0.25230  0.16460  Biso   1.000  C
  H3       1.0000 0.41650  0.28410  0.20810  Biso   1.000  H
  N2       1.0000 0.36240  0.42340  0.30470  Biso   1.000  N
  H4       1.0000 0.34620  0.48020  0.29790  Biso   1.000  H
  H5       1.0000 0.43870  0.45500  0.30340  Biso   1.000  H
  C5       1.0000 0.31460  0.34920  0.16050  Biso   1.000  C
  H6       1.0000 0.34690  0.39360  0.06110  Biso   1.000  H
  H7       1.0000 0.23280  0.31860  0.15750  Biso   1.000  H
  N3       1.0000 0.45120  0.31850  0.61160  Biso   1.000  N
  N4       1.0000 0.36260  0.49320  0.69020  Biso   1.000  N
  Mn2      1.0000 0.66858  0.96388  0.54425  Biso   1.000  Mn
  O3       1.0000 0.82370  0.05010  0.40750  Biso   1.000  O
  C6       1.0000 0.67960  0.21050  0.56070  Biso   1.000  C
  C7       1.0000 0.44620  0.79900  0.77320  Biso   1.000  C
  O4       1.0000 0.94590  0.18380  0.24430  Biso   1.000  O
  C8       1.0000 0.84600  0.10710  0.28080  Biso   1.000  C
  N5       1.0000 0.79380  0.13350  0.00050  Biso   1.000  N
  H8       1.0000 0.74590  0.14960  0.94550  Biso   1.000  H
  H9       1.0000 0.80390  0.08310  0.94110  Biso   1.000  H
  C9       1.0000 0.74770  0.08670  0.16460  Biso   1.000  C
  H10      1.0000 0.71590  0.13240  0.20810  Biso   1.000  H
  N6       1.0000 0.57660  0.93900  0.30470  Biso   1.000  N
  H11      1.0000 0.51980  0.86600  0.29790  Biso   1.000  H
  H12      1.0000 0.54500  0.98370  0.30340  Biso   1.000  H
  C10      1.0000 0.65080  0.96540  0.16050  Biso   1.000  C
  H13      1.0000 0.60640  0.95330  0.06110  Biso   1.000  H
  H14      1.0000 0.68140  0.91420  0.15750  Biso   1.000  H
  N7       1.0000 0.68150  0.13270  0.61160  Biso   1.000  N
  N8       1.0000 0.50680  0.86940  0.69020  Biso   1.000  N
  Mn3      1.0000 0.03612  0.70470  0.54425  Biso   1.000  Mn
  O5       1.0000 0.94990  0.77360  0.40750  Biso   1.000  O
  C11      1.0000 0.78950  0.46910  0.56070  Biso   1.000  C
  C12      1.0000 0.20100  0.64720  0.77320  Biso   1.000  C
  O6       1.0000 0.81620  0.76210  0.24430  Biso   1.000  O
  C13      1.0000 0.89290  0.73890  0.28080  Biso   1.000  C
  N9       1.0000 0.86650  0.66030  0.00050  Biso   1.000  N
  H15      1.0000 0.85040  0.59630  0.94550  Biso   1.000  H
  H16      1.0000 0.91690  0.72080  0.94110  Biso   1.000  H
  C14      1.0000 0.91330  0.66100  0.16460  Biso   1.000  C
  H17      1.0000 0.86760  0.58350  0.20810  Biso   1.000  H
  N10      1.0000 0.06100  0.63760  0.30470  Biso   1.000  N
  H18      1.0000 0.13400  0.65380  0.29790  Biso   1.000  H
  H19      1.0000 0.01630  0.56130  0.30340  Biso   1.000  H
  C15      1.0000 0.03460  0.68540  0.16050  Biso   1.000  C
  H20      1.0000 0.04670  0.65310  0.06110  Biso   1.000  H
  H21      1.0000 0.08580  0.76720  0.15750  Biso   1.000  H
  N11      1.0000 0.86730  0.54880  0.61160  Biso   1.000  N
  N12      1.0000 0.13060  0.63740  0.69020  Biso   1.000  N
  Mn4      1.0000 0.70470  0.66858  0.04425  Biso   1.000  Mn
  O7       1.0000 0.77360  0.82370  0.90750  Biso   1.000  O
  C16      1.0000 0.46910  0.67960  0.06070  Biso   1.000  C
  C17      1.0000 0.64720  0.44620  0.27320  Biso   1.000  C
  O8       1.0000 0.76210  0.94590  0.74430  Biso   1.000  O
  C18      1.0000 0.73890  0.84600  0.78080  Biso   1.000  C
  N13      1.0000 0.66030  0.79380  0.50050  Biso   1.000  N
  H22      1.0000 0.59630  0.74590  0.44550  Biso   1.000  H
  H23      1.0000 0.72080  0.80390  0.44110  Biso   1.000  H
  C19      1.0000 0.66100  0.74770  0.66460  Biso   1.000  C
  H24      1.0000 0.58350  0.71590  0.70810  Biso   1.000  H
  N14      1.0000 0.63760  0.57660  0.80470  Biso   1.000  N
  H25      1.0000 0.65380  0.51980  0.79790  Biso   1.000  H
  H26      1.0000 0.56130  0.54500  0.80340  Biso   1.000  H
  C20      1.0000 0.68540  0.65080  0.66050  Biso   1.000  C
  H27      1.0000 0.65310  0.60640  0.56110  Biso   1.000  H
  H28      1.0000 0.76720  0.68140  0.65750  Biso   1.000  H
  N15      1.0000 0.54880  0.68150  0.11160  Biso   1.000  N
  N16      1.0000 0.63740  0.50680  0.19020  Biso   1.000  N
  Mn5      1.0000 0.33142  0.03612  0.04425  Biso   1.000  Mn
  O9       1.0000 0.17630  0.94990  0.90750  Biso   1.000  O
  C21      1.0000 0.32040  0.78950  0.06070  Biso   1.000  C
  C22      1.0000 0.55380  0.20100  0.27320  Biso   1.000  C
  O10      1.0000 0.05410  0.81620  0.74430  Biso   1.000  O
  C23      1.0000 0.15400  0.89290  0.78080  Biso   1.000  C
  N17      1.0000 0.20620  0.86650  0.50050  Biso   1.000  N
  H29      1.0000 0.25410  0.85040  0.44550  Biso   1.000  H
  H30      1.0000 0.19610  0.91690  0.44110  Biso   1.000  H
  C24      1.0000 0.25230  0.91330  0.66460  Biso   1.000  C
  H31      1.0000 0.28410  0.86760  0.70810  Biso   1.000  H
  N18      1.0000 0.42340  0.06100  0.80470  Biso   1.000  N
  H32      1.0000 0.48020  0.13400  0.79790  Biso   1.000  H
  H33      1.0000 0.45500  0.01630  0.80340  Biso   1.000  H
  C25      1.0000 0.34920  0.03460  0.66050  Biso   1.000  C
  H34      1.0000 0.39360  0.04670  0.56110  Biso   1.000  H
  H35      1.0000 0.31860  0.08580  0.65750  Biso   1.000  H
  N19      1.0000 0.31850  0.86730  0.11160  Biso   1.000  N
  N20      1.0000 0.49320  0.13060  0.19020  Biso   1.000  N
  Mn6      1.0000 0.96388  0.29530  0.04425  Biso   1.000  Mn
  O11      1.0000 0.05010  0.22640  0.90750  Biso   1.000  O
  C26      1.0000 0.21050  0.53090  0.06070  Biso   1.000  C
  C27      1.0000 0.79900  0.35280  0.27320  Biso   1.000  C
  O12      1.0000 0.18380  0.23790  0.74430  Biso   1.000  O
  C28      1.0000 0.10710  0.26110  0.78080  Biso   1.000  C
  N21      1.0000 0.13350  0.33970  0.50050  Biso   1.000  N
  H36      1.0000 0.14960  0.40370  0.44550  Biso   1.000  H
  H37      1.0000 0.08310  0.27920  0.44110  Biso   1.000  H
  C29      1.0000 0.08670  0.33900  0.66460  Biso   1.000  C
  H38      1.0000 0.13240  0.41650  0.70810  Biso   1.000  H
  N22      1.0000 0.93900  0.36240  0.80470  Biso   1.000  N
  H39      1.0000 0.86600  0.34620  0.79790  Biso   1.000  H
  H40      1.0000 0.98370  0.43870  0.80340  Biso   1.000  H
  C30      1.0000 0.96540  0.31460  0.66050  Biso   1.000  C
  H41      1.0000 0.95330  0.34690  0.56110  Biso   1.000  H
  H42      1.0000 0.91420  0.23280  0.65750  Biso   1.000  H
  N23      1.0000 0.13270  0.45120  0.11160  Biso   1.000  N
  N24      1.0000 0.86940  0.36260  0.19020  Biso   1.000  N
  Cr1      1.0000 0.33333  0.66667  0.92350  Biso   1.000  Cr
  Cr2      1.0000 0.66667  0.33333  0.42350  Biso   1.000  Cr
