data_image0
_cell_length_a       13.5739
_cell_length_b       13.5739
_cell_length_c       8.1156
_cell_angle_alpha    90
_cell_angle_beta     90
_cell_angle_gamma    120

_symmetry_space_group_name_H-M    "P 1"
_symmetry_int_tables_number       1

loop_
  _symmetry_equiv_pos_as_xyz
  'x, y, z'

loop_
  _atom_site_label
  _atom_site_occupancy
  _atom_site_fract_x
  _atom_site_fract_y
  _atom_site_fract_z
  _atom_site_thermal_displace_type
  _atom_site_B_iso_or_equiv
  _atom_site_type_symbol
  Mn1      1.0000 0.29540  0.33182  0.54438  Biso   1.000  Mn
  O1       1.0000 0.22720  0.17750  0.40640  Biso   1.000  O
  C1       1.0000 0.53070  0.32080  0.55910  Biso   1.000  C
  C2       1.0000 0.35240  0.55420  0.77330  Biso   1.000  C
  O2       1.0000 0.23930  0.05500  0.24640  Biso   1.000  O
  C3       1.0000 0.26250  0.15550  0.28080  Biso   1.000  C
  N1       1.0000 0.33980  0.20720  0.00080  Biso   1.000  N
  H1       1.0000 0.40340  0.25510  0.94520  Biso   1.000  H
  H2       1.0000 0.27910  0.19720  0.94230  Biso   1.000  H
  C4       1.0000 0.33990  0.25290  0.16510  Biso   1.000  C
  H3       1.0000 0.41740  0.28480  0.20820  Biso   1.000  H
  N2       1.0000 0.36260  0.42350  0.30490  Biso   1.000  N
  H4       1.0000 0.34660  0.48020  0.29800  Biso   1.000  H
  H5       1.0000 0.43880  0.45500  0.30390  Biso   1.000  H
  C5       1.0000 0.31510  0.34930  0.15930  Biso   1.000  C
  H6       1.0000 0.34780  0.39370  0.06000  Biso   1.000  H
  H7       1.0000 0.23340  0.31880  0.15550  Biso   1.000  H
  N3       1.0000 0.45180  0.31890  0.61130  Biso   1.000  N
  N4       1.0000 0.36310  0.49380  0.69100  Biso   1.000  N
  Mn2      1.0000 0.66818  0.96358  0.54438  Biso   1.000  Mn
  O3       1.0000 0.82250  0.04970  0.40640  Biso   1.000  O
  C6       1.0000 0.67920  0.20990  0.55910  Biso   1.000  C
  C7       1.0000 0.44580  0.79820  0.77330  Biso   1.000  C
  O4       1.0000 0.94500  0.18430  0.24640  Biso   1.000  O
  C8       1.0000 0.84450  0.10700  0.28080  Biso   1.000  C
  N5       1.0000 0.79280  0.13260  0.00080  Biso   1.000  N
  H8       1.0000 0.74490  0.14830  0.94520  Biso   1.000  H
  H9       1.0000 0.80280  0.08190  0.94230  Biso   1.000  H
  C9       1.0000 0.74710  0.08700  0.16510  Biso   1.000  C
  H10      1.0000 0.71520  0.13260  0.20820  Biso   1.000  H
  N6       1.0000 0.57650  0.93910  0.30490  Biso   1.000  N
  H11      1.0000 0.51980  0.86640  0.29800  Biso   1.000  H
  H12      1.0000 0.54500  0.98380  0.30390  Biso   1.000  H
  C10      1.0000 0.65070  0.96580  0.15930  Biso   1.000  C
  H13      1.0000 0.60630  0.95410  0.06000  Biso   1.000  H
  H14      1.0000 0.68120  0.91460  0.15550  Biso   1.000  H
  N7       1.0000 0.68110  0.13290  0.61130  Biso   1.000  N
  N8       1.0000 0.50620  0.86930  0.69100  Biso   1.000  N
  Mn3      1.0000 0.03642  0.70460  0.54438  Biso   1.000  Mn
  O5       1.0000 0.95030  0.77280  0.40640  Biso   1.000  O
  C11      1.0000 0.79010  0.46930  0.55910  Biso   1.000  C
  C12      1.0000 0.20180  0.64760  0.77330  Biso   1.000  C
  O6       1.0000 0.81570  0.76070  0.24640  Biso   1.000  O
  C13      1.0000 0.89300  0.73750  0.28080  Biso   1.000  C
  N9       1.0000 0.86740  0.66020  0.00080  Biso   1.000  N
  H15      1.0000 0.85170  0.59660  0.94520  Biso   1.000  H
  H16      1.0000 0.91810  0.72090  0.94230  Biso   1.000  H
  C14      1.0000 0.91300  0.66010  0.16510  Biso   1.000  C
  H17      1.0000 0.86740  0.58260  0.20820  Biso   1.000  H
  N10      1.0000 0.06090  0.63740  0.30490  Biso   1.000  N
  H18      1.0000 0.13360  0.65340  0.29800  Biso   1.000  H
  H19      1.0000 0.01620  0.56120  0.30390  Biso   1.000  H
  C15      1.0000 0.03420  0.68490  0.15930  Biso   1.000  C
  H20      1.0000 0.04590  0.65220  0.06000  Biso   1.000  H
  H21      1.0000 0.08540  0.76660  0.15550  Biso   1.000  H
  N11      1.0000 0.86710  0.54820  0.61130  Biso   1.000  N
  N12      1.0000 0.13070  0.63690  0.69100  Biso   1.000  N
  Mn4      1.0000 0.70460  0.66818  0.04438  Biso   1.000  Mn
  O7       1.0000 0.77280  0.82250  0.90640  Biso   1.000  O
  C16      1.0000 0.46930  0.67920  0.05910  Biso   1.000  C
  C17      1.0000 0.64760  0.44580  0.27330  Biso   1.000  C
  O8       1.0000 0.76070  0.94500  0.74640  Biso   1.000  O
  C18      1.0000 0.73750  0.84450  0.78080  Biso   1.000  C
  N13      1.0000 0.66020  0.79280  0.50080  Biso   1.000  N
  H22      1.0000 0.59660  0.74490  0.44520  Biso   1.000  H
  H23      1.0000 0.72090  0.80280  0.44230  Biso   1.000  H
  C19      1.0000 0.66010  0.74710  0.66510  Biso   1.000  C
  H24      1.0000 0.58260  0.71520  0.70820  Biso   1.000  H
  N14      1.0000 0.63740  0.57650  0.80490  Biso   1.000  N
  H25      1.0000 0.65340  0.51980  0.79800  Biso   1.000  H
  H26      1.0000 0.56120  0.54500  0.80390  Biso   1.000  H
  C20      1.0000 0.68490  0.65070  0.65930  Biso   1.000  C
  H27      1.0000 0.65220  0.60630  0.56000  Biso   1.000  H
  H28      1.0000 0.76660  0.68120  0.65550  Biso   1.000  H
  N15      1.0000 0.54820  0.68110  0.11130  Biso   1.000  N
  N16      1.0000 0.63690  0.50620  0.19100  Biso   1.000  N
  Mn5      1.0000 0.33182  0.03642  0.04438  Biso   1.000  Mn
  O9       1.0000 0.17750  0.95030  0.90640  Biso   1.000  O
  C21      1.0000 0.32080  0.79010  0.05910  Biso   1.000  C
  C22      1.0000 0.55420  0.20180  0.27330  Biso   1.000  C
  O10      1.0000 0.05500  0.81570  0.74640  Biso   1.000  O
  C23      1.0000 0.15550  0.89300  0.78080  Biso   1.000  C
  N17      1.0000 0.20720  0.86740  0.50080  Biso   1.000  N
  H29      1.0000 0.25510  0.85170  0.44520  Biso   1.000  H
  H30      1.0000 0.19720  0.91810  0.44230  Biso   1.000  H
  C24      1.0000 0.25290  0.91300  0.66510  Biso   1.000  C
  H31      1.0000 0.28480  0.86740  0.70820  Biso   1.000  H
  N18      1.0000 0.42350  0.06090  0.80490  Biso   1.000  N
  H32      1.0000 0.48020  0.13360  0.79800  Biso   1.000  H
  H33      1.0000 0.45500  0.01620  0.80390  Biso   1.000  H
  C25      1.0000 0.34930  0.03420  0.65930  Biso   1.000  C
  H34      1.0000 0.39370  0.04590  0.56000  Biso   1.000  H
  H35      1.0000 0.31880  0.08540  0.65550  Biso   1.000  H
  N19      1.0000 0.31890  0.86710  0.11130  Biso   1.000  N
  N20      1.0000 0.49380  0.13070  0.19100  Biso   1.000  N
  Mn6      1.0000 0.96358  0.29540  0.04438  Biso   1.000  Mn
  O11      1.0000 0.04970  0.22720  0.90640  Biso   1.000  O
  C26      1.0000 0.20990  0.53070  0.05910  Biso   1.000  C
  C27      1.0000 0.79820  0.35240  0.27330  Biso   1.000  C
  O12      1.0000 0.18430  0.23930  0.74640  Biso   1.000  O
  C28      1.0000 0.10700  0.26250  0.78080  Biso   1.000  C
  N21      1.0000 0.13260  0.33980  0.50080  Biso   1.000  N
  H36      1.0000 0.14830  0.40340  0.44520  Biso   1.000  H
  H37      1.0000 0.08190  0.27910  0.44230  Biso   1.000  H
  C29      1.0000 0.08700  0.33990  0.66510  Biso   1.000  C
  H38      1.0000 0.13260  0.41740  0.70820  Biso   1.000  H
  N22      1.0000 0.93910  0.36260  0.80490  Biso   1.000  N
  H39      1.0000 0.86640  0.34660  0.79800  Biso   1.000  H
  H40      1.0000 0.98380  0.43880  0.80390  Biso   1.000  H
  C30      1.0000 0.96580  0.31510  0.65930  Biso   1.000  C
  H41      1.0000 0.95410  0.34780  0.56000  Biso   1.000  H
  H42      1.0000 0.91460  0.23340  0.65550  Biso   1.000  H
  N23      1.0000 0.13290  0.45180  0.11130  Biso   1.000  N
  N24      1.0000 0.86930  0.36310  0.19100  Biso   1.000  N
  Cr1      1.0000 0.33333  0.66667  0.92330  Biso   1.000  Cr
  Cr2      1.0000 0.66667  0.33333  0.42330  Biso   1.000  Cr
