data_image0
_cell_length_a       13.5554
_cell_length_b       13.5554
_cell_length_c       8.1351
_cell_angle_alpha    90
_cell_angle_beta     90
_cell_angle_gamma    120

_symmetry_space_group_name_H-M    "P 1"
_symmetry_int_tables_number       1

loop_
  _symmetry_equiv_pos_as_xyz
  'x, y, z'

loop_
  _atom_site_label
  _atom_site_occupancy
  _atom_site_fract_x
  _atom_site_fract_y
  _atom_site_fract_z
  _atom_site_thermal_displace_type
  _atom_site_B_iso_or_equiv
  _atom_site_type_symbol
  Mn1      1.0000 0.29470  0.33115  0.54450  Biso   1.000  Mn
  O1       1.0000 0.22680  0.17680  0.40730  Biso   1.000  O
  C1       1.0000 0.53130  0.32100  0.55950  Biso   1.000  C
  C2       1.0000 0.35200  0.55350  0.77280  Biso   1.000  C
  O2       1.0000 0.23750  0.05460  0.24490  Biso   1.000  O
  C3       1.0000 0.26120  0.15460  0.28130  Biso   1.000  C
  N1       1.0000 0.33880  0.20670  0.00060  Biso   1.000  N
  H1       1.0000 0.40250  0.25470  0.94520  Biso   1.000  H
  H2       1.0000 0.27800  0.19650  0.94220  Biso   1.000  H
  C4       1.0000 0.33900  0.25270  0.16550  Biso   1.000  C
  H3       1.0000 0.41660  0.28470  0.20840  Biso   1.000  H
  N2       1.0000 0.36170  0.42290  0.30500  Biso   1.000  N
  H4       1.0000 0.34590  0.47980  0.29810  Biso   1.000  H
  H5       1.0000 0.43790  0.45420  0.30340  Biso   1.000  H
  C5       1.0000 0.31360  0.34870  0.16150  Biso   1.000  C
  H6       1.0000 0.34530  0.39300  0.06210  Biso   1.000  H
  H7       1.0000 0.23180  0.31770  0.15930  Biso   1.000  H
  N3       1.0000 0.45210  0.31930  0.61110  Biso   1.000  N
  N4       1.0000 0.36160  0.49240  0.69090  Biso   1.000  N
  Mn2      1.0000 0.66885  0.96355  0.54450  Biso   1.000  Mn
  O3       1.0000 0.82320  0.05000  0.40730  Biso   1.000  O
  C6       1.0000 0.67900  0.21030  0.55950  Biso   1.000  C
  C7       1.0000 0.44650  0.79850  0.77280  Biso   1.000  C
  O4       1.0000 0.94540  0.18290  0.24490  Biso   1.000  O
  C8       1.0000 0.84540  0.10660  0.28130  Biso   1.000  C
  N5       1.0000 0.79330  0.13210  0.00060  Biso   1.000  N
  H8       1.0000 0.74530  0.14780  0.94520  Biso   1.000  H
  H9       1.0000 0.80350  0.08150  0.94220  Biso   1.000  H
  C9       1.0000 0.74730  0.08630  0.16550  Biso   1.000  C
  H10      1.0000 0.71530  0.13190  0.20840  Biso   1.000  H
  N6       1.0000 0.57710  0.93880  0.30500  Biso   1.000  N
  H11      1.0000 0.52020  0.86610  0.29810  Biso   1.000  H
  H12      1.0000 0.54580  0.98370  0.30340  Biso   1.000  H
  C10      1.0000 0.65130  0.96490  0.16150  Biso   1.000  C
  H13      1.0000 0.60700  0.95230  0.06210  Biso   1.000  H
  H14      1.0000 0.68230  0.91410  0.15930  Biso   1.000  H
  N7       1.0000 0.68070  0.13280  0.61110  Biso   1.000  N
  N8       1.0000 0.50760  0.86920  0.69090  Biso   1.000  N
  Mn3      1.0000 0.03645  0.70530  0.54450  Biso   1.000  Mn
  O5       1.0000 0.95000  0.77320  0.40730  Biso   1.000  O
  C11      1.0000 0.78970  0.46870  0.55950  Biso   1.000  C
  C12      1.0000 0.20150  0.64800  0.77280  Biso   1.000  C
  O6       1.0000 0.81710  0.76250  0.24490  Biso   1.000  O
  C13      1.0000 0.89340  0.73880  0.28130  Biso   1.000  C
  N9       1.0000 0.86790  0.66120  0.00060  Biso   1.000  N
  H15      1.0000 0.85220  0.59750  0.94520  Biso   1.000  H
  H16      1.0000 0.91850  0.72200  0.94220  Biso   1.000  H
  C14      1.0000 0.91370  0.66100  0.16550  Biso   1.000  C
  H17      1.0000 0.86810  0.58340  0.20840  Biso   1.000  H
  N10      1.0000 0.06120  0.63830  0.30500  Biso   1.000  N
  H18      1.0000 0.13390  0.65410  0.29810  Biso   1.000  H
  H19      1.0000 0.01630  0.56210  0.30340  Biso   1.000  H
  C15      1.0000 0.03510  0.68640  0.16150  Biso   1.000  C
  H20      1.0000 0.04770  0.65470  0.06210  Biso   1.000  H
  H21      1.0000 0.08590  0.76820  0.15930  Biso   1.000  H
  N11      1.0000 0.86720  0.54790  0.61110  Biso   1.000  N
  N12      1.0000 0.13080  0.63840  0.69090  Biso   1.000  N
  Mn4      1.0000 0.70530  0.66885  0.04450  Biso   1.000  Mn
  O7       1.0000 0.77320  0.82320  0.90730  Biso   1.000  O
  C16      1.0000 0.46870  0.67900  0.05950  Biso   1.000  C
  C17      1.0000 0.64800  0.44650  0.27280  Biso   1.000  C
  O8       1.0000 0.76250  0.94540  0.74490  Biso   1.000  O
  C18      1.0000 0.73880  0.84540  0.78130  Biso   1.000  C
  N13      1.0000 0.66120  0.79330  0.50060  Biso   1.000  N
  H22      1.0000 0.59750  0.74530  0.44520  Biso   1.000  H
  H23      1.0000 0.72200  0.80350  0.44220  Biso   1.000  H
  C19      1.0000 0.66100  0.74730  0.66550  Biso   1.000  C
  H24      1.0000 0.58340  0.71530  0.70840  Biso   1.000  H
  N14      1.0000 0.63830  0.57710  0.80500  Biso   1.000  N
  H25      1.0000 0.65410  0.52020  0.79810  Biso   1.000  H
  H26      1.0000 0.56210  0.54580  0.80340  Biso   1.000  H
  C20      1.0000 0.68640  0.65130  0.66150  Biso   1.000  C
  H27      1.0000 0.65470  0.60700  0.56210  Biso   1.000  H
  H28      1.0000 0.76820  0.68230  0.65930  Biso   1.000  H
  N15      1.0000 0.54790  0.68070  0.11110  Biso   1.000  N
  N16      1.0000 0.63840  0.50760  0.19090  Biso   1.000  N
  Mn5      1.0000 0.33115  0.03645  0.04450  Biso   1.000  Mn
  O9       1.0000 0.17680  0.95000  0.90730  Biso   1.000  O
  C21      1.0000 0.32100  0.78970  0.05950  Biso   1.000  C
  C22      1.0000 0.55350  0.20150  0.27280  Biso   1.000  C
  O10      1.0000 0.05460  0.81710  0.74490  Biso   1.000  O
  C23      1.0000 0.15460  0.89340  0.78130  Biso   1.000  C
  N17      1.0000 0.20670  0.86790  0.50060  Biso   1.000  N
  H29      1.0000 0.25470  0.85220  0.44520  Biso   1.000  H
  H30      1.0000 0.19650  0.91850  0.44220  Biso   1.000  H
  C24      1.0000 0.25270  0.91370  0.66550  Biso   1.000  C
  H31      1.0000 0.28470  0.86810  0.70840  Biso   1.000  H
  N18      1.0000 0.42290  0.06120  0.80500  Biso   1.000  N
  H32      1.0000 0.47980  0.13390  0.79810  Biso   1.000  H
  H33      1.0000 0.45420  0.01630  0.80340  Biso   1.000  H
  C25      1.0000 0.34870  0.03510  0.66150  Biso   1.000  C
  H34      1.0000 0.39300  0.04770  0.56210  Biso   1.000  H
  H35      1.0000 0.31770  0.08590  0.65930  Biso   1.000  H
  N19      1.0000 0.31930  0.86720  0.11110  Biso   1.000  N
  N20      1.0000 0.49240  0.13080  0.19090  Biso   1.000  N
  Mn6      1.0000 0.96355  0.29470  0.04450  Biso   1.000  Mn
  O11      1.0000 0.05000  0.22680  0.90730  Biso   1.000  O
  C26      1.0000 0.21030  0.53130  0.05950  Biso   1.000  C
  C27      1.0000 0.79850  0.35200  0.27280  Biso   1.000  C
  O12      1.0000 0.18290  0.23750  0.74490  Biso   1.000  O
  C28      1.0000 0.10660  0.26120  0.78130  Biso   1.000  C
  N21      1.0000 0.13210  0.33880  0.50060  Biso   1.000  N
  H36      1.0000 0.14780  0.40250  0.44520  Biso   1.000  H
  H37      1.0000 0.08150  0.27800  0.44220  Biso   1.000  H
  C29      1.0000 0.08630  0.33900  0.66550  Biso   1.000  C
  H38      1.0000 0.13190  0.41660  0.70840  Biso   1.000  H
  N22      1.0000 0.93880  0.36170  0.80500  Biso   1.000  N
  H39      1.0000 0.86610  0.34590  0.79810  Biso   1.000  H
  H40      1.0000 0.98370  0.43790  0.80340  Biso   1.000  H
  C30      1.0000 0.96490  0.31360  0.66150  Biso   1.000  C
  H41      1.0000 0.95230  0.34530  0.56210  Biso   1.000  H
  H42      1.0000 0.91410  0.23180  0.65930  Biso   1.000  H
  N23      1.0000 0.13280  0.45210  0.11110  Biso   1.000  N
  N24      1.0000 0.86920  0.36160  0.19090  Biso   1.000  N
  Cr1      1.0000 0.33333  0.66667  0.92300  Biso   1.000  Cr
  Cr2      1.0000 0.66667  0.33333  0.42300  Biso   1.000  Cr
