data_image0
_cell_length_a       13.6144
_cell_length_b       13.6144
_cell_length_c       8.1842
_cell_angle_alpha    90
_cell_angle_beta     90
_cell_angle_gamma    120

_symmetry_space_group_name_H-M    "P 1"
_symmetry_int_tables_number       1

loop_
  _symmetry_equiv_pos_as_xyz
  'x, y, z'

loop_
  _atom_site_label
  _atom_site_occupancy
  _atom_site_fract_x
  _atom_site_fract_y
  _atom_site_fract_z
  _atom_site_thermal_displace_type
  _atom_site_B_iso_or_equiv
  _atom_site_type_symbol
  Mn1      1.0000 0.29539  0.33438  0.54368  Biso   1.000  Mn
  O1       1.0000 0.22850  0.18060  0.40460  Biso   1.000  O
  C1       1.0000 0.52980  0.32110  0.55430  Biso   1.000  C
  C2       1.0000 0.35400  0.55570  0.77590  Biso   1.000  C
  O2       1.0000 0.24460  0.05900  0.24610  Biso   1.000  O
  C3       1.0000 0.26670  0.15900  0.28040  Biso   1.000  C
  N1       1.0000 0.34520  0.21020  0.00430  Biso   1.000  N
  H1       1.0000 0.40950  0.25790  0.95100  Biso   1.000  H
  H2       1.0000 0.28580  0.20150  0.94480  Biso   1.000  H
  C4       1.0000 0.34400  0.25530  0.16670  Biso   1.000  C
  H3       1.0000 0.42090  0.28710  0.21050  Biso   1.000  H
  N2       1.0000 0.36310  0.42550  0.30770  Biso   1.000  N
  H4       1.0000 0.34640  0.48150  0.30020  Biso   1.000  H
  H5       1.0000 0.43910  0.45780  0.30840  Biso   1.000  H
  C5       1.0000 0.31840  0.35260  0.16160  Biso   1.000  C
  H6       1.0000 0.35230  0.39790  0.06440  Biso   1.000  H
  H7       1.0000 0.23710  0.32180  0.15530  Biso   1.000  H
  N3       1.0000 0.44950  0.31950  0.60270  Biso   1.000  N
  N4       1.0000 0.36590  0.49520  0.69190  Biso   1.000  N
  Mn2      1.0000 0.66562  0.96101  0.54368  Biso   1.000  Mn
  O3       1.0000 0.81940  0.04790  0.40460  Biso   1.000  O
  C6       1.0000 0.67890  0.20870  0.55430  Biso   1.000  C
  C7       1.0000 0.44430  0.79830  0.77590  Biso   1.000  C
  O4       1.0000 0.94100  0.18560  0.24610  Biso   1.000  O
  C8       1.0000 0.84100  0.10770  0.28040  Biso   1.000  C
  N5       1.0000 0.78980  0.13500  0.00430  Biso   1.000  N
  H8       1.0000 0.74210  0.15160  0.95100  Biso   1.000  H
  H9       1.0000 0.79850  0.08430  0.94480  Biso   1.000  H
  C9       1.0000 0.74470  0.08870  0.16670  Biso   1.000  C
  H10      1.0000 0.71290  0.13380  0.21050  Biso   1.000  H
  N6       1.0000 0.57450  0.93760  0.30770  Biso   1.000  N
  H11      1.0000 0.51850  0.86490  0.30020  Biso   1.000  H
  H12      1.0000 0.54220  0.98130  0.30840  Biso   1.000  H
  C10      1.0000 0.64740  0.96580  0.16160  Biso   1.000  C
  H13      1.0000 0.60210  0.95440  0.06440  Biso   1.000  H
  H14      1.0000 0.67820  0.91530  0.15530  Biso   1.000  H
  N7       1.0000 0.68050  0.13000  0.60270  Biso   1.000  N
  N8       1.0000 0.50480  0.87070  0.69190  Biso   1.000  N
  Mn3      1.0000 0.03899  0.70461  0.54368  Biso   1.000  Mn
  O5       1.0000 0.95210  0.77150  0.40460  Biso   1.000  O
  C11      1.0000 0.79130  0.47020  0.55430  Biso   1.000  C
  C12      1.0000 0.20170  0.64600  0.77590  Biso   1.000  C
  O6       1.0000 0.81440  0.75540  0.24610  Biso   1.000  O
  C13      1.0000 0.89230  0.73330  0.28040  Biso   1.000  C
  N9       1.0000 0.86500  0.65480  0.00430  Biso   1.000  N
  H15      1.0000 0.84840  0.59050  0.95100  Biso   1.000  H
  H16      1.0000 0.91570  0.71420  0.94480  Biso   1.000  H
  C14      1.0000 0.91130  0.65600  0.16670  Biso   1.000  C
  H17      1.0000 0.86620  0.57910  0.21050  Biso   1.000  H
  N10      1.0000 0.06240  0.63690  0.30770  Biso   1.000  N
  H18      1.0000 0.13510  0.65360  0.30020  Biso   1.000  H
  H19      1.0000 0.01870  0.56090  0.30840  Biso   1.000  H
  C15      1.0000 0.03420  0.68160  0.16160  Biso   1.000  C
  H20      1.0000 0.04560  0.64770  0.06440  Biso   1.000  H
  H21      1.0000 0.08470  0.76290  0.15530  Biso   1.000  H
  N11      1.0000 0.87000  0.55050  0.60270  Biso   1.000  N
  N12      1.0000 0.12930  0.63410  0.69190  Biso   1.000  N
  Mn4      1.0000 0.70461  0.66562  0.04368  Biso   1.000  Mn
  O7       1.0000 0.77150  0.81940  0.90460  Biso   1.000  O
  C16      1.0000 0.47020  0.67890  0.05430  Biso   1.000  C
  C17      1.0000 0.64600  0.44430  0.27590  Biso   1.000  C
  O8       1.0000 0.75540  0.94100  0.74610  Biso   1.000  O
  C18      1.0000 0.73330  0.84100  0.78040  Biso   1.000  C
  N13      1.0000 0.65480  0.78980  0.50430  Biso   1.000  N
  H22      1.0000 0.59050  0.74210  0.45100  Biso   1.000  H
  H23      1.0000 0.71420  0.79850  0.44480  Biso   1.000  H
  C19      1.0000 0.65600  0.74470  0.66670  Biso   1.000  C
  H24      1.0000 0.57910  0.71290  0.71050  Biso   1.000  H
  N14      1.0000 0.63690  0.57450  0.80770  Biso   1.000  N
  H25      1.0000 0.65360  0.51850  0.80020  Biso   1.000  H
  H26      1.0000 0.56090  0.54220  0.80840  Biso   1.000  H
  C20      1.0000 0.68160  0.64740  0.66160  Biso   1.000  C
  H27      1.0000 0.64770  0.60210  0.56440  Biso   1.000  H
  H28      1.0000 0.76290  0.67820  0.65530  Biso   1.000  H
  N15      1.0000 0.55050  0.68050  0.10270  Biso   1.000  N
  N16      1.0000 0.63410  0.50480  0.19190  Biso   1.000  N
  Mn5      1.0000 0.33438  0.03899  0.04368  Biso   1.000  Mn
  O9       1.0000 0.18060  0.95210  0.90460  Biso   1.000  O
  C21      1.0000 0.32110  0.79130  0.05430  Biso   1.000  C
  C22      1.0000 0.55570  0.20170  0.27590  Biso   1.000  C
  O10      1.0000 0.05900  0.81440  0.74610  Biso   1.000  O
  C23      1.0000 0.15900  0.89230  0.78040  Biso   1.000  C
  N17      1.0000 0.21020  0.86500  0.50430  Biso   1.000  N
  H29      1.0000 0.25790  0.84840  0.45100  Biso   1.000  H
  H30      1.0000 0.20150  0.91570  0.44480  Biso   1.000  H
  C24      1.0000 0.25530  0.91130  0.66670  Biso   1.000  C
  H31      1.0000 0.28710  0.86620  0.71050  Biso   1.000  H
  N18      1.0000 0.42550  0.06240  0.80770  Biso   1.000  N
  H32      1.0000 0.48150  0.13510  0.80020  Biso   1.000  H
  H33      1.0000 0.45780  0.01870  0.80840  Biso   1.000  H
  C25      1.0000 0.35260  0.03420  0.66160  Biso   1.000  C
  H34      1.0000 0.39790  0.04560  0.56440  Biso   1.000  H
  H35      1.0000 0.32180  0.08470  0.65530  Biso   1.000  H
  N19      1.0000 0.31950  0.87000  0.10270  Biso   1.000  N
  N20      1.0000 0.49520  0.12930  0.19190  Biso   1.000  N
  Mn6      1.0000 0.96101  0.29539  0.04368  Biso   1.000  Mn
  O11      1.0000 0.04790  0.22850  0.90460  Biso   1.000  O
  C26      1.0000 0.20870  0.52980  0.05430  Biso   1.000  C
  C27      1.0000 0.79830  0.35400  0.27590  Biso   1.000  C
  O12      1.0000 0.18560  0.24460  0.74610  Biso   1.000  O
  C28      1.0000 0.10770  0.26670  0.78040  Biso   1.000  C
  N21      1.0000 0.13500  0.34520  0.50430  Biso   1.000  N
  H36      1.0000 0.15160  0.40950  0.45100  Biso   1.000  H
  H37      1.0000 0.08430  0.28580  0.44480  Biso   1.000  H
  C29      1.0000 0.08870  0.34400  0.66670  Biso   1.000  C
  H38      1.0000 0.13380  0.42090  0.71050  Biso   1.000  H
  N22      1.0000 0.93760  0.36310  0.80770  Biso   1.000  N
  H39      1.0000 0.86490  0.34640  0.80020  Biso   1.000  H
  H40      1.0000 0.98130  0.43910  0.80840  Biso   1.000  H
  C30      1.0000 0.96580  0.31840  0.66160  Biso   1.000  C
  H41      1.0000 0.95440  0.35230  0.56440  Biso   1.000  H
  H42      1.0000 0.91530  0.23710  0.65530  Biso   1.000  H
  N23      1.0000 0.13000  0.44950  0.10270  Biso   1.000  N
  N24      1.0000 0.87070  0.36590  0.19190  Biso   1.000  N
  Cr1      1.0000 0.33333  0.66667  0.92497  Biso   1.000  Cr
  Cr2      1.0000 0.66667  0.33333  0.42497  Biso   1.000  Cr
