data_image0
_cell_length_a       13.5392
_cell_length_b       13.5392
_cell_length_c       8.0692
_cell_angle_alpha    90
_cell_angle_beta     90
_cell_angle_gamma    120

_symmetry_space_group_name_H-M    "P 1"
_symmetry_int_tables_number       1

loop_
  _symmetry_equiv_pos_as_xyz
  'x, y, z'

loop_
  _atom_site_label
  _atom_site_occupancy
  _atom_site_fract_x
  _atom_site_fract_y
  _atom_site_fract_z
  _atom_site_thermal_displace_type
  _atom_site_B_iso_or_equiv
  _atom_site_type_symbol
  Mn1      1.0000 0.29673  0.33238  0.54381  Biso   1.000  Mn
  O1       1.0000 0.22590  0.17690  0.40670  Biso   1.000  O
  C1       1.0000 0.53070  0.31950  0.56130  Biso   1.000  C
  C2       1.0000 0.35410  0.55490  0.77310  Biso   1.000  C
  O2       1.0000 0.23970  0.05330  0.24530  Biso   1.000  O
  C3       1.0000 0.26150  0.15410  0.28030  Biso   1.000  C
  N1       1.0000 0.34040  0.20500  0.99870  Biso   1.000  N
  H1       1.0000 0.40410  0.25270  0.94260  Biso   1.000  H
  H2       1.0000 0.27960  0.19460  0.93960  Biso   1.000  H
  C4       1.0000 0.34060  0.25200  0.16340  Biso   1.000  C
  H3       1.0000 0.41800  0.28370  0.20740  Biso   1.000  H
  N2       1.0000 0.36390  0.42420  0.30370  Biso   1.000  N
  H4       1.0000 0.34790  0.48110  0.29680  Biso   1.000  H
  H5       1.0000 0.44020  0.45560  0.30240  Biso   1.000  H
  C5       1.0000 0.31570  0.34950  0.15770  Biso   1.000  C
  H6       1.0000 0.34810  0.39370  0.05760  Biso   1.000  H
  H7       1.0000 0.23380  0.31890  0.15450  Biso   1.000  H
  N3       1.0000 0.45060  0.31740  0.61260  Biso   1.000  N
  N4       1.0000 0.36490  0.49410  0.68870  Biso   1.000  N
  Mn2      1.0000 0.66762  0.96435  0.54381  Biso   1.000  Mn
  O3       1.0000 0.82310  0.04900  0.40670  Biso   1.000  O
  C6       1.0000 0.68050  0.21120  0.56130  Biso   1.000  C
  C7       1.0000 0.44510  0.79920  0.77310  Biso   1.000  C
  O4       1.0000 0.94670  0.18640  0.24530  Biso   1.000  O
  C8       1.0000 0.84590  0.10740  0.28030  Biso   1.000  C
  N5       1.0000 0.79500  0.13540  0.99870  Biso   1.000  N
  H8       1.0000 0.74730  0.15140  0.94260  Biso   1.000  H
  H9       1.0000 0.80540  0.08500  0.93960  Biso   1.000  H
  C9       1.0000 0.74800  0.08860  0.16340  Biso   1.000  C
  H10      1.0000 0.71630  0.13430  0.20740  Biso   1.000  H
  N6       1.0000 0.57580  0.93970  0.30370  Biso   1.000  N
  H11      1.0000 0.51890  0.86680  0.29680  Biso   1.000  H
  H12      1.0000 0.54440  0.98460  0.30240  Biso   1.000  H
  C10      1.0000 0.65050  0.96620  0.15770  Biso   1.000  C
  H13      1.0000 0.60630  0.95440  0.05760  Biso   1.000  H
  H14      1.0000 0.68110  0.91490  0.15450  Biso   1.000  H
  N7       1.0000 0.68260  0.13320  0.61260  Biso   1.000  N
  N8       1.0000 0.50590  0.87080  0.68870  Biso   1.000  N
  Mn3      1.0000 0.03565  0.70327  0.54381  Biso   1.000  Mn
  O5       1.0000 0.95100  0.77410  0.40670  Biso   1.000  O
  C11      1.0000 0.78880  0.46930  0.56130  Biso   1.000  C
  C12      1.0000 0.20080  0.64590  0.77310  Biso   1.000  C
  O6       1.0000 0.81360  0.76030  0.24530  Biso   1.000  O
  C13      1.0000 0.89260  0.73850  0.28030  Biso   1.000  C
  N9       1.0000 0.86460  0.65960  0.99870  Biso   1.000  N
  H15      1.0000 0.84860  0.59590  0.94260  Biso   1.000  H
  H16      1.0000 0.91500  0.72040  0.93960  Biso   1.000  H
  C14      1.0000 0.91140  0.65940  0.16340  Biso   1.000  C
  H17      1.0000 0.86570  0.58200  0.20740  Biso   1.000  H
  N10      1.0000 0.06030  0.63610  0.30370  Biso   1.000  N
  H18      1.0000 0.13320  0.65210  0.29680  Biso   1.000  H
  H19      1.0000 0.01540  0.55980  0.30240  Biso   1.000  H
  C15      1.0000 0.03380  0.68430  0.15770  Biso   1.000  C
  H20      1.0000 0.04560  0.65190  0.05760  Biso   1.000  H
  H21      1.0000 0.08510  0.76620  0.15450  Biso   1.000  H
  N11      1.0000 0.86680  0.54940  0.61260  Biso   1.000  N
  N12      1.0000 0.12920  0.63510  0.68870  Biso   1.000  N
  Mn4      1.0000 0.70327  0.66762  0.04381  Biso   1.000  Mn
  O7       1.0000 0.77410  0.82310  0.90670  Biso   1.000  O
  C16      1.0000 0.46930  0.68050  0.06130  Biso   1.000  C
  C17      1.0000 0.64590  0.44510  0.27310  Biso   1.000  C
  O8       1.0000 0.76030  0.94670  0.74530  Biso   1.000  O
  C18      1.0000 0.73850  0.84590  0.78030  Biso   1.000  C
  N13      1.0000 0.65960  0.79500  0.49870  Biso   1.000  N
  H22      1.0000 0.59590  0.74730  0.44260  Biso   1.000  H
  H23      1.0000 0.72040  0.80540  0.43960  Biso   1.000  H
  C19      1.0000 0.65940  0.74800  0.66340  Biso   1.000  C
  H24      1.0000 0.58200  0.71630  0.70740  Biso   1.000  H
  N14      1.0000 0.63610  0.57580  0.80370  Biso   1.000  N
  H25      1.0000 0.65210  0.51890  0.79680  Biso   1.000  H
  H26      1.0000 0.55980  0.54440  0.80240  Biso   1.000  H
  C20      1.0000 0.68430  0.65050  0.65770  Biso   1.000  C
  H27      1.0000 0.65190  0.60630  0.55760  Biso   1.000  H
  H28      1.0000 0.76620  0.68110  0.65450  Biso   1.000  H
  N15      1.0000 0.54940  0.68260  0.11260  Biso   1.000  N
  N16      1.0000 0.63510  0.50590  0.18870  Biso   1.000  N
  Mn5      1.0000 0.33238  0.03565  0.04381  Biso   1.000  Mn
  O9       1.0000 0.17690  0.95100  0.90670  Biso   1.000  O
  C21      1.0000 0.31950  0.78880  0.06130  Biso   1.000  C
  C22      1.0000 0.55490  0.20080  0.27310  Biso   1.000  C
  O10      1.0000 0.05330  0.81360  0.74530  Biso   1.000  O
  C23      1.0000 0.15410  0.89260  0.78030  Biso   1.000  C
  N17      1.0000 0.20500  0.86460  0.49870  Biso   1.000  N
  H29      1.0000 0.25270  0.84860  0.44260  Biso   1.000  H
  H30      1.0000 0.19460  0.91500  0.43960  Biso   1.000  H
  C24      1.0000 0.25200  0.91140  0.66340  Biso   1.000  C
  H31      1.0000 0.28370  0.86570  0.70740  Biso   1.000  H
  N18      1.0000 0.42420  0.06030  0.80370  Biso   1.000  N
  H32      1.0000 0.48110  0.13320  0.79680  Biso   1.000  H
  H33      1.0000 0.45560  0.01540  0.80240  Biso   1.000  H
  C25      1.0000 0.34950  0.03380  0.65770  Biso   1.000  C
  H34      1.0000 0.39370  0.04560  0.55760  Biso   1.000  H
  H35      1.0000 0.31890  0.08510  0.65450  Biso   1.000  H
  N19      1.0000 0.31740  0.86680  0.11260  Biso   1.000  N
  N20      1.0000 0.49410  0.12920  0.18870  Biso   1.000  N
  Mn6      1.0000 0.96435  0.29673  0.04381  Biso   1.000  Mn
  O11      1.0000 0.04900  0.22590  0.90670  Biso   1.000  O
  C26      1.0000 0.21120  0.53070  0.06130  Biso   1.000  C
  C27      1.0000 0.79920  0.35410  0.27310  Biso   1.000  C
  O12      1.0000 0.18640  0.23970  0.74530  Biso   1.000  O
  C28      1.0000 0.10740  0.26150  0.78030  Biso   1.000  C
  N21      1.0000 0.13540  0.34040  0.49870  Biso   1.000  N
  H36      1.0000 0.15140  0.40410  0.44260  Biso   1.000  H
  H37      1.0000 0.08500  0.27960  0.43960  Biso   1.000  H
  C29      1.0000 0.08860  0.34060  0.66340  Biso   1.000  C
  H38      1.0000 0.13430  0.41800  0.70740  Biso   1.000  H
  N22      1.0000 0.93970  0.36390  0.80370  Biso   1.000  N
  H39      1.0000 0.86680  0.34790  0.79680  Biso   1.000  H
  H40      1.0000 0.98460  0.44020  0.80240  Biso   1.000  H
  C30      1.0000 0.96620  0.31570  0.65770  Biso   1.000  C
  H41      1.0000 0.95440  0.34810  0.55760  Biso   1.000  H
  H42      1.0000 0.91490  0.23380  0.65450  Biso   1.000  H
  N23      1.0000 0.13320  0.45060  0.11260  Biso   1.000  N
  N24      1.0000 0.87080  0.36490  0.18870  Biso   1.000  N
  Cr1      1.0000 0.33333  0.66667  0.92440  Biso   1.000  Cr
  Cr2      1.0000 0.66667  0.33333  0.42440  Biso   1.000  Cr
