data_image0
_cell_length_a       13.5576
_cell_length_b       13.5576
_cell_length_c       8.0994
_cell_angle_alpha    90
_cell_angle_beta     90
_cell_angle_gamma    120

_symmetry_space_group_name_H-M    "P 1"
_symmetry_int_tables_number       1

loop_
  _symmetry_equiv_pos_as_xyz
  'x, y, z'

loop_
  _atom_site_label
  _atom_site_occupancy
  _atom_site_fract_x
  _atom_site_fract_y
  _atom_site_fract_z
  _atom_site_thermal_displace_type
  _atom_site_B_iso_or_equiv
  _atom_site_type_symbol
  Mn1      1.0000 0.29573  0.33190  0.54415  Biso   1.000  Mn
  O1       1.0000 0.22620  0.17670  0.40710  Biso   1.000  O
  C1       1.0000 0.53080  0.32030  0.56060  Biso   1.000  C
  C2       1.0000 0.35300  0.55460  0.77300  Biso   1.000  C
  O2       1.0000 0.23970  0.05440  0.24520  Biso   1.000  O
  C3       1.0000 0.26140  0.15460  0.28050  Biso   1.000  C
  N1       1.0000 0.34010  0.20660  0.00000  Biso   1.000  N
  H1       1.0000 0.40410  0.25450  0.94490  Biso   1.000  H
  H2       1.0000 0.27970  0.19660  0.94070  Biso   1.000  H
  C4       1.0000 0.33960  0.25250  0.16470  Biso   1.000  C
  H3       1.0000 0.41700  0.28440  0.20860  Biso   1.000  H
  N2       1.0000 0.36270  0.42350  0.30450  Biso   1.000  N
  H4       1.0000 0.34680  0.48030  0.29770  Biso   1.000  H
  H5       1.0000 0.43900  0.45490  0.30330  Biso   1.000  H
  C5       1.0000 0.31480  0.34900  0.15890  Biso   1.000  C
  H6       1.0000 0.34730  0.39330  0.05920  Biso   1.000  H
  H7       1.0000 0.23300  0.31840  0.15550  Biso   1.000  H
  N3       1.0000 0.45130  0.31880  0.61090  Biso   1.000  N
  N4       1.0000 0.36340  0.49330  0.68960  Biso   1.000  N
  Mn2      1.0000 0.66810  0.96383  0.54415  Biso   1.000  Mn
  O3       1.0000 0.82330  0.04950  0.40710  Biso   1.000  O
  C6       1.0000 0.67970  0.21050  0.56060  Biso   1.000  C
  C7       1.0000 0.44540  0.79840  0.77300  Biso   1.000  C
  O4       1.0000 0.94560  0.18530  0.24520  Biso   1.000  O
  C8       1.0000 0.84540  0.10680  0.28050  Biso   1.000  C
  N5       1.0000 0.79340  0.13350  0.00000  Biso   1.000  N
  H8       1.0000 0.74550  0.14960  0.94490  Biso   1.000  H
  H9       1.0000 0.80340  0.08310  0.94070  Biso   1.000  H
  C9       1.0000 0.74750  0.08710  0.16470  Biso   1.000  C
  H10      1.0000 0.71560  0.13260  0.20860  Biso   1.000  H
  N6       1.0000 0.57650  0.93920  0.30450  Biso   1.000  N
  H11      1.0000 0.51970  0.86650  0.29770  Biso   1.000  H
  H12      1.0000 0.54510  0.98410  0.30330  Biso   1.000  H
  C10      1.0000 0.65100  0.96580  0.15890  Biso   1.000  C
  H13      1.0000 0.60670  0.95400  0.05920  Biso   1.000  H
  H14      1.0000 0.68160  0.91460  0.15550  Biso   1.000  H
  N7       1.0000 0.68120  0.13250  0.61090  Biso   1.000  N
  N8       1.0000 0.50670  0.87010  0.68960  Biso   1.000  N
  Mn3      1.0000 0.03617  0.70427  0.54415  Biso   1.000  Mn
  O5       1.0000 0.95050  0.77380  0.40710  Biso   1.000  O
  C11      1.0000 0.78950  0.46920  0.56060  Biso   1.000  C
  C12      1.0000 0.20160  0.64700  0.77300  Biso   1.000  C
  O6       1.0000 0.81470  0.76030  0.24520  Biso   1.000  O
  C13      1.0000 0.89320  0.73860  0.28050  Biso   1.000  C
  N9       1.0000 0.86650  0.65990  0.00000  Biso   1.000  N
  H15      1.0000 0.85040  0.59590  0.94490  Biso   1.000  H
  H16      1.0000 0.91690  0.72030  0.94070  Biso   1.000  H
  C14      1.0000 0.91290  0.66040  0.16470  Biso   1.000  C
  H17      1.0000 0.86740  0.58300  0.20860  Biso   1.000  H
  N10      1.0000 0.06080  0.63730  0.30450  Biso   1.000  N
  H18      1.0000 0.13350  0.65320  0.29770  Biso   1.000  H
  H19      1.0000 0.01590  0.56100  0.30330  Biso   1.000  H
  C15      1.0000 0.03420  0.68520  0.15890  Biso   1.000  C
  H20      1.0000 0.04600  0.65270  0.05920  Biso   1.000  H
  H21      1.0000 0.08540  0.76700  0.15550  Biso   1.000  H
  N11      1.0000 0.86750  0.54870  0.61090  Biso   1.000  N
  N12      1.0000 0.12990  0.63660  0.68960  Biso   1.000  N
  Mn4      1.0000 0.70427  0.66810  0.04415  Biso   1.000  Mn
  O7       1.0000 0.77380  0.82330  0.90710  Biso   1.000  O
  C16      1.0000 0.46920  0.67970  0.06060  Biso   1.000  C
  C17      1.0000 0.64700  0.44540  0.27300  Biso   1.000  C
  O8       1.0000 0.76030  0.94560  0.74520  Biso   1.000  O
  C18      1.0000 0.73860  0.84540  0.78050  Biso   1.000  C
  N13      1.0000 0.65990  0.79340  0.50000  Biso   1.000  N
  H22      1.0000 0.59590  0.74550  0.44490  Biso   1.000  H
  H23      1.0000 0.72030  0.80340  0.44070  Biso   1.000  H
  C19      1.0000 0.66040  0.74750  0.66470  Biso   1.000  C
  H24      1.0000 0.58300  0.71560  0.70860  Biso   1.000  H
  N14      1.0000 0.63730  0.57650  0.80450  Biso   1.000  N
  H25      1.0000 0.65320  0.51970  0.79770  Biso   1.000  H
  H26      1.0000 0.56100  0.54510  0.80330  Biso   1.000  H
  C20      1.0000 0.68520  0.65100  0.65890  Biso   1.000  C
  H27      1.0000 0.65270  0.60670  0.55920  Biso   1.000  H
  H28      1.0000 0.76700  0.68160  0.65550  Biso   1.000  H
  N15      1.0000 0.54870  0.68120  0.11090  Biso   1.000  N
  N16      1.0000 0.63660  0.50670  0.18960  Biso   1.000  N
  Mn5      1.0000 0.33190  0.03617  0.04415  Biso   1.000  Mn
  O9       1.0000 0.17670  0.95050  0.90710  Biso   1.000  O
  C21      1.0000 0.32030  0.78950  0.06060  Biso   1.000  C
  C22      1.0000 0.55460  0.20160  0.27300  Biso   1.000  C
  O10      1.0000 0.05440  0.81470  0.74520  Biso   1.000  O
  C23      1.0000 0.15460  0.89320  0.78050  Biso   1.000  C
  N17      1.0000 0.20660  0.86650  0.50000  Biso   1.000  N
  H29      1.0000 0.25450  0.85040  0.44490  Biso   1.000  H
  H30      1.0000 0.19660  0.91690  0.44070  Biso   1.000  H
  C24      1.0000 0.25250  0.91290  0.66470  Biso   1.000  C
  H31      1.0000 0.28440  0.86740  0.70860  Biso   1.000  H
  N18      1.0000 0.42350  0.06080  0.80450  Biso   1.000  N
  H32      1.0000 0.48030  0.13350  0.79770  Biso   1.000  H
  H33      1.0000 0.45490  0.01590  0.80330  Biso   1.000  H
  C25      1.0000 0.34900  0.03420  0.65890  Biso   1.000  C
  H34      1.0000 0.39330  0.04600  0.55920  Biso   1.000  H
  H35      1.0000 0.31840  0.08540  0.65550  Biso   1.000  H
  N19      1.0000 0.31880  0.86750  0.11090  Biso   1.000  N
  N20      1.0000 0.49330  0.12990  0.18960  Biso   1.000  N
  Mn6      1.0000 0.96383  0.29573  0.04415  Biso   1.000  Mn
  O11      1.0000 0.04950  0.22620  0.90710  Biso   1.000  O
  C26      1.0000 0.21050  0.53080  0.06060  Biso   1.000  C
  C27      1.0000 0.79840  0.35300  0.27300  Biso   1.000  C
  O12      1.0000 0.18530  0.23970  0.74520  Biso   1.000  O
  C28      1.0000 0.10680  0.26140  0.78050  Biso   1.000  C
  N21      1.0000 0.13350  0.34010  0.50000  Biso   1.000  N
  H36      1.0000 0.14960  0.40410  0.44490  Biso   1.000  H
  H37      1.0000 0.08310  0.27970  0.44070  Biso   1.000  H
  C29      1.0000 0.08710  0.33960  0.66470  Biso   1.000  C
  H38      1.0000 0.13260  0.41700  0.70860  Biso   1.000  H
  N22      1.0000 0.93920  0.36270  0.80450  Biso   1.000  N
  H39      1.0000 0.86650  0.34680  0.79770  Biso   1.000  H
  H40      1.0000 0.98410  0.43900  0.80330  Biso   1.000  H
  C30      1.0000 0.96580  0.31480  0.65890  Biso   1.000  C
  H41      1.0000 0.95400  0.34730  0.55920  Biso   1.000  H
  H42      1.0000 0.91460  0.23300  0.65550  Biso   1.000  H
  N23      1.0000 0.13250  0.45130  0.11090  Biso   1.000  N
  N24      1.0000 0.87010  0.36340  0.18960  Biso   1.000  N
  Cr1      1.0000 0.33333  0.66667  0.92380  Biso   1.000  Cr
  Cr2      1.0000 0.66667  0.33333  0.42380  Biso   1.000  Cr
