data_image0
_cell_length_a       16.134
_cell_length_b       16.134
_cell_length_c       4.5489
_cell_angle_alpha    90
_cell_angle_beta     90
_cell_angle_gamma    90

_symmetry_space_group_name_H-M    "P 1"
_symmetry_int_tables_number       1

loop_
  _symmetry_equiv_pos_as_xyz
  'x, y, z'

loop_
  _atom_site_label
  _atom_site_occupancy
  _atom_site_fract_x
  _atom_site_fract_y
  _atom_site_fract_z
  _atom_site_thermal_displace_type
  _atom_site_B_iso_or_equiv
  _atom_site_type_symbol
  Cu1      1.0000 0.19906  0.53858  0.50160  Biso   1.000  Cu
  O1       1.0000 0.07860  0.69330  0.17300  Biso   1.000  O
  H1       1.0000 0.04550  0.65490  0.18080  Biso   1.000  H
  O2       1.0000 0.13190  0.61840  0.75400  Biso   1.000  O
  O3       1.0000 0.21970  0.62130  0.20500  Biso   1.000  O
  O4       1.0000 0.42400  0.96370  0.78100  Biso   1.000  O
  O5       1.0000 0.47650  0.90230  0.27200  Biso   1.000  O
  O6       1.0000 0.45490  0.81000  0.82600  Biso   1.000  O
  P1       1.0000 0.15928  0.66462  0.99800  Biso   1.000  P
  P2       1.0000 0.42488  0.88450  0.99950  Biso   1.000  P
  C1       1.0000 0.20720  0.76060  0.89400  Biso   1.000  C
  C2       1.0000 0.28390  0.78400  0.00700  Biso   1.000  C
  H2       1.0000 0.31060  0.75230  0.14940  Biso   1.000  H
  C3       1.0000 0.32000  0.85860  0.89700  Biso   1.000  C
  C4       1.0000 0.27860  0.90880  0.69500  Biso   1.000  C
  H3       1.0000 0.30250  0.95820  0.63200  Biso   1.000  H
  C5       1.0000 0.20060  0.88440  0.58700  Biso   1.000  C
  C6       1.0000 0.16670  0.81200  0.68100  Biso   1.000  C
  H4       1.0000 0.11590  0.79530  0.60470  Biso   1.000  H
  C7       1.0000 0.15300  0.93880  0.38100  Biso   1.000  C
  H5       1.0000 0.10100  0.91300  0.33390  Biso   1.000  H
  H6       1.0000 0.18440  0.94670  0.20370  Biso   1.000  H
  H7       1.0000 0.14310  0.99150  0.47200  Biso   1.000  H
  O7       1.0000 0.22100  0.62100  0.78200  Biso   1.000  O
  O8       1.0000 0.13400  0.60920  0.28300  Biso   1.000  O
  O9       1.0000 0.08100  0.69400  0.85200  Biso   1.000  O
  O10      1.0000 0.45730  0.80510  0.17200  Biso   1.000  O
  O11      1.0000 0.47700  0.90400  0.75800  Biso   1.000  O
  O12      1.0000 0.41620  0.96150  0.20700  Biso   1.000  O
  Cu2      1.0000 0.80094  0.46142  0.50160  Biso   1.000  Cu
  O13      1.0000 0.92140  0.30670  0.17300  Biso   1.000  O
  H8       1.0000 0.95450  0.34510  0.18080  Biso   1.000  H
  O14      1.0000 0.86810  0.38160  0.75400  Biso   1.000  O
  O15      1.0000 0.78030  0.37870  0.20500  Biso   1.000  O
  O16      1.0000 0.57600  0.03630  0.78100  Biso   1.000  O
  O17      1.0000 0.52350  0.09770  0.27200  Biso   1.000  O
  O18      1.0000 0.54510  0.19000  0.82600  Biso   1.000  O
  P3       1.0000 0.84072  0.33538  0.99800  Biso   1.000  P
  P4       1.0000 0.57512  0.11550  0.99950  Biso   1.000  P
  C8       1.0000 0.79280  0.23940  0.89400  Biso   1.000  C
  C9       1.0000 0.71610  0.21600  0.00700  Biso   1.000  C
  H9       1.0000 0.68940  0.24770  0.14940  Biso   1.000  H
  C10      1.0000 0.68000  0.14140  0.89700  Biso   1.000  C
  C11      1.0000 0.72140  0.09120  0.69500  Biso   1.000  C
  H10      1.0000 0.69750  0.04180  0.63200  Biso   1.000  H
  C12      1.0000 0.79940  0.11560  0.58700  Biso   1.000  C
  C13      1.0000 0.83330  0.18800  0.68100  Biso   1.000  C
  H11      1.0000 0.88410  0.20470  0.60470  Biso   1.000  H
  C14      1.0000 0.84700  0.06120  0.38100  Biso   1.000  C
  H12      1.0000 0.89900  0.08700  0.33390  Biso   1.000  H
  H13      1.0000 0.81560  0.05330  0.20370  Biso   1.000  H
  H14      1.0000 0.85690  0.00850  0.47200  Biso   1.000  H
  O19      1.0000 0.77900  0.37900  0.78200  Biso   1.000  O
  O20      1.0000 0.86600  0.39080  0.28300  Biso   1.000  O
  O21      1.0000 0.91900  0.30600  0.85200  Biso   1.000  O
  O22      1.0000 0.54270  0.19490  0.17200  Biso   1.000  O
  O23      1.0000 0.52300  0.09600  0.75800  Biso   1.000  O
  O24      1.0000 0.58380  0.03850  0.20700  Biso   1.000  O
  Cu3      1.0000 0.53858  0.80094  0.49840  Biso   1.000  Cu
  O25      1.0000 0.69330  0.92140  0.82700  Biso   1.000  O
  H15      1.0000 0.65490  0.95450  0.81920  Biso   1.000  H
  O26      1.0000 0.61840  0.86810  0.24600  Biso   1.000  O
  O27      1.0000 0.62130  0.78030  0.79500  Biso   1.000  O
  O28      1.0000 0.96370  0.57600  0.21900  Biso   1.000  O
  O29      1.0000 0.90230  0.52350  0.72800  Biso   1.000  O
  O30      1.0000 0.81000  0.54510  0.17400  Biso   1.000  O
  P5       1.0000 0.66462  0.84072  0.00200  Biso   1.000  P
  P6       1.0000 0.88450  0.57512  0.00050  Biso   1.000  P
  C15      1.0000 0.76060  0.79280  0.10600  Biso   1.000  C
  C16      1.0000 0.78400  0.71610  0.99300  Biso   1.000  C
  H16      1.0000 0.75230  0.68940  0.85060  Biso   1.000  H
  C17      1.0000 0.85860  0.68000  0.10300  Biso   1.000  C
  C18      1.0000 0.90880  0.72140  0.30500  Biso   1.000  C
  H17      1.0000 0.95820  0.69750  0.36800  Biso   1.000  H
  C19      1.0000 0.88440  0.79940  0.41300  Biso   1.000  C
  C20      1.0000 0.81200  0.83330  0.31900  Biso   1.000  C
  H18      1.0000 0.79530  0.88410  0.39530  Biso   1.000  H
  C21      1.0000 0.93880  0.84700  0.61900  Biso   1.000  C
  H19      1.0000 0.91300  0.89900  0.66610  Biso   1.000  H
  H20      1.0000 0.94670  0.81560  0.79630  Biso   1.000  H
  H21      1.0000 0.99150  0.85690  0.52800  Biso   1.000  H
  O31      1.0000 0.62100  0.77900  0.21800  Biso   1.000  O
  O32      1.0000 0.60920  0.86600  0.71700  Biso   1.000  O
  O33      1.0000 0.69400  0.91900  0.14800  Biso   1.000  O
  O34      1.0000 0.80510  0.54270  0.82800  Biso   1.000  O
  O35      1.0000 0.90400  0.52300  0.24200  Biso   1.000  O
  O36      1.0000 0.96150  0.58380  0.79300  Biso   1.000  O
  Cu4      1.0000 0.46142  0.19906  0.49840  Biso   1.000  Cu
  O37      1.0000 0.30670  0.07860  0.82700  Biso   1.000  O
  H22      1.0000 0.34510  0.04550  0.81920  Biso   1.000  H
  O38      1.0000 0.38160  0.13190  0.24600  Biso   1.000  O
  O39      1.0000 0.37870  0.21970  0.79500  Biso   1.000  O
  O40      1.0000 0.03630  0.42400  0.21900  Biso   1.000  O
  O41      1.0000 0.09770  0.47650  0.72800  Biso   1.000  O
  O42      1.0000 0.19000  0.45490  0.17400  Biso   1.000  O
  P7       1.0000 0.33538  0.15928  0.00200  Biso   1.000  P
  P8       1.0000 0.11550  0.42488  0.00050  Biso   1.000  P
  C22      1.0000 0.23940  0.20720  0.10600  Biso   1.000  C
  C23      1.0000 0.21600  0.28390  0.99300  Biso   1.000  C
  H23      1.0000 0.24770  0.31060  0.85060  Biso   1.000  H
  C24      1.0000 0.14140  0.32000  0.10300  Biso   1.000  C
  C25      1.0000 0.09120  0.27860  0.30500  Biso   1.000  C
  H24      1.0000 0.04180  0.30250  0.36800  Biso   1.000  H
  C26      1.0000 0.11560  0.20060  0.41300  Biso   1.000  C
  C27      1.0000 0.18800  0.16670  0.31900  Biso   1.000  C
  H25      1.0000 0.20470  0.11590  0.39530  Biso   1.000  H
  C28      1.0000 0.06120  0.15300  0.61900  Biso   1.000  C
  H26      1.0000 0.08700  0.10100  0.66610  Biso   1.000  H
  H27      1.0000 0.05330  0.18440  0.79630  Biso   1.000  H
  H28      1.0000 0.00850  0.14310  0.52800  Biso   1.000  H
  O43      1.0000 0.37900  0.22100  0.21800  Biso   1.000  O
  O44      1.0000 0.39080  0.13400  0.71700  Biso   1.000  O
  O45      1.0000 0.30600  0.08100  0.14800  Biso   1.000  O
  O46      1.0000 0.19490  0.45730  0.82800  Biso   1.000  O
  O47      1.0000 0.09600  0.47700  0.24200  Biso   1.000  O
  O48      1.0000 0.03850  0.41620  0.79300  Biso   1.000  O
  Cu5      1.0000 0.50000  0.00000  0.50050  Biso   1.000  Cu
  Cu6      1.0000 0.00000  0.50000  0.49950  Biso   1.000  Cu
