data_image0
_cell_length_a       22.3819
_cell_length_b       22.3819
_cell_length_c       22.3819
_cell_angle_alpha    90
_cell_angle_beta     90
_cell_angle_gamma    90

_symmetry_space_group_name_H-M    "P 1"
_symmetry_int_tables_number       1

loop_
  _symmetry_equiv_pos_as_xyz
  'x, y, z'

loop_
  _atom_site_label
  _atom_site_occupancy
  _atom_site_fract_x
  _atom_site_fract_y
  _atom_site_fract_z
  _atom_site_thermal_displace_type
  _atom_site_B_iso_or_equiv
  _atom_site_type_symbol
  N1       1.0000 0.56290  0.71660  0.82330  Biso   1.000  N
  N2       1.0000 0.63400  0.69870  0.76020  Biso   1.000  N
  N3       1.0000 0.57780  0.65740  0.82360  Biso   1.000  N
  N4       1.0000 0.62220  0.64920  0.78790  Biso   1.000  N
  C1       1.0000 0.59900  0.74210  0.78360  Biso   1.000  C
  C2       1.0000 0.60410  0.80650  0.77100  Biso   1.000  C
  H1       1.0000 0.63340  0.81280  0.74040  Biso   1.000  H
  H2       1.0000 0.56610  0.82150  0.75780  Biso   1.000  H
  H3       1.0000 0.61600  0.82720  0.80670  Biso   1.000  H
  N5       1.0000 0.06290  0.21660  0.32330  Biso   1.000  N
  N6       1.0000 0.13400  0.19870  0.26020  Biso   1.000  N
  N7       1.0000 0.07780  0.15740  0.32360  Biso   1.000  N
  N8       1.0000 0.12220  0.14920  0.28790  Biso   1.000  N
  C3       1.0000 0.09900  0.24210  0.28360  Biso   1.000  C
  C4       1.0000 0.10410  0.30650  0.27100  Biso   1.000  C
  H4       1.0000 0.13340  0.31280  0.24040  Biso   1.000  H
  H5       1.0000 0.06610  0.32150  0.25780  Biso   1.000  H
  H6       1.0000 0.11600  0.32720  0.30670  Biso   1.000  H
  N9       1.0000 0.93710  0.28340  0.32330  Biso   1.000  N
  N10      1.0000 0.86600  0.30130  0.26020  Biso   1.000  N
  N11      1.0000 0.92220  0.34260  0.32360  Biso   1.000  N
  N12      1.0000 0.87780  0.35080  0.28790  Biso   1.000  N
  C5       1.0000 0.90100  0.25790  0.28360  Biso   1.000  C
  C6       1.0000 0.89590  0.19350  0.27100  Biso   1.000  C
  H7       1.0000 0.86660  0.18720  0.24040  Biso   1.000  H
  H8       1.0000 0.93390  0.17850  0.25780  Biso   1.000  H
  H9       1.0000 0.88400  0.17280  0.30670  Biso   1.000  H
  N13      1.0000 0.43710  0.78340  0.82330  Biso   1.000  N
  N14      1.0000 0.36600  0.80130  0.76020  Biso   1.000  N
  N15      1.0000 0.42220  0.84260  0.82360  Biso   1.000  N
  N16      1.0000 0.37780  0.85080  0.78790  Biso   1.000  N
  C7       1.0000 0.40100  0.75790  0.78360  Biso   1.000  C
  C8       1.0000 0.39590  0.69350  0.77100  Biso   1.000  C
  H10      1.0000 0.36660  0.68720  0.74040  Biso   1.000  H
  H11      1.0000 0.43390  0.67850  0.75780  Biso   1.000  H
  H12      1.0000 0.38400  0.67280  0.80670  Biso   1.000  H
  N17      1.0000 0.43710  0.21660  0.67670  Biso   1.000  N
  N18      1.0000 0.36600  0.19870  0.73980  Biso   1.000  N
  N19      1.0000 0.42220  0.15740  0.67640  Biso   1.000  N
  N20      1.0000 0.37780  0.14920  0.71210  Biso   1.000  N
  C9       1.0000 0.40100  0.24210  0.71640  Biso   1.000  C
  C10      1.0000 0.39590  0.30650  0.72900  Biso   1.000  C
  H13      1.0000 0.36660  0.31280  0.75960  Biso   1.000  H
  H14      1.0000 0.43390  0.32150  0.74220  Biso   1.000  H
  H15      1.0000 0.38400  0.32720  0.69330  Biso   1.000  H
  N21      1.0000 0.93710  0.71660  0.17670  Biso   1.000  N
  N22      1.0000 0.86600  0.69870  0.23980  Biso   1.000  N
  N23      1.0000 0.92220  0.65740  0.17640  Biso   1.000  N
  N24      1.0000 0.87780  0.64920  0.21210  Biso   1.000  N
  C11      1.0000 0.90100  0.74210  0.21640  Biso   1.000  C
  C12      1.0000 0.89590  0.80650  0.22900  Biso   1.000  C
  H16      1.0000 0.86660  0.81280  0.25960  Biso   1.000  H
  H17      1.0000 0.93390  0.82150  0.24220  Biso   1.000  H
  H18      1.0000 0.88400  0.82720  0.19330  Biso   1.000  H
  N25      1.0000 0.06290  0.78340  0.17670  Biso   1.000  N
  N26      1.0000 0.13400  0.80130  0.23980  Biso   1.000  N
  N27      1.0000 0.07780  0.84260  0.17640  Biso   1.000  N
  N28      1.0000 0.12220  0.85080  0.21210  Biso   1.000  N
  C13      1.0000 0.09900  0.75790  0.21640  Biso   1.000  C
  C14      1.0000 0.10410  0.69350  0.22900  Biso   1.000  C
  H19      1.0000 0.13340  0.68720  0.25960  Biso   1.000  H
  H20      1.0000 0.06610  0.67850  0.24220  Biso   1.000  H
  H21      1.0000 0.11600  0.67280  0.19330  Biso   1.000  H
  N29      1.0000 0.56290  0.28340  0.67670  Biso   1.000  N
  N30      1.0000 0.63400  0.30130  0.73980  Biso   1.000  N
  N31      1.0000 0.57780  0.34260  0.67640  Biso   1.000  N
  N32      1.0000 0.62220  0.35080  0.71210  Biso   1.000  N
  C15      1.0000 0.59900  0.25790  0.71640  Biso   1.000  C
  C16      1.0000 0.60410  0.19350  0.72900  Biso   1.000  C
  H22      1.0000 0.63340  0.18720  0.75960  Biso   1.000  H
  H23      1.0000 0.56610  0.17850  0.74220  Biso   1.000  H
  H24      1.0000 0.61600  0.17280  0.69330  Biso   1.000  H
  N33      1.0000 0.82330  0.56290  0.71660  Biso   1.000  N
  N34      1.0000 0.76020  0.63400  0.69870  Biso   1.000  N
  N35      1.0000 0.82360  0.57780  0.65740  Biso   1.000  N
  N36      1.0000 0.78790  0.62220  0.64920  Biso   1.000  N
  C17      1.0000 0.78360  0.59900  0.74210  Biso   1.000  C
  C18      1.0000 0.77100  0.60410  0.80650  Biso   1.000  C
  H25      1.0000 0.74040  0.63340  0.81280  Biso   1.000  H
  H26      1.0000 0.75780  0.56610  0.82150  Biso   1.000  H
  H27      1.0000 0.80670  0.61600  0.82720  Biso   1.000  H
  N37      1.0000 0.32330  0.06290  0.21660  Biso   1.000  N
  N38      1.0000 0.26020  0.13400  0.19870  Biso   1.000  N
  N39      1.0000 0.32360  0.07780  0.15740  Biso   1.000  N
  N40      1.0000 0.28790  0.12220  0.14920  Biso   1.000  N
  C19      1.0000 0.28360  0.09900  0.24210  Biso   1.000  C
  C20      1.0000 0.27100  0.10410  0.30650  Biso   1.000  C
  H28      1.0000 0.24040  0.13340  0.31280  Biso   1.000  H
  H29      1.0000 0.25780  0.06610  0.32150  Biso   1.000  H
  H30      1.0000 0.30670  0.11600  0.32720  Biso   1.000  H
  N41      1.0000 0.32330  0.93710  0.28340  Biso   1.000  N
  N42      1.0000 0.26020  0.86600  0.30130  Biso   1.000  N
  N43      1.0000 0.32360  0.92220  0.34260  Biso   1.000  N
  N44      1.0000 0.28790  0.87780  0.35080  Biso   1.000  N
  C21      1.0000 0.28360  0.90100  0.25790  Biso   1.000  C
  C22      1.0000 0.27100  0.89590  0.19350  Biso   1.000  C
  H31      1.0000 0.24040  0.86660  0.18720  Biso   1.000  H
  H32      1.0000 0.25780  0.93390  0.17850  Biso   1.000  H
  H33      1.0000 0.30670  0.88400  0.17280  Biso   1.000  H
  N45      1.0000 0.82330  0.43710  0.78340  Biso   1.000  N
  N46      1.0000 0.76020  0.36600  0.80130  Biso   1.000  N
  N47      1.0000 0.82360  0.42220  0.84260  Biso   1.000  N
  N48      1.0000 0.78790  0.37780  0.85080  Biso   1.000  N
  C23      1.0000 0.78360  0.40100  0.75790  Biso   1.000  C
  C24      1.0000 0.77100  0.39590  0.69350  Biso   1.000  C
  H34      1.0000 0.74040  0.36660  0.68720  Biso   1.000  H
  H35      1.0000 0.75780  0.43390  0.67850  Biso   1.000  H
  H36      1.0000 0.80670  0.38400  0.67280  Biso   1.000  H
  N49      1.0000 0.67670  0.43710  0.21660  Biso   1.000  N
  N50      1.0000 0.73980  0.36600  0.19870  Biso   1.000  N
  N51      1.0000 0.67640  0.42220  0.15740  Biso   1.000  N
  N52      1.0000 0.71210  0.37780  0.14920  Biso   1.000  N
  C25      1.0000 0.71640  0.40100  0.24210  Biso   1.000  C
  C26      1.0000 0.72900  0.39590  0.30650  Biso   1.000  C
  H37      1.0000 0.75960  0.36660  0.31280  Biso   1.000  H
  H38      1.0000 0.74220  0.43390  0.32150  Biso   1.000  H
  H39      1.0000 0.69330  0.38400  0.32720  Biso   1.000  H
  N53      1.0000 0.17670  0.93710  0.71660  Biso   1.000  N
  N54      1.0000 0.23980  0.86600  0.69870  Biso   1.000  N
  N55      1.0000 0.17640  0.92220  0.65740  Biso   1.000  N
  N56      1.0000 0.21210  0.87780  0.64920  Biso   1.000  N
  C27      1.0000 0.21640  0.90100  0.74210  Biso   1.000  C
  C28      1.0000 0.22900  0.89590  0.80650  Biso   1.000  C
  H40      1.0000 0.25960  0.86660  0.81280  Biso   1.000  H
  H41      1.0000 0.24220  0.93390  0.82150  Biso   1.000  H
  H42      1.0000 0.19330  0.88400  0.82720  Biso   1.000  H
  N57      1.0000 0.17670  0.06290  0.78340  Biso   1.000  N
  N58      1.0000 0.23980  0.13400  0.80130  Biso   1.000  N
  N59      1.0000 0.17640  0.07780  0.84260  Biso   1.000  N
  N60      1.0000 0.21210  0.12220  0.85080  Biso   1.000  N
  C29      1.0000 0.21640  0.09900  0.75790  Biso   1.000  C
  C30      1.0000 0.22900  0.10410  0.69350  Biso   1.000  C
  H43      1.0000 0.25960  0.13340  0.68720  Biso   1.000  H
  H44      1.0000 0.24220  0.06610  0.67850  Biso   1.000  H
  H45      1.0000 0.19330  0.11600  0.67280  Biso   1.000  H
  N61      1.0000 0.67670  0.56290  0.28340  Biso   1.000  N
  N62      1.0000 0.73980  0.63400  0.30130  Biso   1.000  N
  N63      1.0000 0.67640  0.57780  0.34260  Biso   1.000  N
  N64      1.0000 0.71210  0.62220  0.35080  Biso   1.000  N
  C31      1.0000 0.71640  0.59900  0.25790  Biso   1.000  C
  C32      1.0000 0.72900  0.60410  0.19350  Biso   1.000  C
  H46      1.0000 0.75960  0.63340  0.18720  Biso   1.000  H
  H47      1.0000 0.74220  0.56610  0.17850  Biso   1.000  H
  H48      1.0000 0.69330  0.61600  0.17280  Biso   1.000  H
  N65      1.0000 0.71660  0.82330  0.56290  Biso   1.000  N
  N66      1.0000 0.69870  0.76020  0.63400  Biso   1.000  N
  N67      1.0000 0.65740  0.82360  0.57780  Biso   1.000  N
  N68      1.0000 0.64920  0.78790  0.62220  Biso   1.000  N
  C33      1.0000 0.74210  0.78360  0.59900  Biso   1.000  C
  C34      1.0000 0.80650  0.77100  0.60410  Biso   1.000  C
  H49      1.0000 0.81280  0.74040  0.63340  Biso   1.000  H
  H50      1.0000 0.82150  0.75780  0.56610  Biso   1.000  H
  H51      1.0000 0.82720  0.80670  0.61600  Biso   1.000  H
  N69      1.0000 0.21660  0.32330  0.06290  Biso   1.000  N
  N70      1.0000 0.19870  0.26020  0.13400  Biso   1.000  N
  N71      1.0000 0.15740  0.32360  0.07780  Biso   1.000  N
  N72      1.0000 0.14920  0.28790  0.12220  Biso   1.000  N
  C35      1.0000 0.24210  0.28360  0.09900  Biso   1.000  C
  C36      1.0000 0.30650  0.27100  0.10410  Biso   1.000  C
  H52      1.0000 0.31280  0.24040  0.13340  Biso   1.000  H
  H53      1.0000 0.32150  0.25780  0.06610  Biso   1.000  H
  H54      1.0000 0.32720  0.30670  0.11600  Biso   1.000  H
  N73      1.0000 0.28340  0.32330  0.93710  Biso   1.000  N
  N74      1.0000 0.30130  0.26020  0.86600  Biso   1.000  N
  N75      1.0000 0.34260  0.32360  0.92220  Biso   1.000  N
  N76      1.0000 0.35080  0.28790  0.87780  Biso   1.000  N
  C37      1.0000 0.25790  0.28360  0.90100  Biso   1.000  C
  C38      1.0000 0.19350  0.27100  0.89590  Biso   1.000  C
  H55      1.0000 0.18720  0.24040  0.86660  Biso   1.000  H
  H56      1.0000 0.17850  0.25780  0.93390  Biso   1.000  H
  H57      1.0000 0.17280  0.30670  0.88400  Biso   1.000  H
  N77      1.0000 0.78340  0.82330  0.43710  Biso   1.000  N
  N78      1.0000 0.80130  0.76020  0.36600  Biso   1.000  N
  N79      1.0000 0.84260  0.82360  0.42220  Biso   1.000  N
  N80      1.0000 0.85080  0.78790  0.37780  Biso   1.000  N
  C39      1.0000 0.75790  0.78360  0.40100  Biso   1.000  C
  C40      1.0000 0.69350  0.77100  0.39590  Biso   1.000  C
  H58      1.0000 0.68720  0.74040  0.36660  Biso   1.000  H
  H59      1.0000 0.67850  0.75780  0.43390  Biso   1.000  H
  H60      1.0000 0.67280  0.80670  0.38400  Biso   1.000  H
  N81      1.0000 0.21660  0.67670  0.43710  Biso   1.000  N
  N82      1.0000 0.19870  0.73980  0.36600  Biso   1.000  N
  N83      1.0000 0.15740  0.67640  0.42220  Biso   1.000  N
  N84      1.0000 0.14920  0.71210  0.37780  Biso   1.000  N
  C41      1.0000 0.24210  0.71640  0.40100  Biso   1.000  C
  C42      1.0000 0.30650  0.72900  0.39590  Biso   1.000  C
  H61      1.0000 0.31280  0.75960  0.36660  Biso   1.000  H
  H62      1.0000 0.32150  0.74220  0.43390  Biso   1.000  H
  H63      1.0000 0.32720  0.69330  0.38400  Biso   1.000  H
  N85      1.0000 0.71660  0.17670  0.93710  Biso   1.000  N
  N86      1.0000 0.69870  0.23980  0.86600  Biso   1.000  N
  N87      1.0000 0.65740  0.17640  0.92220  Biso   1.000  N
  N88      1.0000 0.64920  0.21210  0.87780  Biso   1.000  N
  C43      1.0000 0.74210  0.21640  0.90100  Biso   1.000  C
  C44      1.0000 0.80650  0.22900  0.89590  Biso   1.000  C
  H64      1.0000 0.81280  0.25960  0.86660  Biso   1.000  H
  H65      1.0000 0.82150  0.24220  0.93390  Biso   1.000  H
  H66      1.0000 0.82720  0.19330  0.88400  Biso   1.000  H
  N89      1.0000 0.78340  0.17670  0.06290  Biso   1.000  N
  N90      1.0000 0.80130  0.23980  0.13400  Biso   1.000  N
  N91      1.0000 0.84260  0.17640  0.07780  Biso   1.000  N
  N92      1.0000 0.85080  0.21210  0.12220  Biso   1.000  N
  C45      1.0000 0.75790  0.21640  0.09900  Biso   1.000  C
  C46      1.0000 0.69350  0.22900  0.10410  Biso   1.000  C
  H67      1.0000 0.68720  0.25960  0.13340  Biso   1.000  H
  H68      1.0000 0.67850  0.24220  0.06610  Biso   1.000  H
  H69      1.0000 0.67280  0.19330  0.11600  Biso   1.000  H
  N93      1.0000 0.28340  0.67670  0.56290  Biso   1.000  N
  N94      1.0000 0.30130  0.73980  0.63400  Biso   1.000  N
  N95      1.0000 0.34260  0.67640  0.57780  Biso   1.000  N
  N96      1.0000 0.35080  0.71210  0.62220  Biso   1.000  N
  C47      1.0000 0.25790  0.71640  0.59900  Biso   1.000  C
  C48      1.0000 0.19350  0.72900  0.60410  Biso   1.000  C
  H70      1.0000 0.18720  0.75960  0.63340  Biso   1.000  H
  H71      1.0000 0.17850  0.74220  0.56610  Biso   1.000  H
  H72      1.0000 0.17280  0.69330  0.61600  Biso   1.000  H
  N97      1.0000 0.96660  0.81290  0.07330  Biso   1.000  N
  N98      1.0000 0.94870  0.88400  0.01020  Biso   1.000  N
  N99      1.0000 0.90740  0.82780  0.07360  Biso   1.000  N
  N100     1.0000 0.89920  0.87220  0.03790  Biso   1.000  N
  C49      1.0000 0.99210  0.84900  0.03360  Biso   1.000  C
  C50      1.0000 0.05650  0.85410  0.02100  Biso   1.000  C
  H73      1.0000 0.06280  0.88340  0.99040  Biso   1.000  H
  H74      1.0000 0.07150  0.81610  0.00780  Biso   1.000  H
  H75      1.0000 0.07720  0.86600  0.05670  Biso   1.000  H
  N101     1.0000 0.46660  0.31290  0.57330  Biso   1.000  N
  N102     1.0000 0.44870  0.38400  0.51020  Biso   1.000  N
  N103     1.0000 0.40740  0.32780  0.57360  Biso   1.000  N
  N104     1.0000 0.39920  0.37220  0.53790  Biso   1.000  N
  C51      1.0000 0.49210  0.34900  0.53360  Biso   1.000  C
  C52      1.0000 0.55650  0.35410  0.52100  Biso   1.000  C
  H76      1.0000 0.56280  0.38340  0.49040  Biso   1.000  H
  H77      1.0000 0.57150  0.31610  0.50780  Biso   1.000  H
  H78      1.0000 0.57720  0.36600  0.55670  Biso   1.000  H
  N105     1.0000 0.53340  0.18710  0.57330  Biso   1.000  N
  N106     1.0000 0.55130  0.11600  0.51020  Biso   1.000  N
  N107     1.0000 0.59260  0.17220  0.57360  Biso   1.000  N
  N108     1.0000 0.60080  0.12780  0.53790  Biso   1.000  N
  C53      1.0000 0.50790  0.15100  0.53360  Biso   1.000  C
  C54      1.0000 0.44350  0.14590  0.52100  Biso   1.000  C
  H79      1.0000 0.43720  0.11660  0.49040  Biso   1.000  H
  H80      1.0000 0.42850  0.18390  0.50780  Biso   1.000  H
  H81      1.0000 0.42280  0.13400  0.55670  Biso   1.000  H
  N109     1.0000 0.03340  0.68710  0.07330  Biso   1.000  N
  N110     1.0000 0.05130  0.61600  0.01020  Biso   1.000  N
  N111     1.0000 0.09260  0.67220  0.07360  Biso   1.000  N
  N112     1.0000 0.10080  0.62780  0.03790  Biso   1.000  N
  C55      1.0000 0.00790  0.65100  0.03360  Biso   1.000  C
  C56      1.0000 0.94350  0.64590  0.02100  Biso   1.000  C
  H82      1.0000 0.93720  0.61660  0.99040  Biso   1.000  H
  H83      1.0000 0.92850  0.68390  0.00780  Biso   1.000  H
  H84      1.0000 0.92280  0.63400  0.05670  Biso   1.000  H
  N113     1.0000 0.46660  0.68710  0.92670  Biso   1.000  N
  N114     1.0000 0.44870  0.61600  0.98980  Biso   1.000  N
  N115     1.0000 0.40740  0.67220  0.92640  Biso   1.000  N
  N116     1.0000 0.39920  0.62780  0.96210  Biso   1.000  N
  C57      1.0000 0.49210  0.65100  0.96640  Biso   1.000  C
  C58      1.0000 0.55650  0.64590  0.97900  Biso   1.000  C
  H85      1.0000 0.56280  0.61660  0.00960  Biso   1.000  H
  H86      1.0000 0.57150  0.68390  0.99220  Biso   1.000  H
  H87      1.0000 0.57720  0.63400  0.94330  Biso   1.000  H
  N117     1.0000 0.96660  0.18710  0.42670  Biso   1.000  N
  N118     1.0000 0.94870  0.11600  0.48980  Biso   1.000  N
  N119     1.0000 0.90740  0.17220  0.42640  Biso   1.000  N
  N120     1.0000 0.89920  0.12780  0.46210  Biso   1.000  N
  C59      1.0000 0.99210  0.15100  0.46640  Biso   1.000  C
  C60      1.0000 0.05650  0.14590  0.47900  Biso   1.000  C
  H88      1.0000 0.06280  0.11660  0.50960  Biso   1.000  H
  H89      1.0000 0.07150  0.18390  0.49220  Biso   1.000  H
  H90      1.0000 0.07720  0.13400  0.44330  Biso   1.000  H
  N121     1.0000 0.03340  0.31290  0.42670  Biso   1.000  N
  N122     1.0000 0.05130  0.38400  0.48980  Biso   1.000  N
  N123     1.0000 0.09260  0.32780  0.42640  Biso   1.000  N
  N124     1.0000 0.10080  0.37220  0.46210  Biso   1.000  N
  C61      1.0000 0.00790  0.34900  0.46640  Biso   1.000  C
  C62      1.0000 0.94350  0.35410  0.47900  Biso   1.000  C
  H91      1.0000 0.93720  0.38340  0.50960  Biso   1.000  H
  H92      1.0000 0.92850  0.31610  0.49220  Biso   1.000  H
  H93      1.0000 0.92280  0.36600  0.44330  Biso   1.000  H
  N125     1.0000 0.53340  0.81290  0.92670  Biso   1.000  N
  N126     1.0000 0.55130  0.88400  0.98980  Biso   1.000  N
  N127     1.0000 0.59260  0.82780  0.92640  Biso   1.000  N
  N128     1.0000 0.60080  0.87220  0.96210  Biso   1.000  N
  C63      1.0000 0.50790  0.84900  0.96640  Biso   1.000  C
  C64      1.0000 0.44350  0.85410  0.97900  Biso   1.000  C
  H94      1.0000 0.43720  0.88340  0.00960  Biso   1.000  H
  H95      1.0000 0.42850  0.81610  0.99220  Biso   1.000  H
  H96      1.0000 0.42280  0.86600  0.94330  Biso   1.000  H
  N129     1.0000 0.81290  0.07330  0.96660  Biso   1.000  N
  N130     1.0000 0.88400  0.01020  0.94870  Biso   1.000  N
  N131     1.0000 0.82780  0.07360  0.90740  Biso   1.000  N
  N132     1.0000 0.87220  0.03790  0.89920  Biso   1.000  N
  C65      1.0000 0.84900  0.03360  0.99210  Biso   1.000  C
  C66      1.0000 0.85410  0.02100  0.05650  Biso   1.000  C
  H97      1.0000 0.88340  0.99040  0.06280  Biso   1.000  H
  H98      1.0000 0.81610  0.00780  0.07150  Biso   1.000  H
  H99      1.0000 0.86600  0.05670  0.07720  Biso   1.000  H
  N133     1.0000 0.31290  0.57330  0.46660  Biso   1.000  N
  N134     1.0000 0.38400  0.51020  0.44870  Biso   1.000  N
  N135     1.0000 0.32780  0.57360  0.40740  Biso   1.000  N
  N136     1.0000 0.37220  0.53790  0.39920  Biso   1.000  N
  C67      1.0000 0.34900  0.53360  0.49210  Biso   1.000  C
  C68      1.0000 0.35410  0.52100  0.55650  Biso   1.000  C
  H100     1.0000 0.38340  0.49040  0.56280  Biso   1.000  H
  H101     1.0000 0.31610  0.50780  0.57150  Biso   1.000  H
  H102     1.0000 0.36600  0.55670  0.57720  Biso   1.000  H
  N137     1.0000 0.18710  0.57330  0.53340  Biso   1.000  N
  N138     1.0000 0.11600  0.51020  0.55130  Biso   1.000  N
  N139     1.0000 0.17220  0.57360  0.59260  Biso   1.000  N
  N140     1.0000 0.12780  0.53790  0.60080  Biso   1.000  N
  C69      1.0000 0.15100  0.53360  0.50790  Biso   1.000  C
  C70      1.0000 0.14590  0.52100  0.44350  Biso   1.000  C
  H103     1.0000 0.11660  0.49040  0.43720  Biso   1.000  H
  H104     1.0000 0.18390  0.50780  0.42850  Biso   1.000  H
  H105     1.0000 0.13400  0.55670  0.42280  Biso   1.000  H
  N141     1.0000 0.68710  0.07330  0.03340  Biso   1.000  N
  N142     1.0000 0.61600  0.01020  0.05130  Biso   1.000  N
  N143     1.0000 0.67220  0.07360  0.09260  Biso   1.000  N
  N144     1.0000 0.62780  0.03790  0.10080  Biso   1.000  N
  C71      1.0000 0.65100  0.03360  0.00790  Biso   1.000  C
  C72      1.0000 0.64590  0.02100  0.94350  Biso   1.000  C
  H106     1.0000 0.61660  0.99040  0.93720  Biso   1.000  H
  H107     1.0000 0.68390  0.00780  0.92850  Biso   1.000  H
  H108     1.0000 0.63400  0.05670  0.92280  Biso   1.000  H
  N145     1.0000 0.68710  0.92670  0.46660  Biso   1.000  N
  N146     1.0000 0.61600  0.98980  0.44870  Biso   1.000  N
  N147     1.0000 0.67220  0.92640  0.40740  Biso   1.000  N
  N148     1.0000 0.62780  0.96210  0.39920  Biso   1.000  N
  C73      1.0000 0.65100  0.96640  0.49210  Biso   1.000  C
  C74      1.0000 0.64590  0.97900  0.55650  Biso   1.000  C
  H109     1.0000 0.61660  0.00960  0.56280  Biso   1.000  H
  H110     1.0000 0.68390  0.99220  0.57150  Biso   1.000  H
  H111     1.0000 0.63400  0.94330  0.57720  Biso   1.000  H
  N149     1.0000 0.18710  0.42670  0.96660  Biso   1.000  N
  N150     1.0000 0.11600  0.48980  0.94870  Biso   1.000  N
  N151     1.0000 0.17220  0.42640  0.90740  Biso   1.000  N
  N152     1.0000 0.12780  0.46210  0.89920  Biso   1.000  N
  C75      1.0000 0.15100  0.46640  0.99210  Biso   1.000  C
  C76      1.0000 0.14590  0.47900  0.05650  Biso   1.000  C
  H112     1.0000 0.11660  0.50960  0.06280  Biso   1.000  H
  H113     1.0000 0.18390  0.49220  0.07150  Biso   1.000  H
  H114     1.0000 0.13400  0.44330  0.07720  Biso   1.000  H
  N153     1.0000 0.31290  0.42670  0.03340  Biso   1.000  N
  N154     1.0000 0.38400  0.48980  0.05130  Biso   1.000  N
  N155     1.0000 0.32780  0.42640  0.09260  Biso   1.000  N
  N156     1.0000 0.37220  0.46210  0.10080  Biso   1.000  N
  C77      1.0000 0.34900  0.46640  0.00790  Biso   1.000  C
  C78      1.0000 0.35410  0.47900  0.94350  Biso   1.000  C
  H115     1.0000 0.38340  0.50960  0.93720  Biso   1.000  H
  H116     1.0000 0.31610  0.49220  0.92850  Biso   1.000  H
  H117     1.0000 0.36600  0.44330  0.92280  Biso   1.000  H
  N157     1.0000 0.81290  0.92670  0.53340  Biso   1.000  N
  N158     1.0000 0.88400  0.98980  0.55130  Biso   1.000  N
  N159     1.0000 0.82780  0.92640  0.59260  Biso   1.000  N
  N160     1.0000 0.87220  0.96210  0.60080  Biso   1.000  N
  C79      1.0000 0.84900  0.96640  0.50790  Biso   1.000  C
  C80      1.0000 0.85410  0.97900  0.44350  Biso   1.000  C
  H118     1.0000 0.88340  0.00960  0.43720  Biso   1.000  H
  H119     1.0000 0.81610  0.99220  0.42850  Biso   1.000  H
  H120     1.0000 0.86600  0.94330  0.42280  Biso   1.000  H
  N161     1.0000 0.07330  0.96660  0.81290  Biso   1.000  N
  N162     1.0000 0.01020  0.94870  0.88400  Biso   1.000  N
  N163     1.0000 0.07360  0.90740  0.82780  Biso   1.000  N
  N164     1.0000 0.03790  0.89920  0.87220  Biso   1.000  N
  C81      1.0000 0.03360  0.99210  0.84900  Biso   1.000  C
  C82      1.0000 0.02100  0.05650  0.85410  Biso   1.000  C
  H121     1.0000 0.99040  0.06280  0.88340  Biso   1.000  H
  H122     1.0000 0.00780  0.07150  0.81610  Biso   1.000  H
  H123     1.0000 0.05670  0.07720  0.86600  Biso   1.000  H
  N165     1.0000 0.57330  0.46660  0.31290  Biso   1.000  N
  N166     1.0000 0.51020  0.44870  0.38400  Biso   1.000  N
  N167     1.0000 0.57360  0.40740  0.32780  Biso   1.000  N
  N168     1.0000 0.53790  0.39920  0.37220  Biso   1.000  N
  C83      1.0000 0.53360  0.49210  0.34900  Biso   1.000  C
  C84      1.0000 0.52100  0.55650  0.35410  Biso   1.000  C
  H124     1.0000 0.49040  0.56280  0.38340  Biso   1.000  H
  H125     1.0000 0.50780  0.57150  0.31610  Biso   1.000  H
  H126     1.0000 0.55670  0.57720  0.36600  Biso   1.000  H
  N169     1.0000 0.57330  0.53340  0.18710  Biso   1.000  N
  N170     1.0000 0.51020  0.55130  0.11600  Biso   1.000  N
  N171     1.0000 0.57360  0.59260  0.17220  Biso   1.000  N
  N172     1.0000 0.53790  0.60080  0.12780  Biso   1.000  N
  C85      1.0000 0.53360  0.50790  0.15100  Biso   1.000  C
  C86      1.0000 0.52100  0.44350  0.14590  Biso   1.000  C
  H127     1.0000 0.49040  0.43720  0.11660  Biso   1.000  H
  H128     1.0000 0.50780  0.42850  0.18390  Biso   1.000  H
  H129     1.0000 0.55670  0.42280  0.13400  Biso   1.000  H
  N173     1.0000 0.07330  0.03340  0.68710  Biso   1.000  N
  N174     1.0000 0.01020  0.05130  0.61600  Biso   1.000  N
  N175     1.0000 0.07360  0.09260  0.67220  Biso   1.000  N
  N176     1.0000 0.03790  0.10080  0.62780  Biso   1.000  N
  C87      1.0000 0.03360  0.00790  0.65100  Biso   1.000  C
  C88      1.0000 0.02100  0.94350  0.64590  Biso   1.000  C
  H130     1.0000 0.99040  0.93720  0.61660  Biso   1.000  H
  H131     1.0000 0.00780  0.92850  0.68390  Biso   1.000  H
  H132     1.0000 0.05670  0.92280  0.63400  Biso   1.000  H
  N177     1.0000 0.92670  0.46660  0.68710  Biso   1.000  N
  N178     1.0000 0.98980  0.44870  0.61600  Biso   1.000  N
  N179     1.0000 0.92640  0.40740  0.67220  Biso   1.000  N
  N180     1.0000 0.96210  0.39920  0.62780  Biso   1.000  N
  C89      1.0000 0.96640  0.49210  0.65100  Biso   1.000  C
  C90      1.0000 0.97900  0.55650  0.64590  Biso   1.000  C
  H133     1.0000 0.00960  0.56280  0.61660  Biso   1.000  H
  H134     1.0000 0.99220  0.57150  0.68390  Biso   1.000  H
  H135     1.0000 0.94330  0.57720  0.63400  Biso   1.000  H
  N181     1.0000 0.42670  0.96660  0.18710  Biso   1.000  N
  N182     1.0000 0.48980  0.94870  0.11600  Biso   1.000  N
  N183     1.0000 0.42640  0.90740  0.17220  Biso   1.000  N
  N184     1.0000 0.46210  0.89920  0.12780  Biso   1.000  N
  C91      1.0000 0.46640  0.99210  0.15100  Biso   1.000  C
  C92      1.0000 0.47900  0.05650  0.14590  Biso   1.000  C
  H136     1.0000 0.50960  0.06280  0.11660  Biso   1.000  H
  H137     1.0000 0.49220  0.07150  0.18390  Biso   1.000  H
  H138     1.0000 0.44330  0.07720  0.13400  Biso   1.000  H
  N185     1.0000 0.42670  0.03340  0.31290  Biso   1.000  N
  N186     1.0000 0.48980  0.05130  0.38400  Biso   1.000  N
  N187     1.0000 0.42640  0.09260  0.32780  Biso   1.000  N
  N188     1.0000 0.46210  0.10080  0.37220  Biso   1.000  N
  C93      1.0000 0.46640  0.00790  0.34900  Biso   1.000  C
  C94      1.0000 0.47900  0.94350  0.35410  Biso   1.000  C
  H139     1.0000 0.50960  0.93720  0.38340  Biso   1.000  H
  H140     1.0000 0.49220  0.92850  0.31610  Biso   1.000  H
  H141     1.0000 0.44330  0.92280  0.36600  Biso   1.000  H
  N189     1.0000 0.92670  0.53340  0.81290  Biso   1.000  N
  N190     1.0000 0.98980  0.55130  0.88400  Biso   1.000  N
  N191     1.0000 0.92640  0.59260  0.82780  Biso   1.000  N
  N192     1.0000 0.96210  0.60080  0.87220  Biso   1.000  N
  C95      1.0000 0.96640  0.50790  0.84900  Biso   1.000  C
  C96      1.0000 0.97900  0.44350  0.85410  Biso   1.000  C
  H142     1.0000 0.00960  0.43720  0.88340  Biso   1.000  H
  H143     1.0000 0.99220  0.42850  0.81610  Biso   1.000  H
  H144     1.0000 0.94330  0.42280  0.86600  Biso   1.000  H
  Zn1      1.0000 0.50000  0.75000  0.87500  Biso   1.000  Zn
  Zn2      1.0000 0.00000  0.25000  0.37500  Biso   1.000  Zn
  Zn3      1.0000 0.50000  0.25000  0.62500  Biso   1.000  Zn
  Zn4      1.0000 0.00000  0.75000  0.12500  Biso   1.000  Zn
  Zn5      1.0000 0.87500  0.50000  0.75000  Biso   1.000  Zn
  Zn6      1.0000 0.37500  0.00000  0.25000  Biso   1.000  Zn
  Zn7      1.0000 0.62500  0.50000  0.25000  Biso   1.000  Zn
  Zn8      1.0000 0.12500  0.00000  0.75000  Biso   1.000  Zn
  Zn9      1.0000 0.75000  0.87500  0.50000  Biso   1.000  Zn
  Zn10     1.0000 0.25000  0.37500  0.00000  Biso   1.000  Zn
  Zn11     1.0000 0.25000  0.62500  0.50000  Biso   1.000  Zn
  Zn12     1.0000 0.75000  0.12500  0.00000  Biso   1.000  Zn
  Zn13     1.0000 0.69677  0.69677  0.69677  Biso   1.000  Zn
  Zn14     1.0000 0.19677  0.19677  0.19677  Biso   1.000  Zn
  Zn15     1.0000 0.80323  0.30323  0.19677  Biso   1.000  Zn
  Zn16     1.0000 0.30323  0.80323  0.69677  Biso   1.000  Zn
  Zn17     1.0000 0.30323  0.19677  0.80323  Biso   1.000  Zn
  Zn18     1.0000 0.80323  0.69677  0.30323  Biso   1.000  Zn
  Zn19     1.0000 0.19677  0.80323  0.30323  Biso   1.000  Zn
  Zn20     1.0000 0.69677  0.30323  0.80323  Biso   1.000  Zn
  Zn21     1.0000 0.94677  0.94677  0.94677  Biso   1.000  Zn
  Zn22     1.0000 0.44677  0.44677  0.44677  Biso   1.000  Zn
  Zn23     1.0000 0.55323  0.05323  0.44677  Biso   1.000  Zn
  Zn24     1.0000 0.05323  0.55323  0.94677  Biso   1.000  Zn
  Zn25     1.0000 0.44677  0.55323  0.05323  Biso   1.000  Zn
  Zn26     1.0000 0.94677  0.05323  0.55323  Biso   1.000  Zn
  Zn27     1.0000 0.05323  0.44677  0.55323  Biso   1.000  Zn
  Zn28     1.0000 0.55323  0.94677  0.05323  Biso   1.000  Zn
