data_image0
_cell_length_a       16.679
_cell_length_b       16.679
_cell_length_c       19.05
_cell_angle_alpha    90
_cell_angle_beta     90
_cell_angle_gamma    120

_symmetry_space_group_name_H-M    "P 1"
_symmetry_int_tables_number       1

loop_
  _symmetry_equiv_pos_as_xyz
  'x, y, z'

loop_
  _atom_site_label
  _atom_site_occupancy
  _atom_site_fract_x
  _atom_site_fract_y
  _atom_site_fract_z
  _atom_site_thermal_displace_type
  _atom_site_B_iso_or_equiv
  _atom_site_type_symbol
  O1       1.0000 0.48370  0.65170  0.72140  Biso   1.000  O
  N1       1.0000 0.55100  0.36530  0.37570  Biso   1.000  N
  C1       1.0000 0.50460  0.36690  0.43120  Biso   1.000  C
  H1       1.0000 0.44480  0.31860  0.44430  Biso   1.000  H
  C2       1.0000 0.66260  0.76150  0.80900  Biso   1.000  C
  H2       1.0000 0.62910  0.69580  0.81070  Biso   1.000  H
  C3       1.0000 0.75770  0.80680  0.81030  Biso   1.000  C
  H3       1.0000 0.78930  0.77260  0.80990  Biso   1.000  H
  C4       1.0000 0.43920  0.41980  0.55530  Biso   1.000  C
  H4       1.0000 0.39890  0.36110  0.53490  Biso   1.000  H
  C5       1.0000 0.41150  0.45180  0.61260  Biso   1.000  C
  H5       1.0000 0.35210  0.41260  0.63240  Biso   1.000  H
  O2       1.0000 0.34830  0.83200  0.72140  Biso   1.000  O
  N2       1.0000 0.63470  0.18570  0.37570  Biso   1.000  N
  C6       1.0000 0.63310  0.13770  0.43120  Biso   1.000  C
  H6       1.0000 0.68140  0.12620  0.44430  Biso   1.000  H
  C7       1.0000 0.23850  0.90110  0.80900  Biso   1.000  C
  H7       1.0000 0.30420  0.93330  0.81070  Biso   1.000  H
  C8       1.0000 0.19320  0.95090  0.81030  Biso   1.000  C
  H8       1.0000 0.22740  0.01670  0.80990  Biso   1.000  H
  C9       1.0000 0.58020  0.01940  0.55530  Biso   1.000  C
  H9       1.0000 0.63890  0.03780  0.53490  Biso   1.000  H
  C10      1.0000 0.54820  0.95970  0.61260  Biso   1.000  C
  H10      1.0000 0.58740  0.93950  0.63240  Biso   1.000  H
  O3       1.0000 0.16800  0.51630  0.72140  Biso   1.000  O
  N3       1.0000 0.81430  0.44900  0.37570  Biso   1.000  N
  C11      1.0000 0.86230  0.49540  0.43120  Biso   1.000  C
  H11      1.0000 0.87380  0.55520  0.44430  Biso   1.000  H
  C12      1.0000 0.09890  0.33740  0.80900  Biso   1.000  C
  H12      1.0000 0.06670  0.37090  0.81070  Biso   1.000  H
  C13      1.0000 0.04910  0.24230  0.81030  Biso   1.000  C
  H13      1.0000 0.98330  0.21070  0.80990  Biso   1.000  H
  C14      1.0000 0.98060  0.56080  0.55530  Biso   1.000  C
  H14      1.0000 0.96220  0.60110  0.53490  Biso   1.000  H
  C15      1.0000 0.04030  0.58850  0.61260  Biso   1.000  C
  H15      1.0000 0.06050  0.64790  0.63240  Biso   1.000  H
  O4       1.0000 0.51630  0.34830  0.22140  Biso   1.000  O
  N4       1.0000 0.44900  0.63470  0.87570  Biso   1.000  N
  C16      1.0000 0.49540  0.63310  0.93120  Biso   1.000  C
  H16      1.0000 0.55520  0.68140  0.94430  Biso   1.000  H
  C17      1.0000 0.33740  0.23850  0.30900  Biso   1.000  C
  H17      1.0000 0.37090  0.30420  0.31070  Biso   1.000  H
  C18      1.0000 0.24230  0.19320  0.31030  Biso   1.000  C
  H18      1.0000 0.21070  0.22740  0.30990  Biso   1.000  H
  C19      1.0000 0.56080  0.58020  0.05530  Biso   1.000  C
  H19      1.0000 0.60110  0.63890  0.03490  Biso   1.000  H
  C20      1.0000 0.58850  0.54820  0.11260  Biso   1.000  C
  H20      1.0000 0.64790  0.58740  0.13240  Biso   1.000  H
  O5       1.0000 0.65170  0.16800  0.22140  Biso   1.000  O
  N5       1.0000 0.36530  0.81430  0.87570  Biso   1.000  N
  C21      1.0000 0.36690  0.86230  0.93120  Biso   1.000  C
  H21      1.0000 0.31860  0.87380  0.94430  Biso   1.000  H
  C22      1.0000 0.76150  0.09890  0.30900  Biso   1.000  C
  H22      1.0000 0.69580  0.06670  0.31070  Biso   1.000  H
  C23      1.0000 0.80680  0.04910  0.31030  Biso   1.000  C
  H23      1.0000 0.77260  0.98330  0.30990  Biso   1.000  H
  C24      1.0000 0.41980  0.98060  0.05530  Biso   1.000  C
  H24      1.0000 0.36110  0.96220  0.03490  Biso   1.000  H
  C25      1.0000 0.45180  0.04030  0.11260  Biso   1.000  C
  H25      1.0000 0.41260  0.06050  0.13240  Biso   1.000  H
  O6       1.0000 0.83200  0.48370  0.22140  Biso   1.000  O
  N6       1.0000 0.18570  0.55100  0.87570  Biso   1.000  N
  C26      1.0000 0.13770  0.50460  0.93120  Biso   1.000  C
  H26      1.0000 0.12620  0.44480  0.94430  Biso   1.000  H
  C27      1.0000 0.90110  0.66260  0.30900  Biso   1.000  C
  H27      1.0000 0.93330  0.62910  0.31070  Biso   1.000  H
  C28      1.0000 0.95090  0.75770  0.31030  Biso   1.000  C
  H28      1.0000 0.01670  0.78930  0.30990  Biso   1.000  H
  C29      1.0000 0.01940  0.43920  0.05530  Biso   1.000  C
  H29      1.0000 0.03780  0.39890  0.03490  Biso   1.000  H
  C30      1.0000 0.95970  0.41150  0.11260  Biso   1.000  C
  H30      1.0000 0.93950  0.35210  0.13240  Biso   1.000  H
  O7       1.0000 0.34830  0.51630  0.72140  Biso   1.000  O
  N7       1.0000 0.63470  0.44900  0.37570  Biso   1.000  N
  C31      1.0000 0.63310  0.49540  0.43120  Biso   1.000  C
  H31      1.0000 0.68140  0.55520  0.44430  Biso   1.000  H
  C32      1.0000 0.23850  0.33740  0.80900  Biso   1.000  C
  H32      1.0000 0.30420  0.37090  0.81070  Biso   1.000  H
  C33      1.0000 0.19320  0.24230  0.81030  Biso   1.000  C
  H33      1.0000 0.22740  0.21070  0.80990  Biso   1.000  H
  C34      1.0000 0.58020  0.56080  0.55530  Biso   1.000  C
  H34      1.0000 0.63890  0.60110  0.53490  Biso   1.000  H
  C35      1.0000 0.54820  0.58850  0.61260  Biso   1.000  C
  H35      1.0000 0.58740  0.64790  0.63240  Biso   1.000  H
  O8       1.0000 0.16800  0.65170  0.72140  Biso   1.000  O
  N8       1.0000 0.81430  0.36530  0.37570  Biso   1.000  N
  C36      1.0000 0.86230  0.36690  0.43120  Biso   1.000  C
  H36      1.0000 0.87380  0.31860  0.44430  Biso   1.000  H
  C37      1.0000 0.09890  0.76150  0.80900  Biso   1.000  C
  H37      1.0000 0.06670  0.69580  0.81070  Biso   1.000  H
  C38      1.0000 0.04910  0.80680  0.81030  Biso   1.000  C
  H38      1.0000 0.98330  0.77260  0.80990  Biso   1.000  H
  C39      1.0000 0.98060  0.41980  0.55530  Biso   1.000  C
  H39      1.0000 0.96220  0.36110  0.53490  Biso   1.000  H
  C40      1.0000 0.04030  0.45180  0.61260  Biso   1.000  C
  H40      1.0000 0.06050  0.41260  0.63240  Biso   1.000  H
  O9       1.0000 0.48370  0.83200  0.72140  Biso   1.000  O
  N9       1.0000 0.55100  0.18570  0.37570  Biso   1.000  N
  C41      1.0000 0.50460  0.13770  0.43120  Biso   1.000  C
  H41      1.0000 0.44480  0.12620  0.44430  Biso   1.000  H
  C42      1.0000 0.66260  0.90110  0.80900  Biso   1.000  C
  H42      1.0000 0.62910  0.93330  0.81070  Biso   1.000  H
  C43      1.0000 0.75770  0.95090  0.81030  Biso   1.000  C
  H43      1.0000 0.78930  0.01670  0.80990  Biso   1.000  H
  C44      1.0000 0.43920  0.01940  0.55530  Biso   1.000  C
  H44      1.0000 0.39890  0.03780  0.53490  Biso   1.000  H
  C45      1.0000 0.41150  0.95970  0.61260  Biso   1.000  C
  H45      1.0000 0.35210  0.93950  0.63240  Biso   1.000  H
  O10      1.0000 0.65170  0.48370  0.22140  Biso   1.000  O
  N10      1.0000 0.36530  0.55100  0.87570  Biso   1.000  N
  C46      1.0000 0.36690  0.50460  0.93120  Biso   1.000  C
  H46      1.0000 0.31860  0.44480  0.94430  Biso   1.000  H
  C47      1.0000 0.76150  0.66260  0.30900  Biso   1.000  C
  H47      1.0000 0.69580  0.62910  0.31070  Biso   1.000  H
  C48      1.0000 0.80680  0.75770  0.31030  Biso   1.000  C
  H48      1.0000 0.77260  0.78930  0.30990  Biso   1.000  H
  C49      1.0000 0.41980  0.43920  0.05530  Biso   1.000  C
  H49      1.0000 0.36110  0.39890  0.03490  Biso   1.000  H
  C50      1.0000 0.45180  0.41150  0.11260  Biso   1.000  C
  H50      1.0000 0.41260  0.35210  0.13240  Biso   1.000  H
  O11      1.0000 0.83200  0.34830  0.22140  Biso   1.000  O
  N11      1.0000 0.18570  0.63470  0.87570  Biso   1.000  N
  C51      1.0000 0.13770  0.63310  0.93120  Biso   1.000  C
  H51      1.0000 0.12620  0.68140  0.94430  Biso   1.000  H
  C52      1.0000 0.90110  0.23850  0.30900  Biso   1.000  C
  H52      1.0000 0.93330  0.30420  0.31070  Biso   1.000  H
  C53      1.0000 0.95090  0.19320  0.31030  Biso   1.000  C
  H53      1.0000 0.01670  0.22740  0.30990  Biso   1.000  H
  C54      1.0000 0.01940  0.58020  0.05530  Biso   1.000  C
  H54      1.0000 0.03780  0.63890  0.03490  Biso   1.000  H
  C55      1.0000 0.95970  0.54820  0.11260  Biso   1.000  C
  H55      1.0000 0.93950  0.58740  0.13240  Biso   1.000  H
  O12      1.0000 0.51630  0.16800  0.22140  Biso   1.000  O
  N12      1.0000 0.44900  0.81430  0.87570  Biso   1.000  N
  C56      1.0000 0.49540  0.86230  0.93120  Biso   1.000  C
  H56      1.0000 0.55520  0.87380  0.94430  Biso   1.000  H
  C57      1.0000 0.33740  0.09890  0.30900  Biso   1.000  C
  H57      1.0000 0.37090  0.06670  0.31070  Biso   1.000  H
  C58      1.0000 0.24230  0.04910  0.31030  Biso   1.000  C
  H58      1.0000 0.21070  0.98330  0.30990  Biso   1.000  H
  C59      1.0000 0.56080  0.98060  0.05530  Biso   1.000  C
  H59      1.0000 0.60110  0.96220  0.03490  Biso   1.000  H
  C60      1.0000 0.58850  0.04030  0.11260  Biso   1.000  C
  H60      1.0000 0.64790  0.06050  0.13240  Biso   1.000  H
  Co1      1.0000 0.47093  0.73547  0.79685  Biso   1.000  Co
  N13      1.0000 0.61550  0.80775  0.80510  Biso   1.000  N
  C61      1.0000 0.80790  0.90395  0.81230  Biso   1.000  C
  C62      1.0000 0.91110  0.95555  0.81310  Biso   1.000  C
  Co2      1.0000 0.26453  0.73547  0.79685  Biso   1.000  Co
  N14      1.0000 0.19225  0.80775  0.80510  Biso   1.000  N
  C63      1.0000 0.09605  0.90395  0.81230  Biso   1.000  C
  C64      1.0000 0.04445  0.95555  0.81310  Biso   1.000  C
  Co3      1.0000 0.26453  0.52907  0.79685  Biso   1.000  Co
  N15      1.0000 0.19225  0.38450  0.80510  Biso   1.000  N
  C65      1.0000 0.09605  0.19210  0.81230  Biso   1.000  C
  C66      1.0000 0.04445  0.08890  0.81310  Biso   1.000  C
  Co4      1.0000 0.52907  0.26453  0.29685  Biso   1.000  Co
  N16      1.0000 0.38450  0.19225  0.30510  Biso   1.000  N
  C67      1.0000 0.19210  0.09605  0.31230  Biso   1.000  C
  C68      1.0000 0.08890  0.04445  0.31310  Biso   1.000  C
  Co5      1.0000 0.73547  0.26453  0.29685  Biso   1.000  Co
  N17      1.0000 0.80775  0.19225  0.30510  Biso   1.000  N
  C69      1.0000 0.90395  0.09605  0.31230  Biso   1.000  C
  C70      1.0000 0.95555  0.04445  0.31310  Biso   1.000  C
  Co6      1.0000 0.73547  0.47093  0.29685  Biso   1.000  Co
  N18      1.0000 0.80775  0.61550  0.30510  Biso   1.000  N
  C71      1.0000 0.90395  0.80790  0.31230  Biso   1.000  C
  C72      1.0000 0.95555  0.91110  0.31310  Biso   1.000  C
  O13      1.0000 0.33333  0.66667  0.77660  Biso   1.000  O
  O14      1.0000 0.66667  0.33333  0.27660  Biso   1.000  O
  C73      1.0000 0.42930  0.57070  0.69950  Biso   1.000  C
  N19      1.0000 0.55370  0.44630  0.46640  Biso   1.000  N
  C74      1.0000 0.46480  0.53520  0.64110  Biso   1.000  C
  C75      1.0000 0.52520  0.47480  0.52960  Biso   1.000  C
  C76      1.0000 0.42930  0.85860  0.69950  Biso   1.000  C
  N20      1.0000 0.55370  0.10740  0.46640  Biso   1.000  N
  C77      1.0000 0.46480  0.92960  0.64110  Biso   1.000  C
  C78      1.0000 0.52520  0.05040  0.52960  Biso   1.000  C
  C79      1.0000 0.14140  0.57070  0.69950  Biso   1.000  C
  N21      1.0000 0.89260  0.44630  0.46640  Biso   1.000  N
  C80      1.0000 0.07040  0.53520  0.64110  Biso   1.000  C
  C81      1.0000 0.94960  0.47480  0.52960  Biso   1.000  C
  C82      1.0000 0.57070  0.42930  0.19950  Biso   1.000  C
  N22      1.0000 0.44630  0.55370  0.96640  Biso   1.000  N
  C83      1.0000 0.53520  0.46480  0.14110  Biso   1.000  C
  C84      1.0000 0.47480  0.52520  0.02960  Biso   1.000  C
  C85      1.0000 0.57070  0.14140  0.19950  Biso   1.000  C
  N23      1.0000 0.44630  0.89260  0.96640  Biso   1.000  N
  C86      1.0000 0.53520  0.07040  0.14110  Biso   1.000  C
  C87      1.0000 0.47480  0.94960  0.02960  Biso   1.000  C
  C88      1.0000 0.85860  0.42930  0.19950  Biso   1.000  C
  N24      1.0000 0.10740  0.55370  0.96640  Biso   1.000  N
  C89      1.0000 0.92960  0.46480  0.14110  Biso   1.000  C
  C90      1.0000 0.05040  0.52520  0.02960  Biso   1.000  C
  N25      1.0000 0.95215  0.90430  0.81430  Biso   1.000  N
  N26      1.0000 0.09570  0.04785  0.81430  Biso   1.000  N
  N27      1.0000 0.95215  0.04785  0.81430  Biso   1.000  N
  N28      1.0000 0.04785  0.09570  0.31430  Biso   1.000  N
  N29      1.0000 0.90430  0.95215  0.31430  Biso   1.000  N
  N30      1.0000 0.04785  0.95215  0.31430  Biso   1.000  N
