data_image0
_cell_length_a       13.717
_cell_length_b       8.9401
_cell_length_c       16.635
_cell_angle_alpha    90
_cell_angle_beta     93.6
_cell_angle_gamma    90

_symmetry_space_group_name_H-M    "P 1"
_symmetry_int_tables_number       1

loop_
  _symmetry_equiv_pos_as_xyz
  'x, y, z'

loop_
  _atom_site_label
  _atom_site_occupancy
  _atom_site_fract_x
  _atom_site_fract_y
  _atom_site_fract_z
  _atom_site_thermal_displace_type
  _atom_site_B_iso_or_equiv
  _atom_site_type_symbol
  Ag1      1.0000 0.63912  0.32627  0.56640  Biso   1.000  Ag
  Ag2      1.0000 0.90361  0.61652  0.30017  Biso   1.000  Ag
  N1       1.0000 0.68520  0.37970  0.44340  Biso   1.000  N
  H1       1.0000 0.74530  0.34170  0.43860  Biso   1.000  H
  H2       1.0000 0.64440  0.33260  0.40720  Biso   1.000  H
  N2       1.0000 0.49410  0.84130  0.44280  Biso   1.000  N
  H3       1.0000 0.47910  0.92090  0.41140  Biso   1.000  H
  H4       1.0000 0.50200  0.87430  0.49400  Biso   1.000  H
  N3       1.0000 0.80170  0.80450  0.36060  Biso   1.000  N
  H5       1.0000 0.83270  0.89290  0.35760  Biso   1.000  H
  H6       1.0000 0.74610  0.81180  0.32920  Biso   1.000  H
  N4       1.0000 0.82000  0.94210  0.68590  Biso   1.000  N
  H7       1.0000 0.85270  0.90620  0.64480  Biso   1.000  H
  H8       1.0000 0.76220  0.89440  0.68490  Biso   1.000  H
  N5       1.0000 0.96800  0.41910  0.61540  Biso   1.000  N
  H9       1.0000 0.95740  0.51820  0.61090  Biso   1.000  H
  H10      1.0000 0.98250  0.38530  0.56660  Biso   1.000  H
  N6       1.0000 0.65970  0.38560  0.69720  Biso   1.000  N
  H11      1.0000 0.65370  0.48560  0.70100  Biso   1.000  H
  H12      1.0000 0.60960  0.34520  0.72200  Biso   1.000  H
  C1       1.0000 0.68720  0.54100  0.42210  Biso   1.000  C
  H13      1.0000 0.69530  0.55050  0.36420  Biso   1.000  H
  C2       1.0000 0.59210  0.61320  0.44120  Biso   1.000  C
  H14      1.0000 0.58300  0.60210  0.49820  Biso   1.000  H
  H15      1.0000 0.53860  0.56200  0.41170  Biso   1.000  H
  C3       1.0000 0.58880  0.77920  0.41940  Biso   1.000  C
  H16      1.0000 0.59200  0.78910  0.36090  Biso   1.000  H
  C4       1.0000 0.67680  0.86060  0.46110  Biso   1.000  C
  H17      1.0000 0.67780  0.96310  0.44200  Biso   1.000  H
  H18      1.0000 0.66920  0.86310  0.51870  Biso   1.000  H
  C5       1.0000 0.77370  0.78620  0.44560  Biso   1.000  C
  H19      1.0000 0.82450  0.83390  0.48090  Biso   1.000  H
  C6       1.0000 0.77110  0.61980  0.46770  Biso   1.000  C
  H20      1.0000 0.83220  0.57310  0.45530  Biso   1.000  H
  H21      1.0000 0.76420  0.60960  0.52520  Biso   1.000  H
  C7       1.0000 0.80110  0.10280  0.67120  Biso   1.000  C
  H22      1.0000 0.75190  0.11340  0.62620  Biso   1.000  H
  C8       1.0000 0.89350  0.18100  0.65000  Biso   1.000  C
  H23      1.0000 0.91680  0.13720  0.60140  Biso   1.000  H
  H24      1.0000 0.94350  0.16680  0.69320  Biso   1.000  H
  C9       1.0000 0.87590  0.34710  0.63690  Biso   1.000  C
  H25      1.0000 0.82670  0.36020  0.59220  Biso   1.000  H
  C10      1.0000 0.83910  0.41970  0.71150  Biso   1.000  C
  H26      1.0000 0.82250  0.52300  0.69910  Biso   1.000  H
  H27      1.0000 0.89150  0.42010  0.75340  Biso   1.000  H
  C11      1.0000 0.75020  0.34310  0.74400  Biso   1.000  C
  H28      1.0000 0.74460  0.37760  0.79940  Biso   1.000  H
  C12      1.0000 0.76180  0.17200  0.74640  Biso   1.000  C
  H29      1.0000 0.80550  0.14590  0.79240  Biso   1.000  H
  H30      1.0000 0.69870  0.12770  0.75480  Biso   1.000  H
  Ag3      1.0000 0.36088  0.82627  0.93360  Biso   1.000  Ag
  Ag4      1.0000 0.09639  0.11652  0.19983  Biso   1.000  Ag
  N7       1.0000 0.31480  0.87970  0.05660  Biso   1.000  N
  H31      1.0000 0.25470  0.84170  0.06140  Biso   1.000  H
  H32      1.0000 0.35560  0.83260  0.09280  Biso   1.000  H
  N8       1.0000 0.50590  0.34130  0.05720  Biso   1.000  N
  H33      1.0000 0.52090  0.42090  0.08860  Biso   1.000  H
  H34      1.0000 0.49800  0.37430  0.00600  Biso   1.000  H
  N9       1.0000 0.19830  0.30450  0.13940  Biso   1.000  N
  H35      1.0000 0.16730  0.39290  0.14240  Biso   1.000  H
  H36      1.0000 0.25390  0.31180  0.17080  Biso   1.000  H
  N10      1.0000 0.18000  0.44210  0.81410  Biso   1.000  N
  H37      1.0000 0.14730  0.40620  0.85520  Biso   1.000  H
  H38      1.0000 0.23780  0.39440  0.81510  Biso   1.000  H
  N11      1.0000 0.03200  0.91910  0.88460  Biso   1.000  N
  H39      1.0000 0.04260  0.01820  0.88910  Biso   1.000  H
  H40      1.0000 0.01750  0.88530  0.93340  Biso   1.000  H
  N12      1.0000 0.34030  0.88560  0.80280  Biso   1.000  N
  H41      1.0000 0.34630  0.98560  0.79900  Biso   1.000  H
  H42      1.0000 0.39040  0.84520  0.77800  Biso   1.000  H
  C13      1.0000 0.31280  0.04100  0.07790  Biso   1.000  C
  H43      1.0000 0.30470  0.05050  0.13580  Biso   1.000  H
  C14      1.0000 0.40790  0.11320  0.05880  Biso   1.000  C
  H44      1.0000 0.41700  0.10210  0.00180  Biso   1.000  H
  H45      1.0000 0.46140  0.06200  0.08830  Biso   1.000  H
  C15      1.0000 0.41120  0.27920  0.08060  Biso   1.000  C
  H46      1.0000 0.40800  0.28910  0.13910  Biso   1.000  H
  C16      1.0000 0.32320  0.36060  0.03890  Biso   1.000  C
  H47      1.0000 0.32220  0.46310  0.05800  Biso   1.000  H
  H48      1.0000 0.33080  0.36310  0.98130  Biso   1.000  H
  C17      1.0000 0.22630  0.28620  0.05440  Biso   1.000  C
  H49      1.0000 0.17550  0.33390  0.01910  Biso   1.000  H
  C18      1.0000 0.22890  0.11980  0.03230  Biso   1.000  C
  H50      1.0000 0.16780  0.07310  0.04470  Biso   1.000  H
  H51      1.0000 0.23580  0.10960  0.97480  Biso   1.000  H
  C19      1.0000 0.19890  0.60280  0.82880  Biso   1.000  C
  H52      1.0000 0.24810  0.61340  0.87380  Biso   1.000  H
  C20      1.0000 0.10650  0.68100  0.85000  Biso   1.000  C
  H53      1.0000 0.08320  0.63720  0.89860  Biso   1.000  H
  H54      1.0000 0.05650  0.66680  0.80680  Biso   1.000  H
  C21      1.0000 0.12410  0.84710  0.86310  Biso   1.000  C
  H55      1.0000 0.17330  0.86020  0.90780  Biso   1.000  H
  C22      1.0000 0.16090  0.91970  0.78850  Biso   1.000  C
  H56      1.0000 0.17750  0.02300  0.80090  Biso   1.000  H
  H57      1.0000 0.10850  0.92010  0.74660  Biso   1.000  H
  C23      1.0000 0.24980  0.84310  0.75600  Biso   1.000  C
  H58      1.0000 0.25540  0.87760  0.70060  Biso   1.000  H
  C24      1.0000 0.23820  0.67200  0.75360  Biso   1.000  C
  H59      1.0000 0.19450  0.64590  0.70760  Biso   1.000  H
  H60      1.0000 0.30130  0.62770  0.74520  Biso   1.000  H
  Ag5      1.0000 0.36088  0.67373  0.43360  Biso   1.000  Ag
  Ag6      1.0000 0.09639  0.38348  0.69983  Biso   1.000  Ag
  N13      1.0000 0.31480  0.62030  0.55660  Biso   1.000  N
  H61      1.0000 0.25470  0.65830  0.56140  Biso   1.000  H
  H62      1.0000 0.35560  0.66740  0.59280  Biso   1.000  H
  N14      1.0000 0.50590  0.15870  0.55720  Biso   1.000  N
  H63      1.0000 0.52090  0.07910  0.58860  Biso   1.000  H
  H64      1.0000 0.49800  0.12570  0.50600  Biso   1.000  H
  N15      1.0000 0.19830  0.19550  0.63940  Biso   1.000  N
  H65      1.0000 0.16730  0.10710  0.64240  Biso   1.000  H
  H66      1.0000 0.25390  0.18820  0.67080  Biso   1.000  H
  N16      1.0000 0.18000  0.05790  0.31410  Biso   1.000  N
  H67      1.0000 0.14730  0.09380  0.35520  Biso   1.000  H
  H68      1.0000 0.23780  0.10560  0.31510  Biso   1.000  H
  N17      1.0000 0.03200  0.58090  0.38460  Biso   1.000  N
  H69      1.0000 0.04260  0.48180  0.38910  Biso   1.000  H
  H70      1.0000 0.01750  0.61470  0.43340  Biso   1.000  H
  N18      1.0000 0.34030  0.61440  0.30280  Biso   1.000  N
  H71      1.0000 0.34630  0.51440  0.29900  Biso   1.000  H
  H72      1.0000 0.39040  0.65480  0.27800  Biso   1.000  H
  C25      1.0000 0.31280  0.45900  0.57790  Biso   1.000  C
  H73      1.0000 0.30470  0.44950  0.63580  Biso   1.000  H
  C26      1.0000 0.40790  0.38680  0.55880  Biso   1.000  C
  H74      1.0000 0.41700  0.39790  0.50180  Biso   1.000  H
  H75      1.0000 0.46140  0.43800  0.58830  Biso   1.000  H
  C27      1.0000 0.41120  0.22080  0.58060  Biso   1.000  C
  H76      1.0000 0.40800  0.21090  0.63910  Biso   1.000  H
  C28      1.0000 0.32320  0.13940  0.53890  Biso   1.000  C
  H77      1.0000 0.32220  0.03690  0.55800  Biso   1.000  H
  H78      1.0000 0.33080  0.13690  0.48130  Biso   1.000  H
  C29      1.0000 0.22630  0.21380  0.55440  Biso   1.000  C
  H79      1.0000 0.17550  0.16610  0.51910  Biso   1.000  H
  C30      1.0000 0.22890  0.38020  0.53230  Biso   1.000  C
  H80      1.0000 0.16780  0.42690  0.54470  Biso   1.000  H
  H81      1.0000 0.23580  0.39040  0.47480  Biso   1.000  H
  C31      1.0000 0.19890  0.89720  0.32880  Biso   1.000  C
  H82      1.0000 0.24810  0.88660  0.37380  Biso   1.000  H
  C32      1.0000 0.10650  0.81900  0.35000  Biso   1.000  C
  H83      1.0000 0.08320  0.86280  0.39860  Biso   1.000  H
  H84      1.0000 0.05650  0.83320  0.30680  Biso   1.000  H
  C33      1.0000 0.12410  0.65290  0.36310  Biso   1.000  C
  H85      1.0000 0.17330  0.63980  0.40780  Biso   1.000  H
  C34      1.0000 0.16090  0.58030  0.28850  Biso   1.000  C
  H86      1.0000 0.17750  0.47700  0.30090  Biso   1.000  H
  H87      1.0000 0.10850  0.57990  0.24660  Biso   1.000  H
  C35      1.0000 0.24980  0.65690  0.25600  Biso   1.000  C
  H88      1.0000 0.25540  0.62240  0.20060  Biso   1.000  H
  C36      1.0000 0.23820  0.82800  0.25360  Biso   1.000  C
  H89      1.0000 0.19450  0.85410  0.20760  Biso   1.000  H
  H90      1.0000 0.30130  0.87230  0.24520  Biso   1.000  H
  Ag7      1.0000 0.63912  0.17373  0.06640  Biso   1.000  Ag
  Ag8      1.0000 0.90361  0.88348  0.80017  Biso   1.000  Ag
  N19      1.0000 0.68520  0.12030  0.94340  Biso   1.000  N
  H91      1.0000 0.74530  0.15830  0.93860  Biso   1.000  H
  H92      1.0000 0.64440  0.16740  0.90720  Biso   1.000  H
  N20      1.0000 0.49410  0.65870  0.94280  Biso   1.000  N
  H93      1.0000 0.47910  0.57910  0.91140  Biso   1.000  H
  H94      1.0000 0.50200  0.62570  0.99400  Biso   1.000  H
  N21      1.0000 0.80170  0.69550  0.86060  Biso   1.000  N
  H95      1.0000 0.83270  0.60710  0.85760  Biso   1.000  H
  H96      1.0000 0.74610  0.68820  0.82920  Biso   1.000  H
  N22      1.0000 0.82000  0.55790  0.18590  Biso   1.000  N
  H97      1.0000 0.85270  0.59380  0.14480  Biso   1.000  H
  H98      1.0000 0.76220  0.60560  0.18490  Biso   1.000  H
  N23      1.0000 0.96800  0.08090  0.11540  Biso   1.000  N
  H99      1.0000 0.95740  0.98180  0.11090  Biso   1.000  H
  H100     1.0000 0.98250  0.11470  0.06660  Biso   1.000  H
  N24      1.0000 0.65970  0.11440  0.19720  Biso   1.000  N
  H101     1.0000 0.65370  0.01440  0.20100  Biso   1.000  H
  H102     1.0000 0.60960  0.15480  0.22200  Biso   1.000  H
  C37      1.0000 0.68720  0.95900  0.92210  Biso   1.000  C
  H103     1.0000 0.69530  0.94950  0.86420  Biso   1.000  H
  C38      1.0000 0.59210  0.88680  0.94120  Biso   1.000  C
  H104     1.0000 0.58300  0.89790  0.99820  Biso   1.000  H
  H105     1.0000 0.53860  0.93800  0.91170  Biso   1.000  H
  C39      1.0000 0.58880  0.72080  0.91940  Biso   1.000  C
  H106     1.0000 0.59200  0.71090  0.86090  Biso   1.000  H
  C40      1.0000 0.67680  0.63940  0.96110  Biso   1.000  C
  H107     1.0000 0.67780  0.53690  0.94200  Biso   1.000  H
  H108     1.0000 0.66920  0.63690  0.01870  Biso   1.000  H
  C41      1.0000 0.77370  0.71380  0.94560  Biso   1.000  C
  H109     1.0000 0.82450  0.66610  0.98090  Biso   1.000  H
  C42      1.0000 0.77110  0.88020  0.96770  Biso   1.000  C
  H110     1.0000 0.83220  0.92690  0.95530  Biso   1.000  H
  H111     1.0000 0.76420  0.89040  0.02520  Biso   1.000  H
  C43      1.0000 0.80110  0.39720  0.17120  Biso   1.000  C
  H112     1.0000 0.75190  0.38660  0.12620  Biso   1.000  H
  C44      1.0000 0.89350  0.31900  0.15000  Biso   1.000  C
  H113     1.0000 0.91680  0.36280  0.10140  Biso   1.000  H
  H114     1.0000 0.94350  0.33320  0.19320  Biso   1.000  H
  C45      1.0000 0.87590  0.15290  0.13690  Biso   1.000  C
  H115     1.0000 0.82670  0.13980  0.09220  Biso   1.000  H
  C46      1.0000 0.83910  0.08030  0.21150  Biso   1.000  C
  H116     1.0000 0.82250  0.97700  0.19910  Biso   1.000  H
  H117     1.0000 0.89150  0.07990  0.25340  Biso   1.000  H
  C47      1.0000 0.75020  0.15690  0.24400  Biso   1.000  C
  H118     1.0000 0.74460  0.12240  0.29940  Biso   1.000  H
  C48      1.0000 0.76180  0.32800  0.24640  Biso   1.000  C
  H119     1.0000 0.80550  0.35410  0.29240  Biso   1.000  H
  H120     1.0000 0.69870  0.37230  0.25480  Biso   1.000  H
