data_UKAQAZ_clean
_audit_creation_date              2014-07-02
_audit_creation_method            'Materials Studio'
_symmetry_space_group_name_H-M    'P1'
_symmetry_Int_Tables_number       1
_symmetry_cell_setting            triclinic
loop_
_symmetry_equiv_pos_as_xyz
  x,y,z
_cell_length_a                    10.7459
_cell_length_b                    11.8655
_cell_length_c                    14.6752
_cell_angle_alpha                 73.2670
_cell_angle_beta                  71.8240
_cell_angle_gamma                 66.7990
loop_
_atom_site_label
_atom_site_type_symbol
_atom_site_fract_x
_atom_site_fract_y
_atom_site_fract_z
_atom_site_U_iso_or_equiv
_atom_site_adp_type
_atom_site_occupancy
Sm1    Sm    0.01298   0.44969   0.37209   0.01267  Uiso   1.00
Sm2    Sm    0.98702   0.55031   0.62791   0.01267  Uiso   1.00
P1     P     0.85663   0.28196   0.27429   0.01267  Uiso   1.00
P2     P     0.14337   0.71804   0.72571   0.01267  Uiso   1.00
H1     H     0.49380   0.36570   0.55690   0.01267  Uiso   1.00
H2     H     0.04610   0.10270   0.38310   0.01267  Uiso   1.00
H3     H     0.72120   0.32220   0.46430   0.01267  Uiso   1.00
H4     H     0.02780   0.17990   0.10680   0.01267  Uiso   1.00
H5     H     0.35840   0.38310   0.32300   0.01267  Uiso   1.00
H6     H     0.58920   0.33320   0.23000   0.01267  Uiso   1.00
H7     H     0.81250   0.08270   0.22150   0.01267  Uiso   1.00
H8     H     0.74990   0.57730   0.98330   0.01267  Uiso   1.00
H9     H     0.06460   0.25460   0.93860   0.01267  Uiso   1.00
H10    H     0.11380   0.88660   0.43460   0.01267  Uiso   1.00
H11    H     0.88960   0.86520   0.26750   0.01267  Uiso   1.00
H12    H     0.72320   0.50550   0.15160   0.01267  Uiso   1.00
H13    H     0.50620   0.63430   0.44310   0.01267  Uiso   1.00
H14    H     0.95390   0.89730   0.61690   0.01267  Uiso   1.00
H15    H     0.27880   0.67780   0.53570   0.01267  Uiso   1.00
H16    H     0.97220   0.82010   0.89320   0.01267  Uiso   1.00
H17    H     0.64160   0.61690   0.67700   0.01267  Uiso   1.00
H18    H     0.41080   0.66680   0.77000   0.01267  Uiso   1.00
H19    H     0.18750   0.91730   0.77850   0.01267  Uiso   1.00
H20    H     0.25010   0.42270   0.01670   0.01267  Uiso   1.00
H21    H     0.93540   0.74540   0.06140   0.01267  Uiso   1.00
H22    H     0.88620   0.11340   0.56540   0.01267  Uiso   1.00
H23    H     0.11040   0.13480   0.73250   0.01267  Uiso   1.00
H24    H     0.27680   0.49450   0.84840   0.01267  Uiso   1.00
C1     C     0.86950   0.33410   0.14550   0.01267  Uiso   1.00
C2     C     0.51300   0.36010   0.49030   0.01267  Uiso   1.00
C3     C     0.92180   0.11370   0.29860   0.01267  Uiso   1.00
C4     C     0.67620   0.32390   0.33800   0.01267  Uiso   1.00
C5     C     0.01210   0.05490   0.36100   0.01267  Uiso   1.00
C6     C     0.64790   0.33370   0.43570   0.01267  Uiso   1.00
C7     C     0.40480   0.37860   0.44870   0.01267  Uiso   1.00
C8     C     0.97150   0.26100   0.08180   0.01267  Uiso   1.00
C9     C     0.43220   0.36970   0.35170   0.01267  Uiso   1.00
C10    C     0.56950   0.34090   0.29610   0.01267  Uiso   1.00
C11    C     0.87450   0.04260   0.26420   0.01267  Uiso   1.00
C12    C     0.90830   0.42060   0.94500   0.01267  Uiso   1.00
C13    C     0.93020   0.46490   0.83590   0.01267  Uiso   1.00
C14    C     0.80690   0.49660   0.00830   0.01267  Uiso   1.00
C15    C     0.99240   0.30460   0.98180   0.01267  Uiso   1.00
C16    C     0.00510   0.85540   0.35840   0.01267  Uiso   1.00
C17    C     0.05280   0.92640   0.39110   0.01267  Uiso   1.00
C18    C     0.91850   0.91380   0.29270   0.01267  Uiso   1.00
C19    C     0.04080   0.71730   0.39780   0.01267  Uiso   1.00
C20    C     0.25830   0.41350   0.50880   0.01267  Uiso   1.00
C21    C     0.79020   0.45300   0.10810   0.01267  Uiso   1.00
C22    C     0.13050   0.66590   0.85450   0.01267  Uiso   1.00
C23    C     0.48700   0.63990   0.50970   0.01267  Uiso   1.00
C24    C     0.07820   0.88630   0.70140   0.01267  Uiso   1.00
C25    C     0.32380   0.67610   0.66200   0.01267  Uiso   1.00
C26    C     0.98790   0.94510   0.63900   0.01267  Uiso   1.00
C27    C     0.35210   0.66630   0.56430   0.01267  Uiso   1.00
C28    C     0.59520   0.62140   0.55130   0.01267  Uiso   1.00
C29    C     0.02850   0.73900   0.91820   0.01267  Uiso   1.00
C30    C     0.56780   0.63030   0.64830   0.01267  Uiso   1.00
C31    C     0.43050   0.65910   0.70390   0.01267  Uiso   1.00
C32    C     0.12550   0.95740   0.73580   0.01267  Uiso   1.00
C33    C     0.09170   0.57940   0.05500   0.01267  Uiso   1.00
C34    C     0.06980   0.53510   0.16410   0.01267  Uiso   1.00
C35    C     0.19310   0.50340   0.99170   0.01267  Uiso   1.00
C36    C     0.00760   0.69540   0.01820   0.01267  Uiso   1.00
C37    C     0.99490   0.14460   0.64160   0.01267  Uiso   1.00
C38    C     0.94720   0.07360   0.60890   0.01267  Uiso   1.00
C39    C     0.08150   0.08620   0.70730   0.01267  Uiso   1.00
C40    C     0.95920   0.28270   0.60220   0.01267  Uiso   1.00
C41    C     0.74170   0.58650   0.49120   0.01267  Uiso   1.00
C42    C     0.20980   0.54700   0.89190   0.01267  Uiso   1.00
O1     O     0.05060   0.42290   0.78420   0.01267  Uiso   1.00
O2     O     0.23620   0.43630   0.59211   0.01267  Uiso   1.00
O3     O     0.06940   0.68020   0.48127   0.01267  Uiso   1.00
O4     O     0.82940   0.54150   0.79797   0.01267  Uiso   1.00
O5     O     0.03670   0.65040   0.34696   0.01267  Uiso   1.00
O6     O     0.15990   0.42430   0.47326   0.01267  Uiso   1.00
O7     O     0.93510   0.33010   0.31276   0.01267  Uiso   1.00
O8     O     0.94940   0.57710   0.21580   0.01267  Uiso   1.00
O9     O     0.76380   0.56370   0.40789   0.01267  Uiso   1.00
O10    O     0.93060   0.31980   0.51873   0.01267  Uiso   1.00
O11    O     0.17060   0.45850   0.20203   0.01267  Uiso   1.00
O12    O     0.96330   0.34960   0.65304   0.01267  Uiso   1.00
O13    O     0.84010   0.57570   0.52674   0.01267  Uiso   1.00
O14    O     0.06490   0.66990   0.68724   0.01267  Uiso   1.00
