data_UKAQED_clean
_audit_creation_date              2014-07-02
_audit_creation_method            'Materials Studio'
_symmetry_space_group_name_H-M    'P1'
_symmetry_Int_Tables_number       1
_symmetry_cell_setting            triclinic
loop_
_symmetry_equiv_pos_as_xyz
  x,y,z
_cell_length_a                    10.7240
_cell_length_b                    11.8310
_cell_length_c                    14.5930
_cell_angle_alpha                 73.6600
_cell_angle_beta                  71.9800
_cell_angle_gamma                 66.9000
loop_
_atom_site_label
_atom_site_type_symbol
_atom_site_fract_x
_atom_site_fract_y
_atom_site_fract_z
_atom_site_U_iso_or_equiv
_atom_site_adp_type
_atom_site_occupancy
Eu1    Eu    0.01243   0.44879   0.37223   0.01267  Uiso   1.00
Eu2    Eu    0.98757   0.55121   0.62777   0.01267  Uiso   1.00
P1     P     0.85726   0.28055   0.27380   0.01267  Uiso   1.00
P2     P     0.14274   0.71945   0.72620   0.01267  Uiso   1.00
H1     H     0.49230   0.36770   0.55740   0.01267  Uiso   1.00
H2     H     0.04580   0.10240   0.38380   0.01267  Uiso   1.00
H3     H     0.72010   0.32140   0.46500   0.01267  Uiso   1.00
H4     H     0.03140   0.17830   0.10410   0.01267  Uiso   1.00
H5     H     0.35850   0.38320   0.32180   0.01267  Uiso   1.00
H6     H     0.58910   0.32820   0.22860   0.01267  Uiso   1.00
H7     H     0.81260   0.08090   0.22010   0.01267  Uiso   1.00
H8     H     0.74930   0.57650   0.98310   0.01267  Uiso   1.00
H9     H     0.06420   0.25320   0.93680   0.01267  Uiso   1.00
H10    H     0.11410   0.88510   0.43460   0.01267  Uiso   1.00
H11    H     0.88870   0.86370   0.26630   0.01267  Uiso   1.00
H12    H     0.72410   0.50440   0.15180   0.01267  Uiso   1.00
H13    H     0.50770   0.63230   0.44260   0.01267  Uiso   1.00
H14    H     0.95420   0.89760   0.61620   0.01267  Uiso   1.00
H15    H     0.27990   0.67860   0.53500   0.01267  Uiso   1.00
H16    H     0.96860   0.82170   0.89590   0.01267  Uiso   1.00
H17    H     0.64150   0.61680   0.67820   0.01267  Uiso   1.00
H18    H     0.41090   0.67180   0.77140   0.01267  Uiso   1.00
H19    H     0.18740   0.91910   0.77990   0.01267  Uiso   1.00
H20    H     0.25070   0.42350   0.01690   0.01267  Uiso   1.00
H21    H     0.93580   0.74680   0.06320   0.01267  Uiso   1.00
H22    H     0.88590   0.11490   0.56540   0.01267  Uiso   1.00
H23    H     0.11130   0.13630   0.73370   0.01267  Uiso   1.00
H24    H     0.27590   0.49560   0.84820   0.01267  Uiso   1.00
C1     C     0.87130   0.33250   0.14430   0.01267  Uiso   1.00
C2     C     0.51180   0.36070   0.49080   0.01267  Uiso   1.00
C3     C     0.92180   0.11310   0.29730   0.01267  Uiso   1.00
C4     C     0.67750   0.32240   0.33730   0.01267  Uiso   1.00
C5     C     0.01220   0.05430   0.36110   0.01267  Uiso   1.00
C6     C     0.64710   0.33320   0.43580   0.01267  Uiso   1.00
C7     C     0.40480   0.37820   0.44860   0.01267  Uiso   1.00
C8     C     0.97410   0.25920   0.07970   0.01267  Uiso   1.00
C9     C     0.43280   0.36870   0.35070   0.01267  Uiso   1.00
C10    C     0.56960   0.33820   0.29450   0.01267  Uiso   1.00
C11    C     0.87450   0.04120   0.26310   0.01267  Uiso   1.00
C12    C     0.90920   0.42050   0.94380   0.01267  Uiso   1.00
C13    C     0.93280   0.46470   0.83460   0.01267  Uiso   1.00
C14    C     0.80710   0.49600   0.00770   0.01267  Uiso   1.00
C15    C     0.99290   0.30350   0.98070   0.01267  Uiso   1.00
C16    C     0.00430   0.85400   0.35790   0.01267  Uiso   1.00
C17    C     0.05280   0.92510   0.39110   0.01267  Uiso   1.00
C18    C     0.91790   0.91240   0.29180   0.01267  Uiso   1.00
C19    C     0.03870   0.71710   0.39770   0.01267  Uiso   1.00
C20    C     0.25840   0.41500   0.50720   0.01267  Uiso   1.00
C21    C     0.79090   0.45220   0.10760   0.01267  Uiso   1.00
C22    C     0.12870   0.66750   0.85570   0.01267  Uiso   1.00
C23    C     0.48820   0.63930   0.50920   0.01267  Uiso   1.00
C24    C     0.07820   0.88690   0.70270   0.01267  Uiso   1.00
C25    C     0.32250   0.67760   0.66270   0.01267  Uiso   1.00
C26    C     0.98780   0.94570   0.63890   0.01267  Uiso   1.00
C27    C     0.35290   0.66680   0.56420   0.01267  Uiso   1.00
C28    C     0.59520   0.62180   0.55140   0.01267  Uiso   1.00
C29    C     0.02590   0.74080   0.92030   0.01267  Uiso   1.00
C30    C     0.56720   0.63130   0.64930   0.01267  Uiso   1.00
C31    C     0.43040   0.66180   0.70550   0.01267  Uiso   1.00
C32    C     0.12550   0.95880   0.73690   0.01267  Uiso   1.00
C33    C     0.09080   0.57950   0.05620   0.01267  Uiso   1.00
C34    C     0.06720   0.53530   0.16540   0.01267  Uiso   1.00
C35    C     0.19290   0.50400   0.99230   0.01267  Uiso   1.00
C36    C     0.00710   0.69650   0.01930   0.01267  Uiso   1.00
C37    C     0.99570   0.14600   0.64210   0.01267  Uiso   1.00
C38    C     0.94720   0.07490   0.60890   0.01267  Uiso   1.00
C39    C     0.08210   0.08760   0.70820   0.01267  Uiso   1.00
C40    C     0.96130   0.28290   0.60230   0.01267  Uiso   1.00
C41    C     0.74160   0.58500   0.49280   0.01267  Uiso   1.00
C42    C     0.20910   0.54780   0.89240   0.01267  Uiso   1.00
O1     O     0.05320   0.42480   0.78360   0.01267  Uiso   1.00
O2     O     0.23570   0.43930   0.59050   0.01267  Uiso   1.00
O3     O     0.06730   0.68060   0.48230   0.01267  Uiso   1.00
O4     O     0.83220   0.54100   0.79630   0.01267  Uiso   1.00
O5     O     0.03350   0.64880   0.34730   0.01267  Uiso   1.00
O6     O     0.15970   0.42500   0.47150   0.01267  Uiso   1.00
O7     O     0.93590   0.32900   0.31300   0.01267  Uiso   1.00
O8     O     0.94680   0.57520   0.21640   0.01267  Uiso   1.00
O9     O     0.76430   0.56070   0.40950   0.01267  Uiso   1.00
O10    O     0.93270   0.31940   0.51770   0.01267  Uiso   1.00
O11    O     0.16780   0.45900   0.20370   0.01267  Uiso   1.00
O12    O     0.96650   0.35120   0.65270   0.01267  Uiso   1.00
O13    O     0.84030   0.57500   0.52850   0.01267  Uiso   1.00
O14    O     0.06410   0.67100   0.68700   0.01267  Uiso   1.00
