data_image0
_cell_length_a       16.963
_cell_length_b       18.283
_cell_length_c       18.373
_cell_angle_alpha    90
_cell_angle_beta     90
_cell_angle_gamma    90

_symmetry_space_group_name_H-M    "P 1"
_symmetry_int_tables_number       1

loop_
  _symmetry_equiv_pos_as_xyz
  'x, y, z'

loop_
  _atom_site_label
  _atom_site_occupancy
  _atom_site_fract_x
  _atom_site_fract_y
  _atom_site_fract_z
  _atom_site_thermal_displace_type
  _atom_site_B_iso_or_equiv
  _atom_site_type_symbol
  Cu1      1.0000 0.63589  0.70162  0.94345  Biso   1.000  Cu
  Cu2      1.0000 0.70096  0.55640  0.86594  Biso   1.000  Cu
  Cu3      1.0000 0.55242  0.64719  0.79333  Biso   1.000  Cu
  Mn1      1.0000 0.89610  0.59293  0.11003  Biso   1.000  Mn
  Cl1      1.0000 0.70540  0.69780  0.82040  Biso   1.000  Cl
  C1       1.0000 0.75530  0.67280  0.03510  Biso   1.000  C
  C2       1.0000 0.72540  0.59330  0.00920  Biso   1.000  C
  C3       1.0000 0.79650  0.54670  0.97700  Biso   1.000  C
  O1       1.0000 0.80890  0.67460  0.07930  Biso   1.000  O
  O2       1.0000 0.72040  0.72570  0.00750  Biso   1.000  O
  O3       1.0000 0.69260  0.55620  0.07290  Biso   1.000  O
  O4       1.0000 0.66900  0.59910  0.95690  Biso   1.000  O
  O5       1.0000 0.84940  0.53000  0.02360  Biso   1.000  O
  O6       1.0000 0.79400  0.52880  0.91470  Biso   1.000  O
  C4       1.0000 0.68140  0.48330  0.73840  Biso   1.000  C
  C5       1.0000 0.59480  0.50370  0.76430  Biso   1.000  C
  C6       1.0000 0.54810  0.53250  0.69890  Biso   1.000  C
  O7       1.0000 0.69130  0.44940  0.68250  Biso   1.000  O
  O8       1.0000 0.73640  0.50130  0.78290  Biso   1.000  O
  O9       1.0000 0.55930  0.44190  0.79160  Biso   1.000  O
  O10      1.0000 0.59990  0.55490  0.81770  Biso   1.000  O
  O11      1.0000 0.53050  0.49290  0.64940  Biso   1.000  O
  O12      1.0000 0.52980  0.60090  0.70260  Biso   1.000  O
  C7       1.0000 0.47330  0.77250  0.81780  Biso   1.000  C
  C8       1.0000 0.48590  0.74320  0.89370  Biso   1.000  C
  C9       1.0000 0.51980  0.80360  0.94350  Biso   1.000  C
  O13      1.0000 0.43670  0.83070  0.80950  Biso   1.000  O
  O14      1.0000 0.49870  0.73610  0.76630  Biso   1.000  O
  O15      1.0000 0.41370  0.71590  0.91940  Biso   1.000  O
  O16      1.0000 0.53980  0.68370  0.89030  Biso   1.000  O
  O17      1.0000 0.47980  0.85800  0.95660  Biso   1.000  O
  O18      1.0000 0.58610  0.79170  0.96950  Biso   1.000  O
  Cu4      1.0000 0.86411  0.29838  0.44345  Biso   1.000  Cu
  Cu5      1.0000 0.79904  0.44360  0.36594  Biso   1.000  Cu
  Cu6      1.0000 0.94758  0.35281  0.29333  Biso   1.000  Cu
  Mn2      1.0000 0.60390  0.40707  0.61003  Biso   1.000  Mn
  Cl2      1.0000 0.79460  0.30220  0.32040  Biso   1.000  Cl
  C10      1.0000 0.74470  0.32720  0.53510  Biso   1.000  C
  C11      1.0000 0.77460  0.40670  0.50920  Biso   1.000  C
  C12      1.0000 0.70350  0.45330  0.47700  Biso   1.000  C
  O19      1.0000 0.69110  0.32540  0.57930  Biso   1.000  O
  O20      1.0000 0.77960  0.27430  0.50750  Biso   1.000  O
  O21      1.0000 0.80740  0.44380  0.57290  Biso   1.000  O
  O22      1.0000 0.83100  0.40090  0.45690  Biso   1.000  O
  O23      1.0000 0.65060  0.47000  0.52360  Biso   1.000  O
  O24      1.0000 0.70600  0.47120  0.41470  Biso   1.000  O
  C13      1.0000 0.81860  0.51670  0.23840  Biso   1.000  C
  C14      1.0000 0.90520  0.49630  0.26430  Biso   1.000  C
  C15      1.0000 0.95190  0.46750  0.19890  Biso   1.000  C
  O25      1.0000 0.80870  0.55060  0.18250  Biso   1.000  O
  O26      1.0000 0.76360  0.49870  0.28290  Biso   1.000  O
  O27      1.0000 0.94070  0.55810  0.29160  Biso   1.000  O
  O28      1.0000 0.90010  0.44510  0.31770  Biso   1.000  O
  O29      1.0000 0.96950  0.50710  0.14940  Biso   1.000  O
  O30      1.0000 0.97020  0.39910  0.20260  Biso   1.000  O
  C16      1.0000 0.02670  0.22750  0.31780  Biso   1.000  C
  C17      1.0000 0.01410  0.25680  0.39370  Biso   1.000  C
  C18      1.0000 0.98020  0.19640  0.44350  Biso   1.000  C
  O31      1.0000 0.06330  0.16930  0.30950  Biso   1.000  O
  O32      1.0000 0.00130  0.26390  0.26630  Biso   1.000  O
  O33      1.0000 0.08630  0.28410  0.41940  Biso   1.000  O
  O34      1.0000 0.96020  0.31630  0.39030  Biso   1.000  O
  O35      1.0000 0.02020  0.14200  0.45660  Biso   1.000  O
  O36      1.0000 0.91390  0.20830  0.46950  Biso   1.000  O
  Cu7      1.0000 0.36411  0.20162  0.55655  Biso   1.000  Cu
  Cu8      1.0000 0.29904  0.05640  0.63406  Biso   1.000  Cu
  Cu9      1.0000 0.44758  0.14719  0.70667  Biso   1.000  Cu
  Mn3      1.0000 0.10390  0.09293  0.38997  Biso   1.000  Mn
  Cl3      1.0000 0.29460  0.19780  0.67960  Biso   1.000  Cl
  C19      1.0000 0.24470  0.17280  0.46490  Biso   1.000  C
  C20      1.0000 0.27460  0.09330  0.49080  Biso   1.000  C
  C21      1.0000 0.20350  0.04670  0.52300  Biso   1.000  C
  O37      1.0000 0.19110  0.17460  0.42070  Biso   1.000  O
  O38      1.0000 0.27960  0.22570  0.49250  Biso   1.000  O
  O39      1.0000 0.30740  0.05620  0.42710  Biso   1.000  O
  O40      1.0000 0.33100  0.09910  0.54310  Biso   1.000  O
  O41      1.0000 0.15060  0.03000  0.47640  Biso   1.000  O
  O42      1.0000 0.20600  0.02880  0.58530  Biso   1.000  O
  C22      1.0000 0.31860  0.98330  0.76160  Biso   1.000  C
  C23      1.0000 0.40520  0.00370  0.73570  Biso   1.000  C
  C24      1.0000 0.45190  0.03250  0.80110  Biso   1.000  C
  O43      1.0000 0.30870  0.94940  0.81750  Biso   1.000  O
  O44      1.0000 0.26360  0.00130  0.71710  Biso   1.000  O
  O45      1.0000 0.44070  0.94190  0.70840  Biso   1.000  O
  O46      1.0000 0.40010  0.05490  0.68230  Biso   1.000  O
  O47      1.0000 0.46950  0.99290  0.85060  Biso   1.000  O
  O48      1.0000 0.47020  0.10090  0.79740  Biso   1.000  O
  C25      1.0000 0.52670  0.27250  0.68220  Biso   1.000  C
  C26      1.0000 0.51410  0.24320  0.60630  Biso   1.000  C
  C27      1.0000 0.48020  0.30360  0.55650  Biso   1.000  C
  O49      1.0000 0.56330  0.33070  0.69050  Biso   1.000  O
  O50      1.0000 0.50130  0.23610  0.73370  Biso   1.000  O
  O51      1.0000 0.58630  0.21590  0.58060  Biso   1.000  O
  O52      1.0000 0.46020  0.18370  0.60970  Biso   1.000  O
  O53      1.0000 0.52020  0.35800  0.54340  Biso   1.000  O
  O54      1.0000 0.41390  0.29170  0.53050  Biso   1.000  O
  Cu10     1.0000 0.13589  0.79838  0.05655  Biso   1.000  Cu
  Cu11     1.0000 0.20096  0.94360  0.13406  Biso   1.000  Cu
  Cu12     1.0000 0.05242  0.85281  0.20667  Biso   1.000  Cu
  Mn4      1.0000 0.39610  0.90707  0.88997  Biso   1.000  Mn
  Cl4      1.0000 0.20540  0.80220  0.17960  Biso   1.000  Cl
  C28      1.0000 0.25530  0.82720  0.96490  Biso   1.000  C
  C29      1.0000 0.22540  0.90670  0.99080  Biso   1.000  C
  C30      1.0000 0.29650  0.95330  0.02300  Biso   1.000  C
  O55      1.0000 0.30890  0.82540  0.92070  Biso   1.000  O
  O56      1.0000 0.22040  0.77430  0.99250  Biso   1.000  O
  O57      1.0000 0.19260  0.94380  0.92710  Biso   1.000  O
  O58      1.0000 0.16900  0.90090  0.04310  Biso   1.000  O
  O59      1.0000 0.34940  0.97000  0.97640  Biso   1.000  O
  O60      1.0000 0.29400  0.97120  0.08530  Biso   1.000  O
  C31      1.0000 0.18140  0.01670  0.26160  Biso   1.000  C
  C32      1.0000 0.09480  0.99630  0.23570  Biso   1.000  C
  C33      1.0000 0.04810  0.96750  0.30110  Biso   1.000  C
  O61      1.0000 0.19130  0.05060  0.31750  Biso   1.000  O
  O62      1.0000 0.23640  0.99870  0.21710  Biso   1.000  O
  O63      1.0000 0.05930  0.05810  0.20840  Biso   1.000  O
  O64      1.0000 0.09990  0.94510  0.18230  Biso   1.000  O
  O65      1.0000 0.03050  0.00710  0.35060  Biso   1.000  O
  O66      1.0000 0.02980  0.89910  0.29740  Biso   1.000  O
  C34      1.0000 0.97330  0.72750  0.18220  Biso   1.000  C
  C35      1.0000 0.98590  0.75680  0.10630  Biso   1.000  C
  C36      1.0000 0.01980  0.69640  0.05650  Biso   1.000  C
  O67      1.0000 0.93670  0.66930  0.19050  Biso   1.000  O
  O68      1.0000 0.99870  0.76390  0.23370  Biso   1.000  O
  O69      1.0000 0.91370  0.78410  0.08060  Biso   1.000  O
  O70      1.0000 0.03980  0.81630  0.10970  Biso   1.000  O
  O71      1.0000 0.97980  0.64200  0.04340  Biso   1.000  O
  O72      1.0000 0.08610  0.70830  0.03050  Biso   1.000  O
