data_image0
_cell_length_a       13.0719
_cell_length_b       22.534
_cell_length_c       16.8938
_cell_angle_alpha    90
_cell_angle_beta     99.908
_cell_angle_gamma    90

_symmetry_space_group_name_H-M    "P 1"
_symmetry_int_tables_number       1

loop_
  _symmetry_equiv_pos_as_xyz
  'x, y, z'

loop_
  _atom_site_label
  _atom_site_occupancy
  _atom_site_fract_x
  _atom_site_fract_y
  _atom_site_fract_z
  _atom_site_thermal_displace_type
  _atom_site_B_iso_or_equiv
  _atom_site_type_symbol
  C1       1.0000 0.71830  0.10971  0.08040  Biso   1.000  C
  C2       1.0000 0.78710  0.05569  0.08990  Biso   1.000  C
  C3       1.0000 0.79940  0.02291  0.02070  Biso   1.000  C
  H1       1.0000 0.76650  0.03580  0.97050  Biso   1.000  H
  C4       1.0000 0.85910  0.97260  0.02650  Biso   1.000  C
  C5       1.0000 0.91770  0.95660  0.10080  Biso   1.000  C
  H2       1.0000 0.96380  0.92490  0.10490  Biso   1.000  H
  C6       1.0000 0.90530  0.98930  0.16810  Biso   1.000  C
  C7       1.0000 0.83930  0.03723  0.16550  Biso   1.000  C
  C8       1.0000 0.82140  0.07259  0.23720  Biso   1.000  C
  C9       1.0000 0.73870  0.06321  0.27760  Biso   1.000  C
  C10      1.0000 0.71990  0.09855  0.34080  Biso   1.000  C
  H3       1.0000 0.66490  0.09000  0.36730  Biso   1.000  H
  C11      1.0000 0.78370  0.14647  0.36380  Biso   1.000  C
  C12      1.0000 0.86260  0.15989  0.32240  Biso   1.000  C
  H4       1.0000 0.90170  0.19410  0.33520  Biso   1.000  H
  C13      1.0000 0.88480  0.12266  0.26140  Biso   1.000  C
  C14      1.0000 0.97820  0.13360  0.22270  Biso   1.000  C
  C15      1.0000 0.86170  0.93300  0.95550  Biso   1.000  C
  C16      1.0000 0.76240  0.18590  0.43100  Biso   1.000  C
  C17      1.0000 0.57020  0.28780  0.15670  Biso   1.000  C
  C18      1.0000 0.48940  0.30034  0.20810  Biso   1.000  C
  C19      1.0000 0.51440  0.29160  0.29000  Biso   1.000  C
  H5       1.0000 0.57830  0.27510  0.31160  Biso   1.000  H
  C20      1.0000 0.44570  0.30708  0.34090  Biso   1.000  C
  C21      1.0000 0.34870  0.32896  0.30770  Biso   1.000  C
  H6       1.0000 0.30150  0.33950  0.34070  Biso   1.000  H
  C22      1.0000 0.32270  0.33498  0.22530  Biso   1.000  C
  C23      1.0000 0.39260  0.32218  0.17280  Biso   1.000  C
  C24      1.0000 0.36480  0.32483  0.08350  Biso   1.000  C
  C25      1.0000 0.40120  0.36850  0.03470  Biso   1.000  C
  C26      1.0000 0.37260  0.36970  0.95310  Biso   1.000  C
  H7       1.0000 0.39840  0.39910  0.92330  Biso   1.000  H
  C27      1.0000 0.30480  0.32721  0.91470  Biso   1.000  C
  C28      1.0000 0.26940  0.28288  0.96030  Biso   1.000  C
  H8       1.0000 0.22390  0.25420  0.93520  Biso   1.000  H
  C29      1.0000 0.30080  0.28096  0.04270  Biso   1.000  C
  C30      1.0000 0.26050  0.23145  0.08930  Biso   1.000  C
  C31      1.0000 0.48070  0.30200  0.42990  Biso   1.000  C
  C32      1.0000 0.26350  0.33120  0.82610  Biso   1.000  C
  Cd1      1.0000 0.48088  0.15403  0.10454  Biso   1.000  Cd
  Cd2      1.0000 0.16613  0.14649  0.17128  Biso   1.000  Cd
  Cd3      1.0000 0.69401  0.24815  0.04720  Biso   1.000  Cd
  N1       1.0000 0.96730  0.97030  0.24450  Biso   1.000  N
  N2       1.0000 0.66480  0.01545  0.25140  Biso   1.000  N
  N3       1.0000 0.47010  0.41640  0.07140  Biso   1.000  N
  N4       1.0000 0.21750  0.35890  0.19490  Biso   1.000  N
  O1       1.0000 0.75110  0.15436  0.04970  Biso   1.000  O
  O2       1.0000 0.63460  0.10485  0.10570  Biso   1.000  O
  O3       1.0000 0.93900  0.98337  0.30750  Biso   1.000  O
  O4       1.0000 0.04730  0.94090  0.24160  Biso   1.000  O
  O5       1.0000 0.92800  0.89447  0.95950  Biso   1.000  O
  O6       1.0000 0.79060  0.93921  0.89522  Biso   1.000  O
  O7       1.0000 0.98160  0.18019  0.18150  Biso   1.000  O
  O8       1.0000 0.04900  0.09645  0.23470  Biso   1.000  O
  O9       1.0000 0.69640  0.97058  0.22190  Biso   1.000  O
  O10      1.0000 0.57370  0.02362  0.25830  Biso   1.000  O
  O11      1.0000 0.71560  0.16355  0.48210  Biso   1.000  O
  O12      1.0000 0.79140  0.23798  0.43400  Biso   1.000  O
  O13      1.0000 0.58350  0.23406  0.13760  Biso   1.000  O
  O14      1.0000 0.61920  0.32780  0.13350  Biso   1.000  O
  O15      1.0000 0.20140  0.38210  0.12920  Biso   1.000  O
  O16      1.0000 0.15240  0.35388  0.23690  Biso   1.000  O
  O17      1.0000 0.43470  0.33265  0.47345  Biso   1.000  O
  O18      1.0000 0.55360  0.26700  0.45300  Biso   1.000  O
  O19      1.0000 0.32100  0.19253  0.12226  Biso   1.000  O
  O20      1.0000 0.16580  0.23099  0.09250  Biso   1.000  O
  O21      1.0000 0.46320  0.43280  0.13850  Biso   1.000  O
  O22      1.0000 0.52860  0.43810  0.03170  Biso   1.000  O
  O23      1.0000 0.19760  0.29502  0.79463  Biso   1.000  O
  O24      1.0000 0.29540  0.37336  0.78603  Biso   1.000  O
  C33      1.0000 0.28170  0.60971  0.41960  Biso   1.000  C
  C34      1.0000 0.21290  0.55569  0.41010  Biso   1.000  C
  C35      1.0000 0.20060  0.52291  0.47930  Biso   1.000  C
  H9       1.0000 0.23350  0.53580  0.52950  Biso   1.000  H
  C36      1.0000 0.14090  0.47260  0.47350  Biso   1.000  C
  C37      1.0000 0.08230  0.45660  0.39920  Biso   1.000  C
  H10      1.0000 0.03620  0.42490  0.39510  Biso   1.000  H
  C38      1.0000 0.09470  0.48930  0.33190  Biso   1.000  C
  C39      1.0000 0.16070  0.53723  0.33450  Biso   1.000  C
  C40      1.0000 0.17860  0.57259  0.26280  Biso   1.000  C
  C41      1.0000 0.26130  0.56321  0.22240  Biso   1.000  C
  C42      1.0000 0.28010  0.59855  0.15920  Biso   1.000  C
  H11      1.0000 0.33510  0.59000  0.13270  Biso   1.000  H
  C43      1.0000 0.21630  0.64647  0.13620  Biso   1.000  C
  C44      1.0000 0.13740  0.65989  0.17760  Biso   1.000  C
  H12      1.0000 0.09830  0.69410  0.16480  Biso   1.000  H
  C45      1.0000 0.11520  0.62266  0.23860  Biso   1.000  C
  C46      1.0000 0.02180  0.63360  0.27730  Biso   1.000  C
  C47      1.0000 0.13830  0.43300  0.54450  Biso   1.000  C
  C48      1.0000 0.23760  0.68590  0.06900  Biso   1.000  C
  C49      1.0000 0.42980  0.78780  0.34330  Biso   1.000  C
  C50      1.0000 0.51060  0.80034  0.29190  Biso   1.000  C
  C51      1.0000 0.48560  0.79160  0.21000  Biso   1.000  C
  H13      1.0000 0.42170  0.77510  0.18840  Biso   1.000  H
  C52      1.0000 0.55430  0.80708  0.15910  Biso   1.000  C
  C53      1.0000 0.65130  0.82896  0.19230  Biso   1.000  C
  H14      1.0000 0.69850  0.83950  0.15930  Biso   1.000  H
  C54      1.0000 0.67730  0.83498  0.27470  Biso   1.000  C
  C55      1.0000 0.60740  0.82218  0.32720  Biso   1.000  C
  C56      1.0000 0.63520  0.82483  0.41650  Biso   1.000  C
  C57      1.0000 0.59880  0.86850  0.46530  Biso   1.000  C
  C58      1.0000 0.62740  0.86970  0.54690  Biso   1.000  C
  H15      1.0000 0.60160  0.89910  0.57670  Biso   1.000  H
  C59      1.0000 0.69520  0.82721  0.58530  Biso   1.000  C
  C60      1.0000 0.73060  0.78288  0.53970  Biso   1.000  C
  H16      1.0000 0.77610  0.75420  0.56480  Biso   1.000  H
  C61      1.0000 0.69920  0.78096  0.45730  Biso   1.000  C
  C62      1.0000 0.73950  0.73145  0.41070  Biso   1.000  C
  C63      1.0000 0.51930  0.80200  0.07010  Biso   1.000  C
  C64      1.0000 0.73650  0.83120  0.67390  Biso   1.000  C
  Cd4      1.0000 0.51912  0.65403  0.39546  Biso   1.000  Cd
  Cd5      1.0000 0.83387  0.64649  0.32872  Biso   1.000  Cd
  Cd6      1.0000 0.30599  0.74815  0.45280  Biso   1.000  Cd
  N5       1.0000 0.03270  0.47030  0.25550  Biso   1.000  N
  N6       1.0000 0.33520  0.51545  0.24860  Biso   1.000  N
  N7       1.0000 0.52990  0.91640  0.42860  Biso   1.000  N
  N8       1.0000 0.78250  0.85890  0.30510  Biso   1.000  N
  O25      1.0000 0.24890  0.65436  0.45030  Biso   1.000  O
  O26      1.0000 0.36540  0.60485  0.39430  Biso   1.000  O
  O27      1.0000 0.06100  0.48337  0.19250  Biso   1.000  O
  O28      1.0000 0.95270  0.44090  0.25840  Biso   1.000  O
  O29      1.0000 0.07200  0.39447  0.54050  Biso   1.000  O
  O30      1.0000 0.20940  0.43921  0.60478  Biso   1.000  O
  O31      1.0000 0.01840  0.68019  0.31850  Biso   1.000  O
  O32      1.0000 0.95100  0.59645  0.26530  Biso   1.000  O
  O33      1.0000 0.30360  0.47058  0.27810  Biso   1.000  O
  O34      1.0000 0.42630  0.52362  0.24170  Biso   1.000  O
  O35      1.0000 0.28440  0.66355  0.01790  Biso   1.000  O
  O36      1.0000 0.20860  0.73798  0.06600  Biso   1.000  O
  O37      1.0000 0.41650  0.73406  0.36240  Biso   1.000  O
  O38      1.0000 0.38080  0.82780  0.36650  Biso   1.000  O
  O39      1.0000 0.79860  0.88210  0.37080  Biso   1.000  O
  O40      1.0000 0.84760  0.85388  0.26310  Biso   1.000  O
  O41      1.0000 0.56530  0.83265  0.02655  Biso   1.000  O
  O42      1.0000 0.44640  0.76700  0.04700  Biso   1.000  O
  O43      1.0000 0.67900  0.69253  0.37774  Biso   1.000  O
  O44      1.0000 0.83420  0.73099  0.40750  Biso   1.000  O
  O45      1.0000 0.53680  0.93280  0.36150  Biso   1.000  O
  O46      1.0000 0.47140  0.93810  0.46830  Biso   1.000  O
  O47      1.0000 0.80240  0.79502  0.70537  Biso   1.000  O
  O48      1.0000 0.70460  0.87336  0.71397  Biso   1.000  O
  C65      1.0000 0.28170  0.89029  0.91960  Biso   1.000  C
  C66      1.0000 0.21290  0.94431  0.91010  Biso   1.000  C
  C67      1.0000 0.20060  0.97709  0.97930  Biso   1.000  C
  H17      1.0000 0.23350  0.96420  0.02950  Biso   1.000  H
  C68      1.0000 0.14090  0.02740  0.97350  Biso   1.000  C
  C69      1.0000 0.08230  0.04340  0.89920  Biso   1.000  C
  H18      1.0000 0.03620  0.07510  0.89510  Biso   1.000  H
  C70      1.0000 0.09470  0.01070  0.83190  Biso   1.000  C
  C71      1.0000 0.16070  0.96277  0.83450  Biso   1.000  C
  C72      1.0000 0.17860  0.92741  0.76280  Biso   1.000  C
  C73      1.0000 0.26130  0.93679  0.72240  Biso   1.000  C
  C74      1.0000 0.28010  0.90145  0.65920  Biso   1.000  C
  H19      1.0000 0.33510  0.91000  0.63270  Biso   1.000  H
  C75      1.0000 0.21630  0.85353  0.63620  Biso   1.000  C
  C76      1.0000 0.13740  0.84011  0.67760  Biso   1.000  C
  H20      1.0000 0.09830  0.80590  0.66480  Biso   1.000  H
  C77      1.0000 0.11520  0.87734  0.73860  Biso   1.000  C
  C78      1.0000 0.02180  0.86640  0.77730  Biso   1.000  C
  C79      1.0000 0.13830  0.06700  0.04450  Biso   1.000  C
  C80      1.0000 0.23760  0.81410  0.56900  Biso   1.000  C
  C81      1.0000 0.42980  0.71220  0.84330  Biso   1.000  C
  C82      1.0000 0.51060  0.69966  0.79190  Biso   1.000  C
  C83      1.0000 0.48560  0.70840  0.71000  Biso   1.000  C
  H21      1.0000 0.42170  0.72490  0.68840  Biso   1.000  H
  C84      1.0000 0.55430  0.69292  0.65910  Biso   1.000  C
  C85      1.0000 0.65130  0.67104  0.69230  Biso   1.000  C
  H22      1.0000 0.69850  0.66050  0.65930  Biso   1.000  H
  C86      1.0000 0.67730  0.66502  0.77470  Biso   1.000  C
  C87      1.0000 0.60740  0.67782  0.82720  Biso   1.000  C
  C88      1.0000 0.63520  0.67517  0.91650  Biso   1.000  C
  C89      1.0000 0.59880  0.63150  0.96530  Biso   1.000  C
  C90      1.0000 0.62740  0.63030  0.04690  Biso   1.000  C
  H23      1.0000 0.60160  0.60090  0.07670  Biso   1.000  H
  C91      1.0000 0.69520  0.67279  0.08530  Biso   1.000  C
  C92      1.0000 0.73060  0.71712  0.03970  Biso   1.000  C
  H24      1.0000 0.77610  0.74580  0.06480  Biso   1.000  H
  C93      1.0000 0.69920  0.71904  0.95730  Biso   1.000  C
  C94      1.0000 0.73950  0.76855  0.91070  Biso   1.000  C
  C95      1.0000 0.51930  0.69800  0.57010  Biso   1.000  C
  C96      1.0000 0.73650  0.66880  0.17390  Biso   1.000  C
  Cd7      1.0000 0.51912  0.84597  0.89546  Biso   1.000  Cd
  Cd8      1.0000 0.83387  0.85351  0.82872  Biso   1.000  Cd
  Cd9      1.0000 0.30599  0.75185  0.95280  Biso   1.000  Cd
  N9       1.0000 0.03270  0.02970  0.75550  Biso   1.000  N
  N10      1.0000 0.33520  0.98455  0.74860  Biso   1.000  N
  N11      1.0000 0.52990  0.58360  0.92860  Biso   1.000  N
  N12      1.0000 0.78250  0.64110  0.80510  Biso   1.000  N
  O49      1.0000 0.24890  0.84564  0.95030  Biso   1.000  O
  O50      1.0000 0.36540  0.89515  0.89430  Biso   1.000  O
  O51      1.0000 0.06100  0.01663  0.69250  Biso   1.000  O
  O52      1.0000 0.95270  0.05910  0.75840  Biso   1.000  O
  O53      1.0000 0.07200  0.10553  0.04050  Biso   1.000  O
  O54      1.0000 0.20940  0.06079  0.10478  Biso   1.000  O
  O55      1.0000 0.01840  0.81981  0.81850  Biso   1.000  O
  O56      1.0000 0.95100  0.90355  0.76530  Biso   1.000  O
  O57      1.0000 0.30360  0.02942  0.77810  Biso   1.000  O
  O58      1.0000 0.42630  0.97638  0.74170  Biso   1.000  O
  O59      1.0000 0.28440  0.83645  0.51790  Biso   1.000  O
  O60      1.0000 0.20860  0.76202  0.56600  Biso   1.000  O
  O61      1.0000 0.41650  0.76594  0.86240  Biso   1.000  O
  O62      1.0000 0.38080  0.67220  0.86650  Biso   1.000  O
  O63      1.0000 0.79860  0.61790  0.87080  Biso   1.000  O
  O64      1.0000 0.84760  0.64612  0.76310  Biso   1.000  O
  O65      1.0000 0.56530  0.66735  0.52655  Biso   1.000  O
  O66      1.0000 0.44640  0.73300  0.54700  Biso   1.000  O
  O67      1.0000 0.67900  0.80747  0.87774  Biso   1.000  O
  O68      1.0000 0.83420  0.76901  0.90750  Biso   1.000  O
  O69      1.0000 0.53680  0.56720  0.86150  Biso   1.000  O
  O70      1.0000 0.47140  0.56190  0.96830  Biso   1.000  O
  O71      1.0000 0.80240  0.70498  0.20537  Biso   1.000  O
  O72      1.0000 0.70460  0.62664  0.21397  Biso   1.000  O
  C97      1.0000 0.71830  0.39029  0.58040  Biso   1.000  C
  C98      1.0000 0.78710  0.44431  0.58990  Biso   1.000  C
  C99      1.0000 0.79940  0.47709  0.52070  Biso   1.000  C
  H25      1.0000 0.76650  0.46420  0.47050  Biso   1.000  H
  C100     1.0000 0.85910  0.52740  0.52650  Biso   1.000  C
  C101     1.0000 0.91770  0.54340  0.60080  Biso   1.000  C
  H26      1.0000 0.96380  0.57510  0.60490  Biso   1.000  H
  C102     1.0000 0.90530  0.51070  0.66810  Biso   1.000  C
  C103     1.0000 0.83930  0.46277  0.66550  Biso   1.000  C
  C104     1.0000 0.82140  0.42741  0.73720  Biso   1.000  C
  C105     1.0000 0.73870  0.43679  0.77760  Biso   1.000  C
  C106     1.0000 0.71990  0.40145  0.84080  Biso   1.000  C
  H27      1.0000 0.66490  0.41000  0.86730  Biso   1.000  H
  C107     1.0000 0.78370  0.35353  0.86380  Biso   1.000  C
  C108     1.0000 0.86260  0.34011  0.82240  Biso   1.000  C
  H28      1.0000 0.90170  0.30590  0.83520  Biso   1.000  H
  C109     1.0000 0.88480  0.37734  0.76140  Biso   1.000  C
  C110     1.0000 0.97820  0.36640  0.72270  Biso   1.000  C
  C111     1.0000 0.86170  0.56700  0.45550  Biso   1.000  C
  C112     1.0000 0.76240  0.31410  0.93100  Biso   1.000  C
  C113     1.0000 0.57020  0.21220  0.65670  Biso   1.000  C
  C114     1.0000 0.48940  0.19966  0.70810  Biso   1.000  C
  C115     1.0000 0.51440  0.20840  0.79000  Biso   1.000  C
  H29      1.0000 0.57830  0.22490  0.81160  Biso   1.000  H
  C116     1.0000 0.44570  0.19292  0.84090  Biso   1.000  C
  C117     1.0000 0.34870  0.17104  0.80770  Biso   1.000  C
  H30      1.0000 0.30150  0.16050  0.84070  Biso   1.000  H
  C118     1.0000 0.32270  0.16502  0.72530  Biso   1.000  C
  C119     1.0000 0.39260  0.17782  0.67280  Biso   1.000  C
  C120     1.0000 0.36480  0.17517  0.58350  Biso   1.000  C
  C121     1.0000 0.40120  0.13150  0.53470  Biso   1.000  C
  C122     1.0000 0.37260  0.13030  0.45310  Biso   1.000  C
  H31      1.0000 0.39840  0.10090  0.42330  Biso   1.000  H
  C123     1.0000 0.30480  0.17279  0.41470  Biso   1.000  C
  C124     1.0000 0.26940  0.21712  0.46030  Biso   1.000  C
  H32      1.0000 0.22390  0.24580  0.43520  Biso   1.000  H
  C125     1.0000 0.30080  0.21904  0.54270  Biso   1.000  C
  C126     1.0000 0.26050  0.26855  0.58930  Biso   1.000  C
  C127     1.0000 0.48070  0.19800  0.92990  Biso   1.000  C
  C128     1.0000 0.26350  0.16880  0.32610  Biso   1.000  C
  Cd10     1.0000 0.48088  0.34597  0.60454  Biso   1.000  Cd
  Cd11     1.0000 0.16613  0.35351  0.67128  Biso   1.000  Cd
  Cd12     1.0000 0.69401  0.25185  0.54720  Biso   1.000  Cd
  N13      1.0000 0.96730  0.52970  0.74450  Biso   1.000  N
  N14      1.0000 0.66480  0.48455  0.75140  Biso   1.000  N
  N15      1.0000 0.47010  0.08360  0.57140  Biso   1.000  N
  N16      1.0000 0.21750  0.14110  0.69490  Biso   1.000  N
  O73      1.0000 0.75110  0.34564  0.54970  Biso   1.000  O
  O74      1.0000 0.63460  0.39515  0.60570  Biso   1.000  O
  O75      1.0000 0.93900  0.51663  0.80750  Biso   1.000  O
  O76      1.0000 0.04730  0.55910  0.74160  Biso   1.000  O
  O77      1.0000 0.92800  0.60553  0.45950  Biso   1.000  O
  O78      1.0000 0.79060  0.56079  0.39522  Biso   1.000  O
  O79      1.0000 0.98160  0.31981  0.68150  Biso   1.000  O
  O80      1.0000 0.04900  0.40355  0.73470  Biso   1.000  O
  O81      1.0000 0.69640  0.52942  0.72190  Biso   1.000  O
  O82      1.0000 0.57370  0.47638  0.75830  Biso   1.000  O
  O83      1.0000 0.71560  0.33645  0.98210  Biso   1.000  O
  O84      1.0000 0.79140  0.26202  0.93400  Biso   1.000  O
  O85      1.0000 0.58350  0.26594  0.63760  Biso   1.000  O
  O86      1.0000 0.61920  0.17220  0.63350  Biso   1.000  O
  O87      1.0000 0.20140  0.11790  0.62920  Biso   1.000  O
  O88      1.0000 0.15240  0.14612  0.73690  Biso   1.000  O
  O89      1.0000 0.43470  0.16735  0.97345  Biso   1.000  O
  O90      1.0000 0.55360  0.23300  0.95300  Biso   1.000  O
  O91      1.0000 0.32100  0.30747  0.62226  Biso   1.000  O
  O92      1.0000 0.16580  0.26901  0.59250  Biso   1.000  O
  O93      1.0000 0.46320  0.06720  0.63850  Biso   1.000  O
  O94      1.0000 0.52860  0.06190  0.53170  Biso   1.000  O
  O95      1.0000 0.19760  0.20498  0.29463  Biso   1.000  O
  O96      1.0000 0.29540  0.12664  0.28603  Biso   1.000  O
