data_UKIQIP_clean
_audit_creation_date              2014-07-02
_audit_creation_method            'Materials Studio'
_symmetry_space_group_name_H-M    'P1'
_symmetry_Int_Tables_number       1
_symmetry_cell_setting            triclinic
loop_
_symmetry_equiv_pos_as_xyz
  x,y,z
_cell_length_a                    14.8229
_cell_length_b                    19.2130
_cell_length_c                    19.2130
_cell_angle_alpha                 66.3720
_cell_angle_beta                  75.0979
_cell_angle_gamma                 104.9020
loop_
_atom_site_label
_atom_site_type_symbol
_atom_site_fract_x
_atom_site_fract_y
_atom_site_fract_z
_atom_site_U_iso_or_equiv
_atom_site_adp_type
_atom_site_occupancy
Mn1    Mn    0.92369   0.04235   0.67154   0.01267  Uiso   1.00
Mn2    Mn    0.59523   0.67154   0.28611   0.01267  Uiso   1.00
Mn3    Mn    0.88134   0.28611   0.04235   0.01267  Uiso   1.00
Mn4    Mn    0.07631   0.95765   0.32846   0.01267  Uiso   1.00
Mn5    Mn    0.40477   0.32846   0.71389   0.01267  Uiso   1.00
Mn6    Mn    0.11866   0.71389   0.95765   0.01267  Uiso   1.00
Mn7    Mn    0.00000   0.00000   0.50000   0.01267  Uiso   1.00
Mn8    Mn    0.50000   0.50000   0.50000   0.01267  Uiso   1.00
Mn9    Mn    0.00000   0.50000   0.00000   0.01267  Uiso   1.00
H1     H     0.73200   0.63490   0.54900   0.01267  Uiso   1.00
H2     H     0.85500   0.71350   0.58200   0.01267  Uiso   1.00
H3     H     0.59790   0.45330   0.78020   0.01267  Uiso   1.00
H4     H     0.70300   0.52380   0.82310   0.01267  Uiso   1.00
H5     H     0.97140   0.80870   0.81280   0.01267  Uiso   1.00
H6     H     0.84150   0.79320   0.65750   0.01267  Uiso   1.00
H7     H     0.86910   0.58990   0.81630   0.01267  Uiso   1.00
H8     H     0.28100   0.54900   0.81610   0.01267  Uiso   1.00
H9     H     0.43700   0.58200   0.70450   0.01267  Uiso   1.00
H10    H     0.37810   0.78020   0.76650   0.01267  Uiso   1.00
H11    H     0.52610   0.82310   0.65310   0.01267  Uiso   1.00
H12    H     0.78420   0.81280   0.37850   0.01267  Uiso   1.00
H13    H     0.49900   0.65750   0.54930   0.01267  Uiso   1.00
H14    H     0.68540   0.81630   0.59380   0.01267  Uiso   1.00
H15    H     0.09710   0.81610   0.63490   0.01267  Uiso   1.00
H16    H     0.14150   0.70450   0.71350   0.01267  Uiso   1.00
H17    H     0.14460   0.76650   0.45330   0.01267  Uiso   1.00
H18    H     0.17920   0.65310   0.52380   0.01267  Uiso   1.00
H19    H     0.16270   0.37850   0.80870   0.01267  Uiso   1.00
H20    H     0.04830   0.54930   0.79320   0.01267  Uiso   1.00
H21    H     0.27920   0.59380   0.58990   0.01267  Uiso   1.00
H22    H     0.26800   0.36510   0.45100   0.01267  Uiso   1.00
H23    H     0.14500   0.28650   0.41800   0.01267  Uiso   1.00
H24    H     0.40210   0.54670   0.21980   0.01267  Uiso   1.00
H25    H     0.29700   0.47620   0.17690   0.01267  Uiso   1.00
H26    H     0.02860   0.19130   0.18720   0.01267  Uiso   1.00
H27    H     0.15850   0.20680   0.34250   0.01267  Uiso   1.00
H28    H     0.13090   0.41010   0.18370   0.01267  Uiso   1.00
H29    H     0.71900   0.45100   0.18390   0.01267  Uiso   1.00
H30    H     0.56300   0.41800   0.29550   0.01267  Uiso   1.00
H31    H     0.62190   0.21980   0.23350   0.01267  Uiso   1.00
H32    H     0.47390   0.17690   0.34690   0.01267  Uiso   1.00
H33    H     0.21580   0.18720   0.62150   0.01267  Uiso   1.00
H34    H     0.50100   0.34250   0.45070   0.01267  Uiso   1.00
H35    H     0.31460   0.18370   0.40620   0.01267  Uiso   1.00
H36    H     0.90290   0.18390   0.36510   0.01267  Uiso   1.00
H37    H     0.85850   0.29550   0.28650   0.01267  Uiso   1.00
H38    H     0.85540   0.23350   0.54670   0.01267  Uiso   1.00
H39    H     0.82080   0.34690   0.47620   0.01267  Uiso   1.00
H40    H     0.83730   0.62150   0.19130   0.01267  Uiso   1.00
H41    H     0.95170   0.45070   0.20680   0.01267  Uiso   1.00
H42    H     0.72080   0.40620   0.41010   0.01267  Uiso   1.00
C1     C     0.58870   0.48670   0.63780   0.01267  Uiso   1.00
C2     C     0.65860   0.53530   0.66300   0.01267  Uiso   1.00
C3     C     0.72930   0.61320   0.60260   0.01267  Uiso   1.00
C4     C     0.80160   0.66280   0.62250   0.01267  Uiso   1.00
C5     C     0.78380   0.62780   0.70780   0.01267  Uiso   1.00
C6     C     0.64900   0.50570   0.74080   0.01267  Uiso   1.00
C7     C     0.71060   0.54790   0.76800   0.01267  Uiso   1.00
C8     C     0.96730   0.65390   0.88810   0.01267  Uiso   1.00
C9     C     0.92530   0.69010   0.82350   0.01267  Uiso   1.00
C10    C     0.93950   0.77800   0.79230   0.01267  Uiso   1.00
C11    C     0.90530   0.81330   0.73340   0.01267  Uiso   1.00
C12    C     0.86090   0.76810   0.70020   0.01267  Uiso   1.00
C13    C     0.84530   0.68200   0.73290   0.01267  Uiso   1.00
C14    C     0.87910   0.64550   0.79510   0.01267  Uiso   1.00
C15    C     0.91440   0.90020   0.70180   0.01267  Uiso   1.00
C16    C     0.22650   0.63780   0.87550   0.01267  Uiso   1.00
C17    C     0.32160   0.66300   0.80170   0.01267  Uiso   1.00
C18    C     0.33190   0.60260   0.78420   0.01267  Uiso   1.00
C19    C     0.42410   0.62250   0.71470   0.01267  Uiso   1.00
C20    C     0.49160   0.70780   0.66440   0.01267  Uiso   1.00
C21    C     0.38980   0.74080   0.75350   0.01267  Uiso   1.00
C22    C     0.47860   0.76800   0.68410   0.01267  Uiso   1.00
C23    C     0.85540   0.88810   0.45800   0.01267  Uiso   1.00
C24    C     0.74880   0.82350   0.48640   0.01267  Uiso   1.00
C25    C     0.73180   0.79230   0.42970   0.01267  Uiso   1.00
C26    C     0.63870   0.73340   0.45330   0.01267  Uiso   1.00
C27    C     0.56110   0.70020   0.53170   0.01267  Uiso   1.00
C28    C     0.57820   0.73290   0.58510   0.01267  Uiso   1.00
C29    C     0.67420   0.79510   0.55940   0.01267  Uiso   1.00
C30    C     0.61620   0.70180   0.39800   0.01267  Uiso   1.00
C31    C     0.10200   0.87550   0.48670   0.01267  Uiso   1.00
C32    C     0.12330   0.80170   0.53530   0.01267  Uiso   1.00
C33    C     0.11610   0.78420   0.61320   0.01267  Uiso   1.00
C34    C     0.13880   0.71470   0.66280   0.01267  Uiso   1.00
C35    C     0.15600   0.66440   0.62780   0.01267  Uiso   1.00
C36    C     0.14330   0.75350   0.50570   0.01267  Uiso   1.00
C37    C     0.16270   0.68410   0.54790   0.01267  Uiso   1.00
C38    C     0.31340   0.45800   0.65390   0.01267  Uiso   1.00
C39    C     0.23520   0.48640   0.69010   0.01267  Uiso   1.00
C40    C     0.16150   0.42970   0.77800   0.01267  Uiso   1.00
C41    C     0.09200   0.45330   0.81330   0.01267  Uiso   1.00
C42    C     0.09280   0.53170   0.76810   0.01267  Uiso   1.00
C43    C     0.16330   0.58510   0.68200   0.01267  Uiso   1.00
C44    C     0.23360   0.55940   0.64550   0.01267  Uiso   1.00
C45    C     0.01420   0.39800   0.90020   0.01267  Uiso   1.00
C46    C     0.41130   0.51330   0.36220   0.01267  Uiso   1.00
C47    C     0.34140   0.46470   0.33700   0.01267  Uiso   1.00
C48    C     0.27070   0.38680   0.39740   0.01267  Uiso   1.00
C49    C     0.19840   0.33720   0.37750   0.01267  Uiso   1.00
C50    C     0.21620   0.37220   0.29220   0.01267  Uiso   1.00
C51    C     0.35100   0.49430   0.25920   0.01267  Uiso   1.00
C52    C     0.28940   0.45210   0.23200   0.01267  Uiso   1.00
C53    C     0.03270   0.34610   0.11190   0.01267  Uiso   1.00
C54    C     0.07470   0.30990   0.17650   0.01267  Uiso   1.00
C55    C     0.06050   0.22200   0.20770   0.01267  Uiso   1.00
C56    C     0.09470   0.18670   0.26660   0.01267  Uiso   1.00
C57    C     0.13910   0.23190   0.29980   0.01267  Uiso   1.00
C58    C     0.15470   0.31800   0.26710   0.01267  Uiso   1.00
C59    C     0.12090   0.35450   0.20490   0.01267  Uiso   1.00
C60    C     0.08560   0.09980   0.29820   0.01267  Uiso   1.00
C61    C     0.77350   0.36220   0.12450   0.01267  Uiso   1.00
C62    C     0.67840   0.33700   0.19830   0.01267  Uiso   1.00
C63    C     0.66810   0.39740   0.21580   0.01267  Uiso   1.00
C64    C     0.57590   0.37750   0.28530   0.01267  Uiso   1.00
C65    C     0.50840   0.29220   0.33560   0.01267  Uiso   1.00
C66    C     0.61020   0.25920   0.24650   0.01267  Uiso   1.00
C67    C     0.52140   0.23200   0.31590   0.01267  Uiso   1.00
C68    C     0.14460   0.11190   0.54200   0.01267  Uiso   1.00
C69    C     0.25120   0.17650   0.51360   0.01267  Uiso   1.00
C70    C     0.26820   0.20770   0.57030   0.01267  Uiso   1.00
C71    C     0.36130   0.26660   0.54670   0.01267  Uiso   1.00
C72    C     0.43890   0.29980   0.46830   0.01267  Uiso   1.00
C73    C     0.42180   0.26710   0.41490   0.01267  Uiso   1.00
C74    C     0.32580   0.20490   0.44060   0.01267  Uiso   1.00
C75    C     0.38380   0.29820   0.60200   0.01267  Uiso   1.00
C76    C     0.89800   0.12450   0.51330   0.01267  Uiso   1.00
C77    C     0.87670   0.19830   0.46470   0.01267  Uiso   1.00
C78    C     0.88390   0.21580   0.38680   0.01267  Uiso   1.00
C79    C     0.86120   0.28530   0.33720   0.01267  Uiso   1.00
C80    C     0.84400   0.33560   0.37220   0.01267  Uiso   1.00
C81    C     0.85670   0.24650   0.49430   0.01267  Uiso   1.00
C82    C     0.83730   0.31590   0.45210   0.01267  Uiso   1.00
C83    C     0.68660   0.54200   0.34610   0.01267  Uiso   1.00
C84    C     0.76480   0.51360   0.30990   0.01267  Uiso   1.00
C85    C     0.83850   0.57030   0.22200   0.01267  Uiso   1.00
C86    C     0.90800   0.54670   0.18670   0.01267  Uiso   1.00
C87    C     0.90720   0.46830   0.23190   0.01267  Uiso   1.00
C88    C     0.83670   0.41490   0.31800   0.01267  Uiso   1.00
C89    C     0.76640   0.44060   0.35450   0.01267  Uiso   1.00
C90    C     0.98580   0.60200   0.09980   0.01267  Uiso   1.00
O1     O     0.91030   0.94160   0.63460   0.01267  Uiso   1.00
O2     O     0.95690   0.58080   0.91610   0.01267  Uiso   1.00
O3     O     0.58790   0.51900   0.56960   0.01267  Uiso   1.00
O4     O     0.52700   0.41550   0.69560   0.01267  Uiso   1.00
O5     O     0.01570   0.70850   0.90280   0.01267  Uiso   1.00
O6     O     0.92200   0.92540   0.75310   0.01267  Uiso   1.00
O7     O     0.54490   0.63460   0.42380   0.01267  Uiso   1.00
O8     O     0.87300   0.91610   0.50310   0.01267  Uiso   1.00
O9     O     0.15750   0.56960   0.91140   0.01267  Uiso   1.00
O10    O     0.22260   0.69560   0.88890   0.01267  Uiso   1.00
O11    O     0.91850   0.90280   0.38870   0.01267  Uiso   1.00
O12    O     0.67510   0.75310   0.32150   0.01267  Uiso   1.00
O13    O     0.96870   0.42380   0.94160   0.01267  Uiso   1.00
O14    O     0.37610   0.50310   0.58080   0.01267  Uiso   1.00
O15    O     0.06890   0.91140   0.51900   0.01267  Uiso   1.00
O16    O     0.11150   0.88890   0.41550   0.01267  Uiso   1.00
O17    O     0.30720   0.38870   0.70850   0.01267  Uiso   1.00
O18    O     0.99660   0.32150   0.92540   0.01267  Uiso   1.00
O19    O     0.08970   0.05840   0.36540   0.01267  Uiso   1.00
O20    O     0.04310   0.41920   0.08390   0.01267  Uiso   1.00
O21    O     0.41210   0.48100   0.43040   0.01267  Uiso   1.00
O22    O     0.47300   0.58450   0.30440   0.01267  Uiso   1.00
O23    O     0.98430   0.29150   0.09720   0.01267  Uiso   1.00
O24    O     0.07800   0.07460   0.24690   0.01267  Uiso   1.00
O25    O     0.45510   0.36540   0.57620   0.01267  Uiso   1.00
O26    O     0.12700   0.08390   0.49690   0.01267  Uiso   1.00
O27    O     0.84250   0.43040   0.08860   0.01267  Uiso   1.00
O28    O     0.77740   0.30440   0.11110   0.01267  Uiso   1.00
O29    O     0.08150   0.09720   0.61130   0.01267  Uiso   1.00
O30    O     0.32490   0.24690   0.67850   0.01267  Uiso   1.00
O31    O     0.03130   0.57620   0.05840   0.01267  Uiso   1.00
O32    O     0.62390   0.49690   0.41920   0.01267  Uiso   1.00
O33    O     0.93110   0.08860   0.48100   0.01267  Uiso   1.00
O34    O     0.88850   0.11110   0.58450   0.01267  Uiso   1.00
O35    O     0.69280   0.61130   0.29150   0.01267  Uiso   1.00
O36    O     0.00340   0.67850   0.07460   0.01267  Uiso   1.00
