data_UKIQOV_clean
_audit_creation_date              2014-07-02
_audit_creation_method            'Materials Studio'
_symmetry_space_group_name_H-M    'P1'
_symmetry_Int_Tables_number       1
_symmetry_cell_setting            triclinic
loop_
_symmetry_equiv_pos_as_xyz
  x,y,z
_cell_length_a                    18.4310
_cell_length_b                    18.4310
_cell_length_c                    40.5200
_cell_angle_alpha                 90.0000
_cell_angle_beta                  90.0000
_cell_angle_gamma                 120.0000
loop_
_atom_site_label
_atom_site_type_symbol
_atom_site_fract_x
_atom_site_fract_y
_atom_site_fract_z
_atom_site_U_iso_or_equiv
_atom_site_adp_type
_atom_site_occupancy
Co1    Co    0.11626   0.05813   0.75000   0.01267  Uiso   1.00
Co2    Co    0.94187   0.88374   0.75000   0.01267  Uiso   1.00
Co3    Co    0.94187   0.05813   0.75000   0.01267  Uiso   1.00
Co4    Co    0.88374   0.94187   0.25000   0.01267  Uiso   1.00
Co5    Co    0.05813   0.11626   0.25000   0.01267  Uiso   1.00
Co6    Co    0.05813   0.94187   0.25000   0.01267  Uiso   1.00
Cu1    Cu    0.47607   0.52393   0.47399   0.01267  Uiso   1.00
Cu2    Cu    0.04786   0.52393   0.47399   0.01267  Uiso   1.00
Cu3    Cu    0.47607   0.95214   0.47399   0.01267  Uiso   1.00
Cu4    Cu    0.52393   0.47607   0.97399   0.01267  Uiso   1.00
Cu5    Cu    0.95214   0.47607   0.97399   0.01267  Uiso   1.00
Cu6    Cu    0.52393   0.04786   0.97399   0.01267  Uiso   1.00
Cu7    Cu    0.95214   0.47607   0.52601   0.01267  Uiso   1.00
Cu8    Cu    0.52393   0.47607   0.52601   0.01267  Uiso   1.00
Cu9    Cu    0.52393   0.04786   0.52601   0.01267  Uiso   1.00
Cu10   Cu    0.04786   0.52393   0.02601   0.01267  Uiso   1.00
Cu11   Cu    0.47607   0.52393   0.02601   0.01267  Uiso   1.00
Cu12   Cu    0.47607   0.95214   0.02601   0.01267  Uiso   1.00
H1     H     0.29260   0.36720   0.58260   0.01267  Uiso   1.00
H2     H     0.04360   0.28920   0.61990   0.01267  Uiso   1.00
H3     H     0.01140   0.22340   0.67320   0.01267  Uiso   1.00
H4     H     0.07460   0.70740   0.58260   0.01267  Uiso   1.00
H5     H     0.24560   0.95640   0.61990   0.01267  Uiso   1.00
H6     H     0.21200   0.98860   0.67320   0.01267  Uiso   1.00
H7     H     0.63280   0.92540   0.58260   0.01267  Uiso   1.00
H8     H     0.71080   0.75440   0.61990   0.01267  Uiso   1.00
H9     H     0.77660   0.78800   0.67320   0.01267  Uiso   1.00
H10    H     0.70740   0.63280   0.08260   0.01267  Uiso   1.00
H11    H     0.95640   0.71080   0.11990   0.01267  Uiso   1.00
H12    H     0.98860   0.77660   0.17320   0.01267  Uiso   1.00
H13    H     0.92540   0.29260   0.08260   0.01267  Uiso   1.00
H14    H     0.75440   0.04360   0.11990   0.01267  Uiso   1.00
H15    H     0.78800   0.01140   0.17320   0.01267  Uiso   1.00
H16    H     0.36720   0.07460   0.08260   0.01267  Uiso   1.00
H17    H     0.28920   0.24560   0.11990   0.01267  Uiso   1.00
H18    H     0.22340   0.21200   0.17320   0.01267  Uiso   1.00
H19    H     0.92540   0.63280   0.41740   0.01267  Uiso   1.00
H20    H     0.75440   0.71080   0.38010   0.01267  Uiso   1.00
H21    H     0.78800   0.77660   0.32680   0.01267  Uiso   1.00
H22    H     0.36720   0.29260   0.41740   0.01267  Uiso   1.00
H23    H     0.28920   0.04360   0.38010   0.01267  Uiso   1.00
H24    H     0.22340   0.01140   0.32680   0.01267  Uiso   1.00
H25    H     0.70740   0.07460   0.41740   0.01267  Uiso   1.00
H26    H     0.95640   0.24560   0.38010   0.01267  Uiso   1.00
H27    H     0.98860   0.21200   0.32680   0.01267  Uiso   1.00
H28    H     0.07460   0.36720   0.91740   0.01267  Uiso   1.00
H29    H     0.24560   0.28920   0.88010   0.01267  Uiso   1.00
H30    H     0.21200   0.22340   0.82680   0.01267  Uiso   1.00
H31    H     0.63280   0.70740   0.91740   0.01267  Uiso   1.00
H32    H     0.71080   0.95640   0.88010   0.01267  Uiso   1.00
H33    H     0.77660   0.98860   0.82680   0.01267  Uiso   1.00
H34    H     0.29260   0.92540   0.91740   0.01267  Uiso   1.00
H35    H     0.04360   0.75440   0.88010   0.01267  Uiso   1.00
H36    H     0.01140   0.78800   0.82680   0.01267  Uiso   1.00
H37    H     0.70740   0.63280   0.41740   0.01267  Uiso   1.00
H38    H     0.95640   0.71080   0.38010   0.01267  Uiso   1.00
H39    H     0.98860   0.77660   0.32680   0.01267  Uiso   1.00
H40    H     0.92540   0.29260   0.41740   0.01267  Uiso   1.00
H41    H     0.75440   0.04360   0.38010   0.01267  Uiso   1.00
H42    H     0.78800   0.01140   0.32680   0.01267  Uiso   1.00
H43    H     0.36720   0.07460   0.41740   0.01267  Uiso   1.00
H44    H     0.28920   0.24560   0.38010   0.01267  Uiso   1.00
H45    H     0.22340   0.21200   0.32680   0.01267  Uiso   1.00
H46    H     0.29260   0.36720   0.91740   0.01267  Uiso   1.00
H47    H     0.04360   0.28920   0.88010   0.01267  Uiso   1.00
H48    H     0.01140   0.22340   0.82680   0.01267  Uiso   1.00
H49    H     0.07460   0.70740   0.91740   0.01267  Uiso   1.00
H50    H     0.24560   0.95640   0.88010   0.01267  Uiso   1.00
H51    H     0.21200   0.98860   0.82680   0.01267  Uiso   1.00
H52    H     0.63280   0.92540   0.91740   0.01267  Uiso   1.00
H53    H     0.71080   0.75440   0.88010   0.01267  Uiso   1.00
H54    H     0.77660   0.78800   0.82680   0.01267  Uiso   1.00
H55    H     0.07460   0.36720   0.58260   0.01267  Uiso   1.00
H56    H     0.24560   0.28920   0.61990   0.01267  Uiso   1.00
H57    H     0.21200   0.22340   0.67320   0.01267  Uiso   1.00
H58    H     0.63280   0.70740   0.58260   0.01267  Uiso   1.00
H59    H     0.71080   0.95640   0.61990   0.01267  Uiso   1.00
H60    H     0.77660   0.98860   0.67320   0.01267  Uiso   1.00
H61    H     0.29260   0.92540   0.58260   0.01267  Uiso   1.00
H62    H     0.04360   0.75440   0.61990   0.01267  Uiso   1.00
H63    H     0.01140   0.78800   0.67320   0.01267  Uiso   1.00
H64    H     0.92540   0.63280   0.08260   0.01267  Uiso   1.00
H65    H     0.75440   0.71080   0.11990   0.01267  Uiso   1.00
H66    H     0.78800   0.77660   0.17320   0.01267  Uiso   1.00
H67    H     0.36720   0.29260   0.08260   0.01267  Uiso   1.00
H68    H     0.28920   0.04360   0.11990   0.01267  Uiso   1.00
H69    H     0.22340   0.01140   0.17320   0.01267  Uiso   1.00
H70    H     0.70740   0.07460   0.08260   0.01267  Uiso   1.00
H71    H     0.95640   0.24560   0.11990   0.01267  Uiso   1.00
H72    H     0.98860   0.21200   0.17320   0.01267  Uiso   1.00
H73    H     0.23650   0.47300   0.50860   0.01267  Uiso   1.00
H74    H     0.23650   0.76350   0.50860   0.01267  Uiso   1.00
H75    H     0.52700   0.76350   0.50860   0.01267  Uiso   1.00
H76    H     0.76350   0.52700   0.00860   0.01267  Uiso   1.00
H77    H     0.76350   0.23650   0.00860   0.01267  Uiso   1.00
H78    H     0.47300   0.23650   0.00860   0.01267  Uiso   1.00
H79    H     0.76350   0.52700   0.49140   0.01267  Uiso   1.00
H80    H     0.47300   0.23650   0.49140   0.01267  Uiso   1.00
H81    H     0.76350   0.23650   0.49140   0.01267  Uiso   1.00
H82    H     0.23650   0.47300   0.99140   0.01267  Uiso   1.00
H83    H     0.52700   0.76350   0.99140   0.01267  Uiso   1.00
H84    H     0.23650   0.76350   0.99140   0.01267  Uiso   1.00
C1     C     0.35810   0.44920   0.52660   0.01267  Uiso   1.00
C2     C     0.27780   0.42350   0.54290   0.01267  Uiso   1.00
C3     C     0.25540   0.38040   0.57245   0.01267  Uiso   1.00
C4     C     0.08320   0.28050   0.63060   0.01267  Uiso   1.00
C5     C     0.06050   0.23360   0.66280   0.01267  Uiso   1.00
C6     C     0.09110   0.64190   0.52660   0.01267  Uiso   1.00
C7     C     0.14570   0.72220   0.54290   0.01267  Uiso   1.00
C8     C     0.12500   0.74460   0.57245   0.01267  Uiso   1.00
C9     C     0.19730   0.91680   0.63060   0.01267  Uiso   1.00
C10    C     0.17310   0.93950   0.66280   0.01267  Uiso   1.00
C11    C     0.55080   0.90890   0.52660   0.01267  Uiso   1.00
C12    C     0.57650   0.85430   0.54290   0.01267  Uiso   1.00
C13    C     0.61960   0.87500   0.57245   0.01267  Uiso   1.00
C14    C     0.71950   0.80270   0.63060   0.01267  Uiso   1.00
C15    C     0.76640   0.82690   0.66280   0.01267  Uiso   1.00
C16    C     0.64190   0.55080   0.02660   0.01267  Uiso   1.00
C17    C     0.72220   0.57650   0.04290   0.01267  Uiso   1.00
C18    C     0.74460   0.61960   0.07245   0.01267  Uiso   1.00
C19    C     0.91680   0.71950   0.13060   0.01267  Uiso   1.00
C20    C     0.93950   0.76640   0.16280   0.01267  Uiso   1.00
C21    C     0.90890   0.35810   0.02660   0.01267  Uiso   1.00
C22    C     0.85430   0.27780   0.04290   0.01267  Uiso   1.00
C23    C     0.87500   0.25540   0.07245   0.01267  Uiso   1.00
C24    C     0.80270   0.08320   0.13060   0.01267  Uiso   1.00
C25    C     0.82690   0.06050   0.16280   0.01267  Uiso   1.00
C26    C     0.44920   0.09110   0.02660   0.01267  Uiso   1.00
C27    C     0.42350   0.14570   0.04290   0.01267  Uiso   1.00
C28    C     0.38040   0.12500   0.07245   0.01267  Uiso   1.00
C29    C     0.28050   0.19730   0.13060   0.01267  Uiso   1.00
C30    C     0.23360   0.17310   0.16280   0.01267  Uiso   1.00
C31    C     0.90890   0.55080   0.47340   0.01267  Uiso   1.00
C32    C     0.85430   0.57650   0.45710   0.01267  Uiso   1.00
C33    C     0.87500   0.61960   0.42755   0.01267  Uiso   1.00
C34    C     0.80270   0.71950   0.36940   0.01267  Uiso   1.00
C35    C     0.82690   0.76640   0.33720   0.01267  Uiso   1.00
C36    C     0.44920   0.35810   0.47340   0.01267  Uiso   1.00
C37    C     0.42350   0.27780   0.45710   0.01267  Uiso   1.00
C38    C     0.38040   0.25540   0.42755   0.01267  Uiso   1.00
C39    C     0.28050   0.08320   0.36940   0.01267  Uiso   1.00
C40    C     0.23360   0.06050   0.33720   0.01267  Uiso   1.00
C41    C     0.64190   0.09110   0.47340   0.01267  Uiso   1.00
C42    C     0.72220   0.14570   0.45710   0.01267  Uiso   1.00
C43    C     0.74460   0.12500   0.42755   0.01267  Uiso   1.00
C44    C     0.91680   0.19730   0.36940   0.01267  Uiso   1.00
C45    C     0.93950   0.17310   0.33720   0.01267  Uiso   1.00
C46    C     0.09110   0.44920   0.97340   0.01267  Uiso   1.00
C47    C     0.14570   0.42350   0.95710   0.01267  Uiso   1.00
C48    C     0.12500   0.38040   0.92755   0.01267  Uiso   1.00
C49    C     0.19730   0.28050   0.86940   0.01267  Uiso   1.00
C50    C     0.17310   0.23360   0.83720   0.01267  Uiso   1.00
C51    C     0.55080   0.64190   0.97340   0.01267  Uiso   1.00
C52    C     0.57650   0.72220   0.95710   0.01267  Uiso   1.00
C53    C     0.61960   0.74460   0.92755   0.01267  Uiso   1.00
C54    C     0.71950   0.91680   0.86940   0.01267  Uiso   1.00
C55    C     0.76640   0.93950   0.83720   0.01267  Uiso   1.00
C56    C     0.35810   0.90890   0.97340   0.01267  Uiso   1.00
C57    C     0.27780   0.85430   0.95710   0.01267  Uiso   1.00
C58    C     0.25540   0.87500   0.92755   0.01267  Uiso   1.00
C59    C     0.08320   0.80270   0.86940   0.01267  Uiso   1.00
C60    C     0.06050   0.82690   0.83720   0.01267  Uiso   1.00
C61    C     0.64190   0.55080   0.47340   0.01267  Uiso   1.00
C62    C     0.72220   0.57650   0.45710   0.01267  Uiso   1.00
C63    C     0.74460   0.61960   0.42755   0.01267  Uiso   1.00
C64    C     0.91680   0.71950   0.36940   0.01267  Uiso   1.00
C65    C     0.93950   0.76640   0.33720   0.01267  Uiso   1.00
C66    C     0.90890   0.35810   0.47340   0.01267  Uiso   1.00
C67    C     0.85430   0.27780   0.45710   0.01267  Uiso   1.00
C68    C     0.87500   0.25540   0.42755   0.01267  Uiso   1.00
C69    C     0.80270   0.08320   0.36940   0.01267  Uiso   1.00
C70    C     0.82690   0.06050   0.33720   0.01267  Uiso   1.00
C71    C     0.44920   0.09110   0.47340   0.01267  Uiso   1.00
C72    C     0.42350   0.14570   0.45710   0.01267  Uiso   1.00
C73    C     0.38040   0.12500   0.42755   0.01267  Uiso   1.00
C74    C     0.28050   0.19730   0.36940   0.01267  Uiso   1.00
C75    C     0.23360   0.17310   0.33720   0.01267  Uiso   1.00
C76    C     0.35810   0.44920   0.97340   0.01267  Uiso   1.00
C77    C     0.27780   0.42350   0.95710   0.01267  Uiso   1.00
C78    C     0.25540   0.38040   0.92755   0.01267  Uiso   1.00
C79    C     0.08320   0.28050   0.86940   0.01267  Uiso   1.00
C80    C     0.06050   0.23360   0.83720   0.01267  Uiso   1.00
C81    C     0.09110   0.64190   0.97340   0.01267  Uiso   1.00
C82    C     0.14570   0.72220   0.95710   0.01267  Uiso   1.00
C83    C     0.12500   0.74460   0.92755   0.01267  Uiso   1.00
C84    C     0.19730   0.91680   0.86940   0.01267  Uiso   1.00
C85    C     0.17310   0.93950   0.83720   0.01267  Uiso   1.00
C86    C     0.55080   0.90890   0.97340   0.01267  Uiso   1.00
C87    C     0.57650   0.85430   0.95710   0.01267  Uiso   1.00
C88    C     0.61960   0.87500   0.92755   0.01267  Uiso   1.00
C89    C     0.71950   0.80270   0.86940   0.01267  Uiso   1.00
C90    C     0.76640   0.82690   0.83720   0.01267  Uiso   1.00
C91    C     0.09110   0.44920   0.52660   0.01267  Uiso   1.00
C92    C     0.14570   0.42350   0.54290   0.01267  Uiso   1.00
C93    C     0.12500   0.38040   0.57245   0.01267  Uiso   1.00
C94    C     0.19730   0.28050   0.63060   0.01267  Uiso   1.00
C95    C     0.17310   0.23360   0.66280   0.01267  Uiso   1.00
C96    C     0.55080   0.64190   0.52660   0.01267  Uiso   1.00
C97    C     0.57650   0.72220   0.54290   0.01267  Uiso   1.00
C98    C     0.61960   0.74460   0.57245   0.01267  Uiso   1.00
C99    C     0.71950   0.91680   0.63060   0.01267  Uiso   1.00
C100   C     0.76640   0.93950   0.66280   0.01267  Uiso   1.00
C101   C     0.35810   0.90890   0.52660   0.01267  Uiso   1.00
C102   C     0.27780   0.85430   0.54290   0.01267  Uiso   1.00
C103   C     0.25540   0.87500   0.57245   0.01267  Uiso   1.00
C104   C     0.08320   0.80270   0.63060   0.01267  Uiso   1.00
C105   C     0.06050   0.82690   0.66280   0.01267  Uiso   1.00
C106   C     0.90890   0.55080   0.02660   0.01267  Uiso   1.00
C107   C     0.85430   0.57650   0.04290   0.01267  Uiso   1.00
C108   C     0.87500   0.61960   0.07245   0.01267  Uiso   1.00
C109   C     0.80270   0.71950   0.13060   0.01267  Uiso   1.00
C110   C     0.82690   0.76640   0.16280   0.01267  Uiso   1.00
C111   C     0.44920   0.35810   0.02660   0.01267  Uiso   1.00
C112   C     0.42350   0.27780   0.04290   0.01267  Uiso   1.00
C113   C     0.38040   0.25540   0.07245   0.01267  Uiso   1.00
C114   C     0.28050   0.08320   0.13060   0.01267  Uiso   1.00
C115   C     0.23360   0.06050   0.16280   0.01267  Uiso   1.00
C116   C     0.64190   0.09110   0.02660   0.01267  Uiso   1.00
C117   C     0.72220   0.14570   0.04290   0.01267  Uiso   1.00
C118   C     0.74460   0.12500   0.07245   0.01267  Uiso   1.00
C119   C     0.91680   0.19730   0.13060   0.01267  Uiso   1.00
C120   C     0.93950   0.17310   0.16280   0.01267  Uiso   1.00
C121   C     0.22210   0.44420   0.52860   0.01267  Uiso   1.00
C122   C     0.17800   0.35600   0.58760   0.01267  Uiso   1.00
C123   C     0.15400   0.30800   0.61800   0.01267  Uiso   1.00
C124   C     0.10390   0.20780   0.67600   0.01267  Uiso   1.00
C125   C     0.07680   0.15360   0.70430   0.01267  Uiso   1.00
C126   C     0.22210   0.77790   0.52860   0.01267  Uiso   1.00
C127   C     0.17800   0.82200   0.58760   0.01267  Uiso   1.00
C128   C     0.15400   0.84600   0.61800   0.01267  Uiso   1.00
C129   C     0.10390   0.89610   0.67600   0.01267  Uiso   1.00
C130   C     0.07680   0.92320   0.70430   0.01267  Uiso   1.00
C131   C     0.55580   0.77790   0.52860   0.01267  Uiso   1.00
C132   C     0.64400   0.82200   0.58760   0.01267  Uiso   1.00
C133   C     0.69200   0.84600   0.61800   0.01267  Uiso   1.00
C134   C     0.79220   0.89610   0.67600   0.01267  Uiso   1.00
C135   C     0.84640   0.92320   0.70430   0.01267  Uiso   1.00
C136   C     0.77790   0.55580   0.02860   0.01267  Uiso   1.00
C137   C     0.82200   0.64400   0.08760   0.01267  Uiso   1.00
C138   C     0.84600   0.69200   0.11800   0.01267  Uiso   1.00
C139   C     0.89610   0.79220   0.17600   0.01267  Uiso   1.00
C140   C     0.92320   0.84640   0.20430   0.01267  Uiso   1.00
C141   C     0.77790   0.22210   0.02860   0.01267  Uiso   1.00
C142   C     0.82200   0.17800   0.08760   0.01267  Uiso   1.00
C143   C     0.84600   0.15400   0.11800   0.01267  Uiso   1.00
C144   C     0.89610   0.10390   0.17600   0.01267  Uiso   1.00
C145   C     0.92320   0.07680   0.20430   0.01267  Uiso   1.00
C146   C     0.44420   0.22210   0.02860   0.01267  Uiso   1.00
C147   C     0.35600   0.17800   0.08760   0.01267  Uiso   1.00
C148   C     0.30800   0.15400   0.11800   0.01267  Uiso   1.00
C149   C     0.20780   0.10390   0.17600   0.01267  Uiso   1.00
C150   C     0.15360   0.07680   0.20430   0.01267  Uiso   1.00
C151   C     0.77790   0.55580   0.47140   0.01267  Uiso   1.00
C152   C     0.82200   0.64400   0.41240   0.01267  Uiso   1.00
C153   C     0.84600   0.69200   0.38200   0.01267  Uiso   1.00
C154   C     0.89610   0.79220   0.32400   0.01267  Uiso   1.00
C155   C     0.92320   0.84640   0.29570   0.01267  Uiso   1.00
C156   C     0.44420   0.22210   0.47140   0.01267  Uiso   1.00
C157   C     0.35600   0.17800   0.41240   0.01267  Uiso   1.00
C158   C     0.30800   0.15400   0.38200   0.01267  Uiso   1.00
C159   C     0.20780   0.10390   0.32400   0.01267  Uiso   1.00
C160   C     0.15360   0.07680   0.29570   0.01267  Uiso   1.00
C161   C     0.77790   0.22210   0.47140   0.01267  Uiso   1.00
C162   C     0.82200   0.17800   0.41240   0.01267  Uiso   1.00
C163   C     0.84600   0.15400   0.38200   0.01267  Uiso   1.00
C164   C     0.89610   0.10390   0.32400   0.01267  Uiso   1.00
C165   C     0.92320   0.07680   0.29570   0.01267  Uiso   1.00
C166   C     0.22210   0.44420   0.97140   0.01267  Uiso   1.00
C167   C     0.17800   0.35600   0.91240   0.01267  Uiso   1.00
C168   C     0.15400   0.30800   0.88200   0.01267  Uiso   1.00
C169   C     0.10390   0.20780   0.82400   0.01267  Uiso   1.00
C170   C     0.07680   0.15360   0.79570   0.01267  Uiso   1.00
C171   C     0.55580   0.77790   0.97140   0.01267  Uiso   1.00
C172   C     0.64400   0.82200   0.91240   0.01267  Uiso   1.00
C173   C     0.69200   0.84600   0.88200   0.01267  Uiso   1.00
C174   C     0.79220   0.89610   0.82400   0.01267  Uiso   1.00
C175   C     0.84640   0.92320   0.79570   0.01267  Uiso   1.00
C176   C     0.22210   0.77790   0.97140   0.01267  Uiso   1.00
C177   C     0.17800   0.82200   0.91240   0.01267  Uiso   1.00
C178   C     0.15400   0.84600   0.88200   0.01267  Uiso   1.00
C179   C     0.10390   0.89610   0.82400   0.01267  Uiso   1.00
C180   C     0.07680   0.92320   0.79570   0.01267  Uiso   1.00
O1     O     0.37180   0.48150   0.49767   0.01267  Uiso   1.00
O2     O     0.12220   0.13170   0.71525   0.01267  Uiso   1.00
O3     O     0.41150   0.43790   0.54332   0.01267  Uiso   1.00
O4     O     0.10970   0.62820   0.49767   0.01267  Uiso   1.00
O5     O     0.00950   0.87780   0.71525   0.01267  Uiso   1.00
O6     O     0.02640   0.58850   0.54332   0.01267  Uiso   1.00
O7     O     0.51850   0.89030   0.49767   0.01267  Uiso   1.00
O8     O     0.86830   0.99050   0.71525   0.01267  Uiso   1.00
O9     O     0.56210   0.97360   0.54332   0.01267  Uiso   1.00
O10    O     0.62820   0.51850   0.99767   0.01267  Uiso   1.00
O11    O     0.87780   0.86830   0.21525   0.01267  Uiso   1.00
O12    O     0.58850   0.56210   0.04332   0.01267  Uiso   1.00
O13    O     0.89030   0.37180   0.99767   0.01267  Uiso   1.00
O14    O     0.99050   0.12220   0.21525   0.01267  Uiso   1.00
O15    O     0.97360   0.41150   0.04332   0.01267  Uiso   1.00
O16    O     0.48150   0.10970   0.99767   0.01267  Uiso   1.00
O17    O     0.13170   0.00950   0.21525   0.01267  Uiso   1.00
O18    O     0.43790   0.02640   0.04332   0.01267  Uiso   1.00
O19    O     0.89030   0.51850   0.50233   0.01267  Uiso   1.00
O20    O     0.99050   0.86830   0.28475   0.01267  Uiso   1.00
O21    O     0.97360   0.56210   0.45668   0.01267  Uiso   1.00
O22    O     0.48150   0.37180   0.50233   0.01267  Uiso   1.00
O23    O     0.13170   0.12220   0.28475   0.01267  Uiso   1.00
O24    O     0.43790   0.41150   0.45668   0.01267  Uiso   1.00
O25    O     0.62820   0.10970   0.50233   0.01267  Uiso   1.00
O26    O     0.87780   0.00950   0.28475   0.01267  Uiso   1.00
O27    O     0.58850   0.02640   0.45668   0.01267  Uiso   1.00
O28    O     0.10970   0.48150   0.00233   0.01267  Uiso   1.00
O29    O     0.00950   0.13170   0.78475   0.01267  Uiso   1.00
O30    O     0.02640   0.43790   0.95668   0.01267  Uiso   1.00
O31    O     0.51850   0.62820   0.00233   0.01267  Uiso   1.00
O32    O     0.86830   0.87780   0.78475   0.01267  Uiso   1.00
O33    O     0.56210   0.58850   0.95668   0.01267  Uiso   1.00
O34    O     0.37180   0.89030   0.00233   0.01267  Uiso   1.00
O35    O     0.12220   0.99050   0.78475   0.01267  Uiso   1.00
O36    O     0.41150   0.97360   0.95668   0.01267  Uiso   1.00
O37    O     0.62820   0.51850   0.50233   0.01267  Uiso   1.00
O38    O     0.87780   0.86830   0.28475   0.01267  Uiso   1.00
O39    O     0.58850   0.56210   0.45668   0.01267  Uiso   1.00
O40    O     0.89030   0.37180   0.50233   0.01267  Uiso   1.00
O41    O     0.99050   0.12220   0.28475   0.01267  Uiso   1.00
O42    O     0.97360   0.41150   0.45668   0.01267  Uiso   1.00
O43    O     0.48150   0.10970   0.50233   0.01267  Uiso   1.00
O44    O     0.13170   0.00950   0.28475   0.01267  Uiso   1.00
O45    O     0.43790   0.02640   0.45668   0.01267  Uiso   1.00
O46    O     0.37180   0.48150   0.00233   0.01267  Uiso   1.00
O47    O     0.12220   0.13170   0.78475   0.01267  Uiso   1.00
O48    O     0.41150   0.43790   0.95668   0.01267  Uiso   1.00
O49    O     0.10970   0.62820   0.00233   0.01267  Uiso   1.00
O50    O     0.00950   0.87780   0.78475   0.01267  Uiso   1.00
O51    O     0.02640   0.58850   0.95668   0.01267  Uiso   1.00
O52    O     0.51850   0.89030   0.00233   0.01267  Uiso   1.00
O53    O     0.86830   0.99050   0.78475   0.01267  Uiso   1.00
O54    O     0.56210   0.97360   0.95668   0.01267  Uiso   1.00
O55    O     0.10970   0.48150   0.49767   0.01267  Uiso   1.00
O56    O     0.00950   0.13170   0.71525   0.01267  Uiso   1.00
O57    O     0.02640   0.43790   0.54332   0.01267  Uiso   1.00
O58    O     0.51850   0.62820   0.49767   0.01267  Uiso   1.00
O59    O     0.86830   0.87780   0.71525   0.01267  Uiso   1.00
O60    O     0.56210   0.58850   0.54332   0.01267  Uiso   1.00
O61    O     0.37180   0.89030   0.49767   0.01267  Uiso   1.00
O62    O     0.12220   0.99050   0.71525   0.01267  Uiso   1.00
O63    O     0.41150   0.97360   0.54332   0.01267  Uiso   1.00
O64    O     0.89030   0.51850   0.99767   0.01267  Uiso   1.00
O65    O     0.99050   0.86830   0.21525   0.01267  Uiso   1.00
O66    O     0.97360   0.56210   0.04332   0.01267  Uiso   1.00
O67    O     0.48150   0.37180   0.99767   0.01267  Uiso   1.00
O68    O     0.13170   0.12220   0.21525   0.01267  Uiso   1.00
O69    O     0.43790   0.41150   0.04332   0.01267  Uiso   1.00
O70    O     0.62820   0.10970   0.99767   0.01267  Uiso   1.00
O71    O     0.87780   0.00950   0.21525   0.01267  Uiso   1.00
O72    O     0.58850   0.02640   0.04332   0.01267  Uiso   1.00
