data_image0
_cell_length_a       28.795
_cell_length_b       9.5078
_cell_length_c       27.7363
_cell_angle_alpha    90
_cell_angle_beta     92.594
_cell_angle_gamma    90

_symmetry_space_group_name_H-M    "P 1"
_symmetry_int_tables_number       1

loop_
  _symmetry_equiv_pos_as_xyz
  'x, y, z'

loop_
  _atom_site_label
  _atom_site_occupancy
  _atom_site_fract_x
  _atom_site_fract_y
  _atom_site_fract_z
  _atom_site_thermal_displace_type
  _atom_site_B_iso_or_equiv
  _atom_site_type_symbol
  Bi1      1.0000 0.89990  0.41667  0.97784  Biso   1.000  Bi
  O1       1.0000 0.92840  0.49670  0.05170  Biso   1.000  O
  O2       1.0000 0.93510  0.70030  0.09260  Biso   1.000  O
  O3       1.0000 0.92920  0.62050  0.96680  Biso   1.000  O
  O4       1.0000 0.83950  0.58110  0.00780  Biso   1.000  O
  O5       1.0000 0.80970  0.76860  0.03950  Biso   1.000  O
  O6       1.0000 0.04850  0.79200  0.98010  Biso   1.000  O
  O7       1.0000 0.02540  0.65100  0.03640  Biso   1.000  O
  C1       1.0000 0.93240  0.63180  0.05390  Biso   1.000  C
  C2       1.0000 0.92920  0.71380  0.00580  Biso   1.000  C
  C3       1.0000 0.96990  0.81630  0.00390  Biso   1.000  C
  H1       1.0000 0.96650  0.87010  0.97430  Biso   1.000  H
  H2       1.0000 0.96820  0.88180  0.03060  Biso   1.000  H
  C4       1.0000 0.88410  0.79610  0.00530  Biso   1.000  C
  H3       1.0000 0.87840  0.83540  0.97330  Biso   1.000  H
  H4       1.0000 0.88790  0.87400  0.02770  Biso   1.000  H
  C5       1.0000 0.84130  0.71080  0.01850  Biso   1.000  C
  C6       1.0000 0.01700  0.74990  0.00630  Biso   1.000  C
  Bi2      1.0000 0.10010  0.58333  0.02216  Biso   1.000  Bi
  O8       1.0000 0.07160  0.50330  0.94830  Biso   1.000  O
  O9       1.0000 0.06490  0.29970  0.90740  Biso   1.000  O
  O10      1.0000 0.07080  0.37950  0.03320  Biso   1.000  O
  O11      1.0000 0.16050  0.41890  0.99220  Biso   1.000  O
  O12      1.0000 0.19030  0.23140  0.96050  Biso   1.000  O
  O13      1.0000 0.95150  0.20800  0.01990  Biso   1.000  O
  O14      1.0000 0.97460  0.34900  0.96360  Biso   1.000  O
  C7       1.0000 0.06760  0.36820  0.94610  Biso   1.000  C
  C8       1.0000 0.07080  0.28620  0.99420  Biso   1.000  C
  C9       1.0000 0.03010  0.18370  0.99610  Biso   1.000  C
  H5       1.0000 0.03350  0.12990  0.02570  Biso   1.000  H
  H6       1.0000 0.03180  0.11820  0.96940  Biso   1.000  H
  C10      1.0000 0.11590  0.20390  0.99470  Biso   1.000  C
  H7       1.0000 0.12160  0.16460  0.02670  Biso   1.000  H
  H8       1.0000 0.11210  0.12600  0.97230  Biso   1.000  H
  C11      1.0000 0.15870  0.28920  0.98150  Biso   1.000  C
  C12      1.0000 0.98300  0.25010  0.99370  Biso   1.000  C
  Bi3      1.0000 0.75365  0.55053  0.99785  Biso   1.000  Bi
  O15      1.0000 0.68720  0.43420  0.00960  Biso   1.000  O
  O16      1.0000 0.64600  0.34700  0.06830  Biso   1.000  O
  O17      1.0000 0.76630  0.44170  0.06510  Biso   1.000  O
  O18      1.0000 0.71080  0.69350  0.06510  Biso   1.000  O
  O19      1.0000 0.69860  0.75440  0.14010  Biso   1.000  O
  O20      1.0000 0.76860  0.04370  0.09160  Biso   1.000  O
  O21      1.0000 0.72170  0.14860  0.03760  Biso   1.000  O
  C13      1.0000 0.68240  0.39670  0.05340  Biso   1.000  C
  C14      1.0000 0.72550  0.40560  0.08850  Biso   1.000  C
  C15      1.0000 0.73280  0.26280  0.11370  Biso   1.000  C
  H9       1.0000 0.75890  0.27030  0.13700  Biso   1.000  H
  H10      1.0000 0.70540  0.24040  0.13120  Biso   1.000  H
  C16      1.0000 0.71570  0.51630  0.12690  Biso   1.000  C
  H11      1.0000 0.68780  0.48930  0.14300  Biso   1.000  H
  H12      1.0000 0.74130  0.51660  0.15090  Biso   1.000  H
  C17      1.0000 0.70930  0.66390  0.10720  Biso   1.000  C
  C18      1.0000 0.74220  0.14330  0.07880  Biso   1.000  C
  Bi4      1.0000 0.74635  0.94947  0.00215  Biso   1.000  Bi
  O22      1.0000 0.81280  0.06580  0.99040  Biso   1.000  O
  O23      1.0000 0.85400  0.15300  0.93170  Biso   1.000  O
  O24      1.0000 0.73370  0.05830  0.93490  Biso   1.000  O
  O25      1.0000 0.78920  0.80650  0.93490  Biso   1.000  O
  O26      1.0000 0.80140  0.74560  0.85990  Biso   1.000  O
  O27      1.0000 0.73140  0.45630  0.90840  Biso   1.000  O
  O28      1.0000 0.77830  0.35140  0.96240  Biso   1.000  O
  C19      1.0000 0.81760  0.10330  0.94660  Biso   1.000  C
  C20      1.0000 0.77450  0.09440  0.91150  Biso   1.000  C
  C21      1.0000 0.76720  0.23720  0.88630  Biso   1.000  C
  H13      1.0000 0.74110  0.22970  0.86300  Biso   1.000  H
  H14      1.0000 0.79460  0.25960  0.86880  Biso   1.000  H
  C22      1.0000 0.78430  0.98370  0.87310  Biso   1.000  C
  H15      1.0000 0.81220  0.01070  0.85700  Biso   1.000  H
  H16      1.0000 0.75870  0.98340  0.84910  Biso   1.000  H
  C23      1.0000 0.79070  0.83610  0.89280  Biso   1.000  C
  C24      1.0000 0.75780  0.35670  0.92120  Biso   1.000  C
  Bi5      1.0000 0.01101  0.58766  0.14321  Biso   1.000  Bi
  Bi6      1.0000 0.98899  0.58766  0.35679  Biso   1.000  Bi
  O29      1.0000 0.05340  0.76150  0.18580  Biso   1.000  O
  O30      1.0000 0.12250  0.78520  0.22240  Biso   1.000  O
  O31      1.0000 0.05090  0.48810  0.19790  Biso   1.000  O
  O32      1.0000 0.15810  0.47830  0.10320  Biso   1.000  O
  O33      1.0000 0.09110  0.58010  0.11080  Biso   1.000  O
  O34      1.0000 0.04670  0.44600  0.32230  Biso   1.000  O
  O35      1.0000 0.04400  0.66380  0.29600  Biso   1.000  O
  C25      1.0000 0.09060  0.71300  0.20800  Biso   1.000  C
  C26      1.0000 0.09230  0.55620  0.21290  Biso   1.000  C
  C27      1.0000 0.10310  0.51600  0.26400  Biso   1.000  C
  H17      1.0000 0.10980  0.41590  0.26590  Biso   1.000  H
  H18      1.0000 0.13030  0.56660  0.27630  Biso   1.000  H
  C28      1.0000 0.13300  0.49640  0.18220  Biso   1.000  C
  H19      1.0000 0.13580  0.39620  0.18810  Biso   1.000  H
  H20      1.0000 0.16200  0.53980  0.19370  Biso   1.000  H
  C29      1.0000 0.12720  0.51970  0.12870  Biso   1.000  C
  C30      1.0000 0.06040  0.55100  0.29600  Biso   1.000  C
  O36      1.0000 0.94660  0.76150  0.31420  Biso   1.000  O
  O37      1.0000 0.87750  0.78520  0.27760  Biso   1.000  O
  O38      1.0000 0.94910  0.48810  0.30210  Biso   1.000  O
  O39      1.0000 0.84190  0.47830  0.39680  Biso   1.000  O
  O40      1.0000 0.90890  0.58010  0.38920  Biso   1.000  O
  O41      1.0000 0.95330  0.44600  0.17770  Biso   1.000  O
  O42      1.0000 0.95600  0.66380  0.20400  Biso   1.000  O
  C31      1.0000 0.90940  0.71300  0.29200  Biso   1.000  C
  C32      1.0000 0.90770  0.55620  0.28710  Biso   1.000  C
  C33      1.0000 0.89690  0.51600  0.23600  Biso   1.000  C
  H21      1.0000 0.89020  0.41590  0.23410  Biso   1.000  H
  H22      1.0000 0.86970  0.56660  0.22370  Biso   1.000  H
  C34      1.0000 0.86700  0.49640  0.31780  Biso   1.000  C
  H23      1.0000 0.86420  0.39620  0.31190  Biso   1.000  H
  H24      1.0000 0.83800  0.53980  0.30630  Biso   1.000  H
  C35      1.0000 0.87280  0.51970  0.37130  Biso   1.000  C
  C36      1.0000 0.93960  0.55100  0.20400  Biso   1.000  C
  O43      1.0000 0.94660  0.23850  0.81420  Biso   1.000  O
  O44      1.0000 0.87750  0.21480  0.77760  Biso   1.000  O
  O45      1.0000 0.94910  0.51190  0.80210  Biso   1.000  O
  O46      1.0000 0.84190  0.52170  0.89680  Biso   1.000  O
  O47      1.0000 0.90890  0.41990  0.88920  Biso   1.000  O
  O48      1.0000 0.95330  0.55400  0.67770  Biso   1.000  O
  O49      1.0000 0.95600  0.33620  0.70400  Biso   1.000  O
  C37      1.0000 0.90940  0.28700  0.79200  Biso   1.000  C
  C38      1.0000 0.90770  0.44380  0.78710  Biso   1.000  C
  C39      1.0000 0.89690  0.48400  0.73600  Biso   1.000  C
  H25      1.0000 0.89020  0.58410  0.73410  Biso   1.000  H
  H26      1.0000 0.86970  0.43340  0.72370  Biso   1.000  H
  C40      1.0000 0.86700  0.50360  0.81780  Biso   1.000  C
  H27      1.0000 0.86420  0.60380  0.81190  Biso   1.000  H
  H28      1.0000 0.83800  0.46020  0.80630  Biso   1.000  H
  C41      1.0000 0.87280  0.48030  0.87130  Biso   1.000  C
  C42      1.0000 0.93960  0.44900  0.70400  Biso   1.000  C
  O50      1.0000 0.05340  0.23850  0.68580  Biso   1.000  O
  O51      1.0000 0.12250  0.21480  0.72240  Biso   1.000  O
  O52      1.0000 0.05090  0.51190  0.69790  Biso   1.000  O
  O53      1.0000 0.15810  0.52170  0.60320  Biso   1.000  O
  O54      1.0000 0.09110  0.41990  0.61080  Biso   1.000  O
  O55      1.0000 0.04670  0.55400  0.82230  Biso   1.000  O
  O56      1.0000 0.04400  0.33620  0.79600  Biso   1.000  O
  C43      1.0000 0.09060  0.28700  0.70800  Biso   1.000  C
  C44      1.0000 0.09230  0.44380  0.71290  Biso   1.000  C
  C45      1.0000 0.10310  0.48400  0.76400  Biso   1.000  C
  H29      1.0000 0.10980  0.58410  0.76590  Biso   1.000  H
  H30      1.0000 0.13030  0.43340  0.77630  Biso   1.000  H
  C46      1.0000 0.13300  0.50360  0.68220  Biso   1.000  C
  H31      1.0000 0.13580  0.60380  0.68810  Biso   1.000  H
  H32      1.0000 0.16200  0.46020  0.69370  Biso   1.000  H
  C47      1.0000 0.12720  0.48030  0.62870  Biso   1.000  C
  C48      1.0000 0.06040  0.44900  0.79600  Biso   1.000  C
  Bi7      1.0000 0.98899  0.41234  0.85679  Biso   1.000  Bi
  Bi8      1.0000 0.01101  0.41234  0.64321  Biso   1.000  Bi
  Bi9      1.0000 0.39990  0.91667  0.97784  Biso   1.000  Bi
  O57      1.0000 0.42840  0.99670  0.05170  Biso   1.000  O
  O58      1.0000 0.43510  0.20030  0.09260  Biso   1.000  O
  O59      1.0000 0.42920  0.12050  0.96680  Biso   1.000  O
  O60      1.0000 0.33950  0.08110  0.00780  Biso   1.000  O
  O61      1.0000 0.30970  0.26860  0.03950  Biso   1.000  O
  O62      1.0000 0.54850  0.29200  0.98010  Biso   1.000  O
  O63      1.0000 0.52540  0.15100  0.03640  Biso   1.000  O
  C49      1.0000 0.43240  0.13180  0.05390  Biso   1.000  C
  C50      1.0000 0.42920  0.21380  0.00580  Biso   1.000  C
  C51      1.0000 0.46990  0.31630  0.00390  Biso   1.000  C
  H33      1.0000 0.46650  0.37010  0.97430  Biso   1.000  H
  H34      1.0000 0.46820  0.38180  0.03060  Biso   1.000  H
  C52      1.0000 0.38410  0.29610  0.00530  Biso   1.000  C
  H35      1.0000 0.37840  0.33540  0.97330  Biso   1.000  H
  H36      1.0000 0.38790  0.37400  0.02770  Biso   1.000  H
  C53      1.0000 0.34130  0.21080  0.01850  Biso   1.000  C
  C54      1.0000 0.51700  0.24990  0.00630  Biso   1.000  C
  Bi10     1.0000 0.60010  0.08333  0.02216  Biso   1.000  Bi
  O64      1.0000 0.57160  0.00330  0.94830  Biso   1.000  O
  O65      1.0000 0.56490  0.79970  0.90740  Biso   1.000  O
  O66      1.0000 0.57080  0.87950  0.03320  Biso   1.000  O
  O67      1.0000 0.66050  0.91890  0.99220  Biso   1.000  O
  O68      1.0000 0.69030  0.73140  0.96050  Biso   1.000  O
  O69      1.0000 0.45150  0.70800  0.01990  Biso   1.000  O
  O70      1.0000 0.47460  0.84900  0.96360  Biso   1.000  O
  C55      1.0000 0.56760  0.86820  0.94610  Biso   1.000  C
  C56      1.0000 0.57080  0.78620  0.99420  Biso   1.000  C
  C57      1.0000 0.53010  0.68370  0.99610  Biso   1.000  C
  H37      1.0000 0.53350  0.62990  0.02570  Biso   1.000  H
  H38      1.0000 0.53180  0.61820  0.96940  Biso   1.000  H
  C58      1.0000 0.61590  0.70390  0.99470  Biso   1.000  C
  H39      1.0000 0.62160  0.66460  0.02670  Biso   1.000  H
  H40      1.0000 0.61210  0.62600  0.97230  Biso   1.000  H
  C59      1.0000 0.65870  0.78920  0.98150  Biso   1.000  C
  C60      1.0000 0.48300  0.75010  0.99370  Biso   1.000  C
  Bi11     1.0000 0.25365  0.05053  0.99785  Biso   1.000  Bi
  O71      1.0000 0.18720  0.93420  0.00960  Biso   1.000  O
  O72      1.0000 0.14600  0.84700  0.06830  Biso   1.000  O
  O73      1.0000 0.26630  0.94170  0.06510  Biso   1.000  O
  O74      1.0000 0.21080  0.19350  0.06510  Biso   1.000  O
  O75      1.0000 0.19860  0.25440  0.14010  Biso   1.000  O
  O76      1.0000 0.26860  0.54370  0.09160  Biso   1.000  O
  O77      1.0000 0.22170  0.64860  0.03760  Biso   1.000  O
  C61      1.0000 0.18240  0.89670  0.05340  Biso   1.000  C
  C62      1.0000 0.22550  0.90560  0.08850  Biso   1.000  C
  C63      1.0000 0.23280  0.76280  0.11370  Biso   1.000  C
  H41      1.0000 0.25890  0.77030  0.13700  Biso   1.000  H
  H42      1.0000 0.20540  0.74040  0.13120  Biso   1.000  H
  C64      1.0000 0.21570  0.01630  0.12690  Biso   1.000  C
  H43      1.0000 0.18780  0.98930  0.14300  Biso   1.000  H
  H44      1.0000 0.24130  0.01660  0.15090  Biso   1.000  H
  C65      1.0000 0.20930  0.16390  0.10720  Biso   1.000  C
  C66      1.0000 0.24220  0.64330  0.07880  Biso   1.000  C
  Bi12     1.0000 0.24635  0.44947  0.00215  Biso   1.000  Bi
  O78      1.0000 0.31280  0.56580  0.99040  Biso   1.000  O
  O79      1.0000 0.35400  0.65300  0.93170  Biso   1.000  O
  O80      1.0000 0.23370  0.55830  0.93490  Biso   1.000  O
  O81      1.0000 0.28920  0.30650  0.93490  Biso   1.000  O
  O82      1.0000 0.30140  0.24560  0.85990  Biso   1.000  O
  O83      1.0000 0.23140  0.95630  0.90840  Biso   1.000  O
  O84      1.0000 0.27830  0.85140  0.96240  Biso   1.000  O
  C67      1.0000 0.31760  0.60330  0.94660  Biso   1.000  C
  C68      1.0000 0.27450  0.59440  0.91150  Biso   1.000  C
  C69      1.0000 0.26720  0.73720  0.88630  Biso   1.000  C
  H45      1.0000 0.24110  0.72970  0.86300  Biso   1.000  H
  H46      1.0000 0.29460  0.75960  0.86880  Biso   1.000  H
  C70      1.0000 0.28430  0.48370  0.87310  Biso   1.000  C
  H47      1.0000 0.31220  0.51070  0.85700  Biso   1.000  H
  H48      1.0000 0.25870  0.48340  0.84910  Biso   1.000  H
  C71      1.0000 0.29070  0.33610  0.89280  Biso   1.000  C
  C72      1.0000 0.25780  0.85670  0.92120  Biso   1.000  C
  Bi13     1.0000 0.51101  0.08766  0.14321  Biso   1.000  Bi
  Bi14     1.0000 0.48899  0.08766  0.35679  Biso   1.000  Bi
  O85      1.0000 0.55340  0.26150  0.18580  Biso   1.000  O
  O86      1.0000 0.62250  0.28520  0.22240  Biso   1.000  O
  O87      1.0000 0.55090  0.98810  0.19790  Biso   1.000  O
  O88      1.0000 0.65810  0.97830  0.10320  Biso   1.000  O
  O89      1.0000 0.59110  0.08010  0.11080  Biso   1.000  O
  O90      1.0000 0.54670  0.94600  0.32230  Biso   1.000  O
  O91      1.0000 0.54400  0.16380  0.29600  Biso   1.000  O
  C73      1.0000 0.59060  0.21300  0.20800  Biso   1.000  C
  C74      1.0000 0.59230  0.05620  0.21290  Biso   1.000  C
  C75      1.0000 0.60310  0.01600  0.26400  Biso   1.000  C
  H49      1.0000 0.60980  0.91590  0.26590  Biso   1.000  H
  H50      1.0000 0.63030  0.06660  0.27630  Biso   1.000  H
  C76      1.0000 0.63300  0.99640  0.18220  Biso   1.000  C
  H51      1.0000 0.63580  0.89620  0.18810  Biso   1.000  H
  H52      1.0000 0.66200  0.03980  0.19370  Biso   1.000  H
  C77      1.0000 0.62720  0.01970  0.12870  Biso   1.000  C
  C78      1.0000 0.56040  0.05100  0.29600  Biso   1.000  C
  O92      1.0000 0.44660  0.26150  0.31420  Biso   1.000  O
  O93      1.0000 0.37750  0.28520  0.27760  Biso   1.000  O
  O94      1.0000 0.44910  0.98810  0.30210  Biso   1.000  O
  O95      1.0000 0.34190  0.97830  0.39680  Biso   1.000  O
  O96      1.0000 0.40890  0.08010  0.38920  Biso   1.000  O
  O97      1.0000 0.45330  0.94600  0.17770  Biso   1.000  O
  O98      1.0000 0.45600  0.16380  0.20400  Biso   1.000  O
  C79      1.0000 0.40940  0.21300  0.29200  Biso   1.000  C
  C80      1.0000 0.40770  0.05620  0.28710  Biso   1.000  C
  C81      1.0000 0.39690  0.01600  0.23600  Biso   1.000  C
  H53      1.0000 0.39020  0.91590  0.23410  Biso   1.000  H
  H54      1.0000 0.36970  0.06660  0.22370  Biso   1.000  H
  C82      1.0000 0.36700  0.99640  0.31780  Biso   1.000  C
  H55      1.0000 0.36420  0.89620  0.31190  Biso   1.000  H
  H56      1.0000 0.33800  0.03980  0.30630  Biso   1.000  H
  C83      1.0000 0.37280  0.01970  0.37130  Biso   1.000  C
  C84      1.0000 0.43960  0.05100  0.20400  Biso   1.000  C
  O99      1.0000 0.44660  0.73850  0.81420  Biso   1.000  O
  O100     1.0000 0.37750  0.71480  0.77760  Biso   1.000  O
  O101     1.0000 0.44910  0.01190  0.80210  Biso   1.000  O
  O102     1.0000 0.34190  0.02170  0.89680  Biso   1.000  O
  O103     1.0000 0.40890  0.91990  0.88920  Biso   1.000  O
  O104     1.0000 0.45330  0.05400  0.67770  Biso   1.000  O
  O105     1.0000 0.45600  0.83620  0.70400  Biso   1.000  O
  C85      1.0000 0.40940  0.78700  0.79200  Biso   1.000  C
  C86      1.0000 0.40770  0.94380  0.78710  Biso   1.000  C
  C87      1.0000 0.39690  0.98400  0.73600  Biso   1.000  C
  H57      1.0000 0.39020  0.08410  0.73410  Biso   1.000  H
  H58      1.0000 0.36970  0.93340  0.72370  Biso   1.000  H
  C88      1.0000 0.36700  0.00360  0.81780  Biso   1.000  C
  H59      1.0000 0.36420  0.10380  0.81190  Biso   1.000  H
  H60      1.0000 0.33800  0.96020  0.80630  Biso   1.000  H
  C89      1.0000 0.37280  0.98030  0.87130  Biso   1.000  C
  C90      1.0000 0.43960  0.94900  0.70400  Biso   1.000  C
  O106     1.0000 0.55340  0.73850  0.68580  Biso   1.000  O
  O107     1.0000 0.62250  0.71480  0.72240  Biso   1.000  O
  O108     1.0000 0.55090  0.01190  0.69790  Biso   1.000  O
  O109     1.0000 0.65810  0.02170  0.60320  Biso   1.000  O
  O110     1.0000 0.59110  0.91990  0.61080  Biso   1.000  O
  O111     1.0000 0.54670  0.05400  0.82230  Biso   1.000  O
  O112     1.0000 0.54400  0.83620  0.79600  Biso   1.000  O
  C91      1.0000 0.59060  0.78700  0.70800  Biso   1.000  C
  C92      1.0000 0.59230  0.94380  0.71290  Biso   1.000  C
  C93      1.0000 0.60310  0.98400  0.76400  Biso   1.000  C
  H61      1.0000 0.60980  0.08410  0.76590  Biso   1.000  H
  H62      1.0000 0.63030  0.93340  0.77630  Biso   1.000  H
  C94      1.0000 0.63300  0.00360  0.68220  Biso   1.000  C
  H63      1.0000 0.63580  0.10380  0.68810  Biso   1.000  H
  H64      1.0000 0.66200  0.96020  0.69370  Biso   1.000  H
  C95      1.0000 0.62720  0.98030  0.62870  Biso   1.000  C
  C96      1.0000 0.56040  0.94900  0.79600  Biso   1.000  C
  Bi15     1.0000 0.48899  0.91234  0.85679  Biso   1.000  Bi
  Bi16     1.0000 0.51101  0.91234  0.64321  Biso   1.000  Bi
  Bi17     1.0000 0.10010  0.41667  0.52216  Biso   1.000  Bi
  O113     1.0000 0.07160  0.49670  0.44830  Biso   1.000  O
  O114     1.0000 0.06490  0.70030  0.40740  Biso   1.000  O
  O115     1.0000 0.07080  0.62050  0.53320  Biso   1.000  O
  O116     1.0000 0.16050  0.58110  0.49220  Biso   1.000  O
  O117     1.0000 0.19030  0.76860  0.46050  Biso   1.000  O
  O118     1.0000 0.95150  0.79200  0.51990  Biso   1.000  O
  O119     1.0000 0.97460  0.65100  0.46360  Biso   1.000  O
  C97      1.0000 0.06760  0.63180  0.44610  Biso   1.000  C
  C98      1.0000 0.07080  0.71380  0.49420  Biso   1.000  C
  C99      1.0000 0.03010  0.81630  0.49610  Biso   1.000  C
  H65      1.0000 0.03350  0.87010  0.52570  Biso   1.000  H
  H66      1.0000 0.03180  0.88180  0.46940  Biso   1.000  H
  C100     1.0000 0.11590  0.79610  0.49470  Biso   1.000  C
  H67      1.0000 0.12160  0.83540  0.52670  Biso   1.000  H
  H68      1.0000 0.11210  0.87400  0.47230  Biso   1.000  H
  C101     1.0000 0.15870  0.71080  0.48150  Biso   1.000  C
  C102     1.0000 0.98300  0.74990  0.49370  Biso   1.000  C
  Bi18     1.0000 0.89990  0.58333  0.47784  Biso   1.000  Bi
  O120     1.0000 0.92840  0.50330  0.55170  Biso   1.000  O
  O121     1.0000 0.93510  0.29970  0.59260  Biso   1.000  O
  O122     1.0000 0.92920  0.37950  0.46680  Biso   1.000  O
  O123     1.0000 0.83950  0.41890  0.50780  Biso   1.000  O
  O124     1.0000 0.80970  0.23140  0.53950  Biso   1.000  O
  O125     1.0000 0.04850  0.20800  0.48010  Biso   1.000  O
  O126     1.0000 0.02540  0.34900  0.53640  Biso   1.000  O
  C103     1.0000 0.93240  0.36820  0.55390  Biso   1.000  C
  C104     1.0000 0.92920  0.28620  0.50580  Biso   1.000  C
  C105     1.0000 0.96990  0.18370  0.50390  Biso   1.000  C
  H69      1.0000 0.96650  0.12990  0.47430  Biso   1.000  H
  H70      1.0000 0.96820  0.11820  0.53060  Biso   1.000  H
  C106     1.0000 0.88410  0.20390  0.50530  Biso   1.000  C
  H71      1.0000 0.87840  0.16460  0.47330  Biso   1.000  H
  H72      1.0000 0.88790  0.12600  0.52770  Biso   1.000  H
  C107     1.0000 0.84130  0.28920  0.51850  Biso   1.000  C
  C108     1.0000 0.01700  0.25010  0.50630  Biso   1.000  C
  Bi19     1.0000 0.24635  0.55053  0.50215  Biso   1.000  Bi
  O127     1.0000 0.31280  0.43420  0.49040  Biso   1.000  O
  O128     1.0000 0.35400  0.34700  0.43170  Biso   1.000  O
  O129     1.0000 0.23370  0.44170  0.43490  Biso   1.000  O
  O130     1.0000 0.28920  0.69350  0.43490  Biso   1.000  O
  O131     1.0000 0.30140  0.75440  0.35990  Biso   1.000  O
  O132     1.0000 0.23140  0.04370  0.40840  Biso   1.000  O
  O133     1.0000 0.27830  0.14860  0.46240  Biso   1.000  O
  C109     1.0000 0.31760  0.39670  0.44660  Biso   1.000  C
  C110     1.0000 0.27450  0.40560  0.41150  Biso   1.000  C
  C111     1.0000 0.26720  0.26280  0.38630  Biso   1.000  C
  H73      1.0000 0.24110  0.27030  0.36300  Biso   1.000  H
  H74      1.0000 0.29460  0.24040  0.36880  Biso   1.000  H
  C112     1.0000 0.28430  0.51630  0.37310  Biso   1.000  C
  H75      1.0000 0.31220  0.48930  0.35700  Biso   1.000  H
  H76      1.0000 0.25870  0.51660  0.34910  Biso   1.000  H
  C113     1.0000 0.29070  0.66390  0.39280  Biso   1.000  C
  C114     1.0000 0.25780  0.14330  0.42120  Biso   1.000  C
  Bi20     1.0000 0.25365  0.94947  0.49785  Biso   1.000  Bi
  O134     1.0000 0.18720  0.06580  0.50960  Biso   1.000  O
  O135     1.0000 0.14600  0.15300  0.56830  Biso   1.000  O
  O136     1.0000 0.26630  0.05830  0.56510  Biso   1.000  O
  O137     1.0000 0.21080  0.80650  0.56510  Biso   1.000  O
  O138     1.0000 0.19860  0.74560  0.64010  Biso   1.000  O
  O139     1.0000 0.26860  0.45630  0.59160  Biso   1.000  O
  O140     1.0000 0.22170  0.35140  0.53760  Biso   1.000  O
  C115     1.0000 0.18240  0.10330  0.55340  Biso   1.000  C
  C116     1.0000 0.22550  0.09440  0.58850  Biso   1.000  C
  C117     1.0000 0.23280  0.23720  0.61370  Biso   1.000  C
  H77      1.0000 0.25890  0.22970  0.63700  Biso   1.000  H
  H78      1.0000 0.20540  0.25960  0.63120  Biso   1.000  H
  C118     1.0000 0.21570  0.98370  0.62690  Biso   1.000  C
  H79      1.0000 0.18780  0.01070  0.64300  Biso   1.000  H
  H80      1.0000 0.24130  0.98340  0.65090  Biso   1.000  H
  C119     1.0000 0.20930  0.83610  0.60720  Biso   1.000  C
  C120     1.0000 0.24220  0.35670  0.57880  Biso   1.000  C
  Bi21     1.0000 0.60010  0.91667  0.52216  Biso   1.000  Bi
  O141     1.0000 0.57160  0.99670  0.44830  Biso   1.000  O
  O142     1.0000 0.56490  0.20030  0.40740  Biso   1.000  O
  O143     1.0000 0.57080  0.12050  0.53320  Biso   1.000  O
  O144     1.0000 0.66050  0.08110  0.49220  Biso   1.000  O
  O145     1.0000 0.69030  0.26860  0.46050  Biso   1.000  O
  O146     1.0000 0.45150  0.29200  0.51990  Biso   1.000  O
  O147     1.0000 0.47460  0.15100  0.46360  Biso   1.000  O
  C121     1.0000 0.56760  0.13180  0.44610  Biso   1.000  C
  C122     1.0000 0.57080  0.21380  0.49420  Biso   1.000  C
  C123     1.0000 0.53010  0.31630  0.49610  Biso   1.000  C
  H81      1.0000 0.53350  0.37010  0.52570  Biso   1.000  H
  H82      1.0000 0.53180  0.38180  0.46940  Biso   1.000  H
  C124     1.0000 0.61590  0.29610  0.49470  Biso   1.000  C
  H83      1.0000 0.62160  0.33540  0.52670  Biso   1.000  H
  H84      1.0000 0.61210  0.37400  0.47230  Biso   1.000  H
  C125     1.0000 0.65870  0.21080  0.48150  Biso   1.000  C
  C126     1.0000 0.48300  0.24990  0.49370  Biso   1.000  C
  Bi22     1.0000 0.39990  0.08333  0.47784  Biso   1.000  Bi
  O148     1.0000 0.42840  0.00330  0.55170  Biso   1.000  O
  O149     1.0000 0.43510  0.79970  0.59260  Biso   1.000  O
  O150     1.0000 0.42920  0.87950  0.46680  Biso   1.000  O
  O151     1.0000 0.33950  0.91890  0.50780  Biso   1.000  O
  O152     1.0000 0.30970  0.73140  0.53950  Biso   1.000  O
  O153     1.0000 0.54850  0.70800  0.48010  Biso   1.000  O
  O154     1.0000 0.52540  0.84900  0.53640  Biso   1.000  O
  C127     1.0000 0.43240  0.86820  0.55390  Biso   1.000  C
  C128     1.0000 0.42920  0.78620  0.50580  Biso   1.000  C
  C129     1.0000 0.46990  0.68370  0.50390  Biso   1.000  C
  H85      1.0000 0.46650  0.62990  0.47430  Biso   1.000  H
  H86      1.0000 0.46820  0.61820  0.53060  Biso   1.000  H
  C130     1.0000 0.38410  0.70390  0.50530  Biso   1.000  C
  H87      1.0000 0.37840  0.66460  0.47330  Biso   1.000  H
  H88      1.0000 0.38790  0.62600  0.52770  Biso   1.000  H
  C131     1.0000 0.34130  0.78920  0.51850  Biso   1.000  C
  C132     1.0000 0.51700  0.75010  0.50630  Biso   1.000  C
  Bi23     1.0000 0.74635  0.05053  0.50215  Biso   1.000  Bi
  O155     1.0000 0.81280  0.93420  0.49040  Biso   1.000  O
  O156     1.0000 0.85400  0.84700  0.43170  Biso   1.000  O
  O157     1.0000 0.73370  0.94170  0.43490  Biso   1.000  O
  O158     1.0000 0.78920  0.19350  0.43490  Biso   1.000  O
  O159     1.0000 0.80140  0.25440  0.35990  Biso   1.000  O
  O160     1.0000 0.73140  0.54370  0.40840  Biso   1.000  O
  O161     1.0000 0.77830  0.64860  0.46240  Biso   1.000  O
  C133     1.0000 0.81760  0.89670  0.44660  Biso   1.000  C
  C134     1.0000 0.77450  0.90560  0.41150  Biso   1.000  C
  C135     1.0000 0.76720  0.76280  0.38630  Biso   1.000  C
  H89      1.0000 0.74110  0.77030  0.36300  Biso   1.000  H
  H90      1.0000 0.79460  0.74040  0.36880  Biso   1.000  H
  C136     1.0000 0.78430  0.01630  0.37310  Biso   1.000  C
  H91      1.0000 0.81220  0.98930  0.35700  Biso   1.000  H
  H92      1.0000 0.75870  0.01660  0.34910  Biso   1.000  H
  C137     1.0000 0.79070  0.16390  0.39280  Biso   1.000  C
  C138     1.0000 0.75780  0.64330  0.42120  Biso   1.000  C
  Bi24     1.0000 0.75365  0.44947  0.49785  Biso   1.000  Bi
  O162     1.0000 0.68720  0.56580  0.50960  Biso   1.000  O
  O163     1.0000 0.64600  0.65300  0.56830  Biso   1.000  O
  O164     1.0000 0.76630  0.55830  0.56510  Biso   1.000  O
  O165     1.0000 0.71080  0.30650  0.56510  Biso   1.000  O
  O166     1.0000 0.69860  0.24560  0.64010  Biso   1.000  O
  O167     1.0000 0.76860  0.95630  0.59160  Biso   1.000  O
  O168     1.0000 0.72170  0.85140  0.53760  Biso   1.000  O
  C139     1.0000 0.68240  0.60330  0.55340  Biso   1.000  C
  C140     1.0000 0.72550  0.59440  0.58850  Biso   1.000  C
  C141     1.0000 0.73280  0.73720  0.61370  Biso   1.000  C
  H93      1.0000 0.75890  0.72970  0.63700  Biso   1.000  H
  H94      1.0000 0.70540  0.75960  0.63120  Biso   1.000  H
  C142     1.0000 0.71570  0.48370  0.62690  Biso   1.000  C
  H95      1.0000 0.68780  0.51070  0.64300  Biso   1.000  H
  H96      1.0000 0.74130  0.48340  0.65090  Biso   1.000  H
  C143     1.0000 0.70930  0.33610  0.60720  Biso   1.000  C
  C144     1.0000 0.74220  0.85670  0.57880  Biso   1.000  C
