data_UKUBUY_clean
_audit_creation_date              2014-07-02
_audit_creation_method            'Materials Studio'
_symmetry_space_group_name_H-M    'P1'
_symmetry_Int_Tables_number       1
_symmetry_cell_setting            triclinic
loop_
_symmetry_equiv_pos_as_xyz
  x,y,z
_cell_length_a                    12.1470
_cell_length_b                    12.1470
_cell_length_c                    24.7440
_cell_angle_alpha                 90.0000
_cell_angle_beta                  90.0000
_cell_angle_gamma                 90.0000
loop_
_atom_site_label
_atom_site_type_symbol
_atom_site_fract_x
_atom_site_fract_y
_atom_site_fract_z
_atom_site_U_iso_or_equiv
_atom_site_adp_type
_atom_site_occupancy
Fe1    Fe    0.75000   0.75000   0.92112   0.01267  Uiso   1.00
Fe2    Fe    0.25000   0.25000   0.42112   0.01267  Uiso   1.00
H1     H     0.58440   0.56900   0.87630   0.01267  Uiso   1.00
H2     H     0.56710   0.43100   0.81460   0.01267  Uiso   1.00
H3     H     0.86040   0.51740   0.75450   0.01267  Uiso   1.00
H4     H     0.87130   0.64940   0.82030   0.01267  Uiso   1.00
H5     H     0.80260   0.41100   0.68320   0.01267  Uiso   1.00
H6     H     0.85490   0.32960   0.72560   0.01267  Uiso   1.00
H7     H     0.81880   0.15900   0.60950   0.01267  Uiso   1.00
H8     H     0.90080   0.17440   0.65810   0.01267  Uiso   1.00
H9     H     0.08960   0.11180   0.49480   0.01267  Uiso   1.00
H10    H     0.96350   0.12110   0.56340   0.01267  Uiso   1.00
H11    H     0.00740   0.44430   0.56460   0.01267  Uiso   1.00
H12    H     0.13010   0.42440   0.49490   0.01267  Uiso   1.00
H13    H     0.53070   0.87470   0.91710   0.01267  Uiso   1.00
H14    H     0.91560   0.93100   0.87630   0.01267  Uiso   1.00
H15    H     0.93290   0.06900   0.81460   0.01267  Uiso   1.00
H16    H     0.63960   0.98260   0.75450   0.01267  Uiso   1.00
H17    H     0.62870   0.85060   0.82030   0.01267  Uiso   1.00
H18    H     0.69740   0.08900   0.68320   0.01267  Uiso   1.00
H19    H     0.64510   0.17040   0.72560   0.01267  Uiso   1.00
H20    H     0.68120   0.34100   0.60950   0.01267  Uiso   1.00
H21    H     0.59920   0.32560   0.65810   0.01267  Uiso   1.00
H22    H     0.41040   0.38820   0.49480   0.01267  Uiso   1.00
H23    H     0.53650   0.37890   0.56340   0.01267  Uiso   1.00
H24    H     0.49260   0.05570   0.56460   0.01267  Uiso   1.00
H25    H     0.36990   0.07560   0.49490   0.01267  Uiso   1.00
H26    H     0.96930   0.62530   0.91710   0.01267  Uiso   1.00
H27    H     0.43100   0.08440   0.37630   0.01267  Uiso   1.00
H28    H     0.56900   0.06710   0.31460   0.01267  Uiso   1.00
H29    H     0.48260   0.36040   0.25450   0.01267  Uiso   1.00
H30    H     0.35060   0.37130   0.32030   0.01267  Uiso   1.00
H31    H     0.58900   0.30260   0.18320   0.01267  Uiso   1.00
H32    H     0.67040   0.35490   0.22560   0.01267  Uiso   1.00
H33    H     0.84100   0.31880   0.10950   0.01267  Uiso   1.00
H34    H     0.82560   0.40080   0.15810   0.01267  Uiso   1.00
H35    H     0.88820   0.58960   0.99480   0.01267  Uiso   1.00
H36    H     0.87890   0.46350   0.06340   0.01267  Uiso   1.00
H37    H     0.55570   0.50740   0.06460   0.01267  Uiso   1.00
H38    H     0.57560   0.63010   0.99490   0.01267  Uiso   1.00
H39    H     0.12530   0.03070   0.41710   0.01267  Uiso   1.00
H40    H     0.06900   0.41560   0.37630   0.01267  Uiso   1.00
H41    H     0.93100   0.43290   0.31460   0.01267  Uiso   1.00
H42    H     0.01740   0.13960   0.25450   0.01267  Uiso   1.00
H43    H     0.14940   0.12870   0.32030   0.01267  Uiso   1.00
H44    H     0.91100   0.19740   0.18320   0.01267  Uiso   1.00
H45    H     0.82960   0.14510   0.22560   0.01267  Uiso   1.00
H46    H     0.65900   0.18120   0.10950   0.01267  Uiso   1.00
H47    H     0.67440   0.09920   0.15810   0.01267  Uiso   1.00
H48    H     0.61180   0.91040   0.99480   0.01267  Uiso   1.00
H49    H     0.62110   0.03650   0.06340   0.01267  Uiso   1.00
H50    H     0.94430   0.99260   0.06460   0.01267  Uiso   1.00
H51    H     0.92440   0.86990   0.99490   0.01267  Uiso   1.00
H52    H     0.37470   0.46930   0.41710   0.01267  Uiso   1.00
C1     C     0.64190   0.55710   0.85212   0.01267  Uiso   1.00
C2     C     0.63030   0.47430   0.81514   0.01267  Uiso   1.00
C3     C     0.71480   0.45600   0.77830   0.01267  Uiso   1.00
C4     C     0.80400   0.52460   0.77972   0.01267  Uiso   1.00
C5     C     0.80920   0.60480   0.81920   0.01267  Uiso   1.00
C6     C     0.78810   0.34780   0.70612   0.01267  Uiso   1.00
C7     C     0.84560   0.21100   0.63622   0.01267  Uiso   1.00
C8     C     0.07180   0.18080   0.50856   0.01267  Uiso   1.00
C9     C     0.99500   0.18530   0.55000   0.01267  Uiso   1.00
C10    C     0.96640   0.28550   0.57077   0.01267  Uiso   1.00
C11    C     0.02070   0.37470   0.55041   0.01267  Uiso   1.00
C12    C     0.09580   0.36180   0.50859   0.01267  Uiso   1.00
C13    C     0.85810   0.94290   0.85212   0.01267  Uiso   1.00
C14    C     0.86970   0.02570   0.81514   0.01267  Uiso   1.00
C15    C     0.78520   0.04400   0.77830   0.01267  Uiso   1.00
C16    C     0.69600   0.97540   0.77972   0.01267  Uiso   1.00
C17    C     0.69080   0.89520   0.81920   0.01267  Uiso   1.00
C18    C     0.71190   0.15220   0.70612   0.01267  Uiso   1.00
C19    C     0.65440   0.28900   0.63622   0.01267  Uiso   1.00
C20    C     0.42820   0.31920   0.50856   0.01267  Uiso   1.00
C21    C     0.50500   0.31470   0.55000   0.01267  Uiso   1.00
C22    C     0.53360   0.21450   0.57077   0.01267  Uiso   1.00
C23    C     0.47930   0.12530   0.55041   0.01267  Uiso   1.00
C24    C     0.40420   0.13820   0.50859   0.01267  Uiso   1.00
C25    C     0.44290   0.14190   0.35212   0.01267  Uiso   1.00
C26    C     0.52570   0.13030   0.31514   0.01267  Uiso   1.00
C27    C     0.54400   0.21480   0.27830   0.01267  Uiso   1.00
C28    C     0.47540   0.30400   0.27972   0.01267  Uiso   1.00
C29    C     0.39520   0.30920   0.31920   0.01267  Uiso   1.00
C30    C     0.65220   0.28810   0.20612   0.01267  Uiso   1.00
C31    C     0.78900   0.34560   0.13622   0.01267  Uiso   1.00
C32    C     0.81920   0.57180   0.00856   0.01267  Uiso   1.00
C33    C     0.81470   0.49500   0.05000   0.01267  Uiso   1.00
C34    C     0.71450   0.46640   0.07077   0.01267  Uiso   1.00
C35    C     0.62530   0.52070   0.05041   0.01267  Uiso   1.00
C36    C     0.63820   0.59580   0.00859   0.01267  Uiso   1.00
C37    C     0.05710   0.35810   0.35212   0.01267  Uiso   1.00
C38    C     0.97430   0.36970   0.31514   0.01267  Uiso   1.00
C39    C     0.95600   0.28520   0.27830   0.01267  Uiso   1.00
C40    C     0.02460   0.19600   0.27972   0.01267  Uiso   1.00
C41    C     0.10480   0.19080   0.31920   0.01267  Uiso   1.00
C42    C     0.84780   0.21190   0.20612   0.01267  Uiso   1.00
C43    C     0.71100   0.15440   0.13622   0.01267  Uiso   1.00
C44    C     0.68080   0.92820   0.00856   0.01267  Uiso   1.00
C45    C     0.68530   0.00500   0.05000   0.01267  Uiso   1.00
C46    C     0.78550   0.03360   0.07077   0.01267  Uiso   1.00
C47    C     0.87470   0.97930   0.05041   0.01267  Uiso   1.00
C48    C     0.86180   0.90420   0.00859   0.01267  Uiso   1.00
C49    C     0.75000   0.25000   0.67220   0.01267  Uiso   1.00
C50    C     0.75000   0.25000   0.17220   0.01267  Uiso   1.00
S1     S     0.55028   0.77796   0.91936   0.01267  Uiso   1.00
S2     S     0.94972   0.72204   0.91936   0.01267  Uiso   1.00
S3     S     0.22204   0.05028   0.41936   0.01267  Uiso   1.00
S4     S     0.27796   0.44972   0.41936   0.01267  Uiso   1.00
N1     N     0.73040   0.62220   0.85590   0.01267  Uiso   1.00
N2     N     0.12120   0.26610   0.48733   0.01267  Uiso   1.00
N3     N     0.76960   0.87780   0.85590   0.01267  Uiso   1.00
N4     N     0.37880   0.23390   0.48733   0.01267  Uiso   1.00
N5     N     0.37780   0.23040   0.35590   0.01267  Uiso   1.00
N6     N     0.73390   0.62120   0.98733   0.01267  Uiso   1.00
N7     N     0.12220   0.26960   0.35590   0.01267  Uiso   1.00
N8     N     0.76610   0.87880   0.98733   0.01267  Uiso   1.00
O1     O     0.89240   0.30340   0.61009   0.01267  Uiso   1.00
O2     O     0.70040   0.37150   0.74310   0.01267  Uiso   1.00
O3     O     0.60760   0.19660   0.61009   0.01267  Uiso   1.00
O4     O     0.79960   0.12850   0.74310   0.01267  Uiso   1.00
O5     O     0.69660   0.39240   0.11009   0.01267  Uiso   1.00
O6     O     0.62850   0.20040   0.24310   0.01267  Uiso   1.00
O7     O     0.80340   0.10760   0.11009   0.01267  Uiso   1.00
O8     O     0.87150   0.29960   0.24310   0.01267  Uiso   1.00
Fe3    Fe    0.25000   0.25000   0.07888   0.01267  Uiso   1.00
Fe4    Fe    0.75000   0.75000   0.57888   0.01267  Uiso   1.00
H53    H     0.41560   0.43100   0.12370   0.01267  Uiso   1.00
H54    H     0.43290   0.56900   0.18540   0.01267  Uiso   1.00
H55    H     0.13960   0.48260   0.24550   0.01267  Uiso   1.00
H56    H     0.12870   0.35060   0.17970   0.01267  Uiso   1.00
H57    H     0.19740   0.58900   0.31680   0.01267  Uiso   1.00
H58    H     0.14510   0.67040   0.27440   0.01267  Uiso   1.00
H59    H     0.18120   0.84100   0.39050   0.01267  Uiso   1.00
H60    H     0.09920   0.82560   0.34190   0.01267  Uiso   1.00
H61    H     0.91040   0.88820   0.50520   0.01267  Uiso   1.00
H62    H     0.03650   0.87890   0.43660   0.01267  Uiso   1.00
H63    H     0.99260   0.55570   0.43540   0.01267  Uiso   1.00
H64    H     0.86990   0.57560   0.50510   0.01267  Uiso   1.00
H65    H     0.46930   0.12530   0.08290   0.01267  Uiso   1.00
H66    H     0.08440   0.06900   0.12370   0.01267  Uiso   1.00
H67    H     0.06710   0.93100   0.18540   0.01267  Uiso   1.00
H68    H     0.36040   0.01740   0.24550   0.01267  Uiso   1.00
H69    H     0.37130   0.14940   0.17970   0.01267  Uiso   1.00
H70    H     0.30260   0.91100   0.31680   0.01267  Uiso   1.00
H71    H     0.35490   0.82960   0.27440   0.01267  Uiso   1.00
H72    H     0.31880   0.65900   0.39050   0.01267  Uiso   1.00
H73    H     0.40080   0.67440   0.34190   0.01267  Uiso   1.00
H74    H     0.58960   0.61180   0.50520   0.01267  Uiso   1.00
H75    H     0.46350   0.62110   0.43660   0.01267  Uiso   1.00
H76    H     0.50740   0.94430   0.43540   0.01267  Uiso   1.00
H77    H     0.63010   0.92440   0.50510   0.01267  Uiso   1.00
H78    H     0.03070   0.37470   0.08290   0.01267  Uiso   1.00
H79    H     0.56900   0.91560   0.62370   0.01267  Uiso   1.00
H80    H     0.43100   0.93290   0.68540   0.01267  Uiso   1.00
H81    H     0.51740   0.63960   0.74550   0.01267  Uiso   1.00
H82    H     0.64940   0.62870   0.67970   0.01267  Uiso   1.00
H83    H     0.41100   0.69740   0.81680   0.01267  Uiso   1.00
H84    H     0.32960   0.64510   0.77440   0.01267  Uiso   1.00
H85    H     0.15900   0.68120   0.89050   0.01267  Uiso   1.00
H86    H     0.17440   0.59920   0.84190   0.01267  Uiso   1.00
H87    H     0.11180   0.41040   0.00520   0.01267  Uiso   1.00
H88    H     0.12110   0.53650   0.93660   0.01267  Uiso   1.00
H89    H     0.44430   0.49260   0.93540   0.01267  Uiso   1.00
H90    H     0.42440   0.36990   0.00510   0.01267  Uiso   1.00
H91    H     0.87470   0.96930   0.58290   0.01267  Uiso   1.00
H92    H     0.93100   0.58440   0.62370   0.01267  Uiso   1.00
H93    H     0.06900   0.56710   0.68540   0.01267  Uiso   1.00
H94    H     0.98260   0.86040   0.74550   0.01267  Uiso   1.00
H95    H     0.85060   0.87130   0.67970   0.01267  Uiso   1.00
H96    H     0.08900   0.80260   0.81680   0.01267  Uiso   1.00
H97    H     0.17040   0.85490   0.77440   0.01267  Uiso   1.00
H98    H     0.34100   0.81880   0.89050   0.01267  Uiso   1.00
H99    H     0.32560   0.90080   0.84190   0.01267  Uiso   1.00
H100   H     0.38820   0.08960   0.00520   0.01267  Uiso   1.00
H101   H     0.37890   0.96350   0.93660   0.01267  Uiso   1.00
H102   H     0.05570   0.00740   0.93540   0.01267  Uiso   1.00
H103   H     0.07560   0.13010   0.00510   0.01267  Uiso   1.00
H104   H     0.62530   0.53070   0.58290   0.01267  Uiso   1.00
C51    C     0.35810   0.44290   0.14788   0.01267  Uiso   1.00
C52    C     0.36970   0.52570   0.18486   0.01267  Uiso   1.00
C53    C     0.28520   0.54400   0.22170   0.01267  Uiso   1.00
C54    C     0.19600   0.47540   0.22028   0.01267  Uiso   1.00
C55    C     0.19080   0.39520   0.18080   0.01267  Uiso   1.00
C56    C     0.21190   0.65220   0.29388   0.01267  Uiso   1.00
C57    C     0.15440   0.78900   0.36378   0.01267  Uiso   1.00
C58    C     0.92820   0.81920   0.49144   0.01267  Uiso   1.00
C59    C     0.00500   0.81470   0.45000   0.01267  Uiso   1.00
C60    C     0.03360   0.71450   0.42923   0.01267  Uiso   1.00
C61    C     0.97930   0.62530   0.44959   0.01267  Uiso   1.00
C62    C     0.90420   0.63820   0.49141   0.01267  Uiso   1.00
C63    C     0.14190   0.05710   0.14788   0.01267  Uiso   1.00
C64    C     0.13030   0.97430   0.18486   0.01267  Uiso   1.00
C65    C     0.21480   0.95600   0.22170   0.01267  Uiso   1.00
C66    C     0.30400   0.02460   0.22028   0.01267  Uiso   1.00
C67    C     0.30920   0.10480   0.18080   0.01267  Uiso   1.00
C68    C     0.28810   0.84780   0.29388   0.01267  Uiso   1.00
C69    C     0.34560   0.71100   0.36378   0.01267  Uiso   1.00
C70    C     0.57180   0.68080   0.49144   0.01267  Uiso   1.00
C71    C     0.49500   0.68530   0.45000   0.01267  Uiso   1.00
C72    C     0.46640   0.78550   0.42923   0.01267  Uiso   1.00
C73    C     0.52070   0.87470   0.44959   0.01267  Uiso   1.00
C74    C     0.59580   0.86180   0.49141   0.01267  Uiso   1.00
C75    C     0.55710   0.85810   0.64788   0.01267  Uiso   1.00
C76    C     0.47430   0.86970   0.68486   0.01267  Uiso   1.00
C77    C     0.45600   0.78520   0.72170   0.01267  Uiso   1.00
C78    C     0.52460   0.69600   0.72028   0.01267  Uiso   1.00
C79    C     0.60480   0.69080   0.68080   0.01267  Uiso   1.00
C80    C     0.34780   0.71190   0.79388   0.01267  Uiso   1.00
C81    C     0.21100   0.65440   0.86378   0.01267  Uiso   1.00
C82    C     0.18080   0.42820   0.99144   0.01267  Uiso   1.00
C83    C     0.18530   0.50500   0.95000   0.01267  Uiso   1.00
C84    C     0.28550   0.53360   0.92923   0.01267  Uiso   1.00
C85    C     0.37470   0.47930   0.94959   0.01267  Uiso   1.00
C86    C     0.36180   0.40420   0.99141   0.01267  Uiso   1.00
C87    C     0.94290   0.64190   0.64788   0.01267  Uiso   1.00
C88    C     0.02570   0.63030   0.68486   0.01267  Uiso   1.00
C89    C     0.04400   0.71480   0.72170   0.01267  Uiso   1.00
C90    C     0.97540   0.80400   0.72028   0.01267  Uiso   1.00
C91    C     0.89520   0.80920   0.68080   0.01267  Uiso   1.00
C92    C     0.15220   0.78810   0.79388   0.01267  Uiso   1.00
C93    C     0.28900   0.84560   0.86378   0.01267  Uiso   1.00
C94    C     0.31920   0.07180   0.99144   0.01267  Uiso   1.00
C95    C     0.31470   0.99500   0.95000   0.01267  Uiso   1.00
C96    C     0.21450   0.96640   0.92923   0.01267  Uiso   1.00
C97    C     0.12530   0.02070   0.94959   0.01267  Uiso   1.00
C98    C     0.13820   0.09580   0.99141   0.01267  Uiso   1.00
C99    C     0.25000   0.75000   0.32780   0.01267  Uiso   1.00
C100   C     0.25000   0.75000   0.82780   0.01267  Uiso   1.00
S5     S     0.44972   0.22204   0.08064   0.01267  Uiso   1.00
S6     S     0.05028   0.27796   0.08064   0.01267  Uiso   1.00
S7     S     0.77796   0.94972   0.58064   0.01267  Uiso   1.00
S8     S     0.72204   0.55028   0.58064   0.01267  Uiso   1.00
N9     N     0.26960   0.37780   0.14410   0.01267  Uiso   1.00
N10    N     0.87880   0.73390   0.51267   0.01267  Uiso   1.00
N11    N     0.23040   0.12220   0.14410   0.01267  Uiso   1.00
N12    N     0.62120   0.76610   0.51267   0.01267  Uiso   1.00
N13    N     0.62220   0.76960   0.64410   0.01267  Uiso   1.00
N14    N     0.26610   0.37880   0.01267   0.01267  Uiso   1.00
N15    N     0.87780   0.73040   0.64410   0.01267  Uiso   1.00
N16    N     0.23390   0.12120   0.01267   0.01267  Uiso   1.00
O9     O     0.10760   0.69660   0.38991   0.01267  Uiso   1.00
O10    O     0.29960   0.62850   0.25690   0.01267  Uiso   1.00
O11    O     0.39240   0.80340   0.38991   0.01267  Uiso   1.00
O12    O     0.20040   0.87150   0.25690   0.01267  Uiso   1.00
O13    O     0.30340   0.60760   0.88991   0.01267  Uiso   1.00
O14    O     0.37150   0.79960   0.75690   0.01267  Uiso   1.00
O15    O     0.19660   0.89240   0.88991   0.01267  Uiso   1.00
O16    O     0.12850   0.70040   0.75690   0.01267  Uiso   1.00
