data_UKUCAF_clean
_audit_creation_date              2014-07-02
_audit_creation_method            'Materials Studio'
_symmetry_space_group_name_H-M    'P1'
_symmetry_Int_Tables_number       1
_symmetry_cell_setting            triclinic
loop_
_symmetry_equiv_pos_as_xyz
  x,y,z
_cell_length_a                    12.0790
_cell_length_b                    12.0790
_cell_length_c                    24.5390
_cell_angle_alpha                 90.0000
_cell_angle_beta                  90.0000
_cell_angle_gamma                 90.0000
loop_
_atom_site_label
_atom_site_type_symbol
_atom_site_fract_x
_atom_site_fract_y
_atom_site_fract_z
_atom_site_U_iso_or_equiv
_atom_site_adp_type
_atom_site_occupancy
Co1    Co    0.75000   0.75000   0.92260   0.01267  Uiso   1.00
Co2    Co    0.25000   0.25000   0.42260   0.01267  Uiso   1.00
H1     H     0.58200   0.57450   0.87740   0.01267  Uiso   1.00
H2     H     0.56450   0.43600   0.81550   0.01267  Uiso   1.00
H3     H     0.86450   0.51670   0.75770   0.01267  Uiso   1.00
H4     H     0.87210   0.65040   0.82350   0.01267  Uiso   1.00
H5     H     0.80460   0.41100   0.68460   0.01267  Uiso   1.00
H6     H     0.85460   0.32890   0.72810   0.01267  Uiso   1.00
H7     H     0.81880   0.15620   0.61080   0.01267  Uiso   1.00
H8     H     0.90190   0.17310   0.65960   0.01267  Uiso   1.00
H9     H     0.09770   0.11240   0.49770   0.01267  Uiso   1.00
H10    H     0.96630   0.12250   0.56580   0.01267  Uiso   1.00
H11    H     0.01410   0.44360   0.56620   0.01267  Uiso   1.00
H12    H     0.12240   0.42470   0.49090   0.01267  Uiso   1.00
H13    H     0.52880   0.86590   0.90000   0.01267  Uiso   1.00
H14    H     0.91800   0.92550   0.87740   0.01267  Uiso   1.00
H15    H     0.93550   0.06400   0.81550   0.01267  Uiso   1.00
H16    H     0.63550   0.98330   0.75770   0.01267  Uiso   1.00
H17    H     0.62790   0.84960   0.82350   0.01267  Uiso   1.00
H18    H     0.69540   0.08900   0.68460   0.01267  Uiso   1.00
H19    H     0.64540   0.17110   0.72810   0.01267  Uiso   1.00
H20    H     0.68120   0.34380   0.61080   0.01267  Uiso   1.00
H21    H     0.59810   0.32690   0.65960   0.01267  Uiso   1.00
H22    H     0.40230   0.38760   0.49770   0.01267  Uiso   1.00
H23    H     0.53370   0.37750   0.56580   0.01267  Uiso   1.00
H24    H     0.48590   0.05640   0.56620   0.01267  Uiso   1.00
H25    H     0.37760   0.07530   0.49090   0.01267  Uiso   1.00
H26    H     0.97120   0.63410   0.90000   0.01267  Uiso   1.00
H27    H     0.42550   0.08200   0.37740   0.01267  Uiso   1.00
H28    H     0.56400   0.06450   0.31550   0.01267  Uiso   1.00
H29    H     0.48330   0.36450   0.25770   0.01267  Uiso   1.00
H30    H     0.34960   0.37210   0.32350   0.01267  Uiso   1.00
H31    H     0.58900   0.30460   0.18460   0.01267  Uiso   1.00
H32    H     0.67110   0.35460   0.22810   0.01267  Uiso   1.00
H33    H     0.84380   0.31880   0.11080   0.01267  Uiso   1.00
H34    H     0.82690   0.40190   0.15960   0.01267  Uiso   1.00
H35    H     0.88760   0.59770   0.99770   0.01267  Uiso   1.00
H36    H     0.87750   0.46630   0.06580   0.01267  Uiso   1.00
H37    H     0.55640   0.51410   0.06620   0.01267  Uiso   1.00
H38    H     0.57530   0.62240   0.99090   0.01267  Uiso   1.00
H39    H     0.13410   0.02880   0.40000   0.01267  Uiso   1.00
H40    H     0.07450   0.41800   0.37740   0.01267  Uiso   1.00
H41    H     0.93600   0.43550   0.31550   0.01267  Uiso   1.00
H42    H     0.01670   0.13550   0.25770   0.01267  Uiso   1.00
H43    H     0.15040   0.12790   0.32350   0.01267  Uiso   1.00
H44    H     0.91100   0.19540   0.18460   0.01267  Uiso   1.00
H45    H     0.82890   0.14540   0.22810   0.01267  Uiso   1.00
H46    H     0.65620   0.18120   0.11080   0.01267  Uiso   1.00
H47    H     0.67310   0.09810   0.15960   0.01267  Uiso   1.00
H48    H     0.61240   0.90230   0.99770   0.01267  Uiso   1.00
H49    H     0.62250   0.03370   0.06580   0.01267  Uiso   1.00
H50    H     0.94360   0.98590   0.06620   0.01267  Uiso   1.00
H51    H     0.92470   0.87760   0.99090   0.01267  Uiso   1.00
H52    H     0.36590   0.47120   0.40000   0.01267  Uiso   1.00
C1     C     0.64040   0.56140   0.85354   0.01267  Uiso   1.00
C2     C     0.62860   0.47860   0.81630   0.01267  Uiso   1.00
C3     C     0.71400   0.45870   0.77942   0.01267  Uiso   1.00
C4     C     0.80620   0.52550   0.78203   0.01267  Uiso   1.00
C5     C     0.80920   0.60600   0.82197   0.01267  Uiso   1.00
C6     C     0.78830   0.34800   0.70782   0.01267  Uiso   1.00
C7     C     0.84590   0.20900   0.63745   0.01267  Uiso   1.00
C8     C     0.07680   0.18200   0.51018   0.01267  Uiso   1.00
C9     C     0.99780   0.18680   0.55184   0.01267  Uiso   1.00
C10    C     0.96880   0.28650   0.57099   0.01267  Uiso   1.00
C11    C     0.02380   0.37400   0.55068   0.01267  Uiso   1.00
C12    C     0.09410   0.36110   0.50719   0.01267  Uiso   1.00
C13    C     0.85960   0.93860   0.85354   0.01267  Uiso   1.00
C14    C     0.87140   0.02140   0.81630   0.01267  Uiso   1.00
C15    C     0.78600   0.04130   0.77942   0.01267  Uiso   1.00
C16    C     0.69380   0.97450   0.78203   0.01267  Uiso   1.00
C17    C     0.69080   0.89400   0.82197   0.01267  Uiso   1.00
C18    C     0.71170   0.15200   0.70782   0.01267  Uiso   1.00
C19    C     0.65410   0.29100   0.63745   0.01267  Uiso   1.00
C20    C     0.42320   0.31800   0.51018   0.01267  Uiso   1.00
C21    C     0.50220   0.31320   0.55184   0.01267  Uiso   1.00
C22    C     0.53120   0.21350   0.57099   0.01267  Uiso   1.00
C23    C     0.47620   0.12600   0.55068   0.01267  Uiso   1.00
C24    C     0.40590   0.13890   0.50719   0.01267  Uiso   1.00
C25    C     0.43860   0.14040   0.35354   0.01267  Uiso   1.00
C26    C     0.52140   0.12860   0.31630   0.01267  Uiso   1.00
C27    C     0.54130   0.21400   0.27942   0.01267  Uiso   1.00
C28    C     0.47450   0.30620   0.28203   0.01267  Uiso   1.00
C29    C     0.39400   0.30920   0.32197   0.01267  Uiso   1.00
C30    C     0.65200   0.28830   0.20782   0.01267  Uiso   1.00
C31    C     0.79100   0.34590   0.13745   0.01267  Uiso   1.00
C32    C     0.81800   0.57680   0.01018   0.01267  Uiso   1.00
C33    C     0.81320   0.49780   0.05184   0.01267  Uiso   1.00
C34    C     0.71350   0.46880   0.07099   0.01267  Uiso   1.00
C35    C     0.62600   0.52380   0.05068   0.01267  Uiso   1.00
C36    C     0.63890   0.59410   0.00719   0.01267  Uiso   1.00
C37    C     0.06140   0.35960   0.35354   0.01267  Uiso   1.00
C38    C     0.97860   0.37140   0.31630   0.01267  Uiso   1.00
C39    C     0.95870   0.28600   0.27942   0.01267  Uiso   1.00
C40    C     0.02550   0.19380   0.28203   0.01267  Uiso   1.00
C41    C     0.10600   0.19080   0.32197   0.01267  Uiso   1.00
C42    C     0.84800   0.21170   0.20782   0.01267  Uiso   1.00
C43    C     0.70900   0.15410   0.13745   0.01267  Uiso   1.00
C44    C     0.68200   0.92320   0.01018   0.01267  Uiso   1.00
C45    C     0.68680   0.00220   0.05184   0.01267  Uiso   1.00
C46    C     0.78650   0.03120   0.07099   0.01267  Uiso   1.00
C47    C     0.87400   0.97620   0.05068   0.01267  Uiso   1.00
C48    C     0.86110   0.90590   0.00719   0.01267  Uiso   1.00
C49    C     0.75000   0.25000   0.67362   0.01267  Uiso   1.00
C50    C     0.75000   0.25000   0.17362   0.01267  Uiso   1.00
S1     S     0.54920   0.77878   0.92121   0.01267  Uiso   1.00
S2     S     0.95080   0.72122   0.92121   0.01267  Uiso   1.00
S3     S     0.22122   0.04920   0.42121   0.01267  Uiso   1.00
S4     S     0.27878   0.45080   0.42121   0.01267  Uiso   1.00
N1     N     0.73110   0.62560   0.85815   0.01267  Uiso   1.00
N2     N     0.12310   0.26770   0.48759   0.01267  Uiso   1.00
N3     N     0.76890   0.87440   0.85815   0.01267  Uiso   1.00
N4     N     0.37690   0.23230   0.48759   0.01267  Uiso   1.00
N5     N     0.37440   0.23110   0.35815   0.01267  Uiso   1.00
N6     N     0.73230   0.62310   0.98759   0.01267  Uiso   1.00
N7     N     0.12560   0.26890   0.35815   0.01267  Uiso   1.00
N8     N     0.76770   0.87690   0.98759   0.01267  Uiso   1.00
O1     O     0.69948   0.37395   0.74451   0.01267  Uiso   1.00
O2     O     0.89187   0.30430   0.61047   0.01267  Uiso   1.00
O3     O     0.80052   0.12605   0.74451   0.01267  Uiso   1.00
O4     O     0.60813   0.19570   0.61047   0.01267  Uiso   1.00
O5     O     0.62605   0.19948   0.24451   0.01267  Uiso   1.00
O6     O     0.69570   0.39187   0.11047   0.01267  Uiso   1.00
O7     O     0.87395   0.30052   0.24451   0.01267  Uiso   1.00
O8     O     0.80430   0.10813   0.11047   0.01267  Uiso   1.00
Co3    Co    0.25000   0.25000   0.07740   0.01267  Uiso   1.00
Co4    Co    0.75000   0.75000   0.57740   0.01267  Uiso   1.00
H53    H     0.41800   0.42550   0.12260   0.01267  Uiso   1.00
H54    H     0.43550   0.56400   0.18450   0.01267  Uiso   1.00
H55    H     0.13550   0.48330   0.24230   0.01267  Uiso   1.00
H56    H     0.12790   0.34960   0.17650   0.01267  Uiso   1.00
H57    H     0.19540   0.58900   0.31540   0.01267  Uiso   1.00
H58    H     0.14540   0.67110   0.27190   0.01267  Uiso   1.00
H59    H     0.18120   0.84380   0.38920   0.01267  Uiso   1.00
H60    H     0.09810   0.82690   0.34040   0.01267  Uiso   1.00
H61    H     0.90230   0.88760   0.50230   0.01267  Uiso   1.00
H62    H     0.03370   0.87750   0.43420   0.01267  Uiso   1.00
H63    H     0.98590   0.55640   0.43380   0.01267  Uiso   1.00
H64    H     0.87760   0.57530   0.50910   0.01267  Uiso   1.00
H65    H     0.47120   0.13410   0.10000   0.01267  Uiso   1.00
H66    H     0.08200   0.07450   0.12260   0.01267  Uiso   1.00
H67    H     0.06450   0.93600   0.18450   0.01267  Uiso   1.00
H68    H     0.36450   0.01670   0.24230   0.01267  Uiso   1.00
H69    H     0.37210   0.15040   0.17650   0.01267  Uiso   1.00
H70    H     0.30460   0.91100   0.31540   0.01267  Uiso   1.00
H71    H     0.35460   0.82890   0.27190   0.01267  Uiso   1.00
H72    H     0.31880   0.65620   0.38920   0.01267  Uiso   1.00
H73    H     0.40190   0.67310   0.34040   0.01267  Uiso   1.00
H74    H     0.59770   0.61240   0.50230   0.01267  Uiso   1.00
H75    H     0.46630   0.62250   0.43420   0.01267  Uiso   1.00
H76    H     0.51410   0.94360   0.43380   0.01267  Uiso   1.00
H77    H     0.62240   0.92470   0.50910   0.01267  Uiso   1.00
H78    H     0.02880   0.36590   0.10000   0.01267  Uiso   1.00
H79    H     0.57450   0.91800   0.62260   0.01267  Uiso   1.00
H80    H     0.43600   0.93550   0.68450   0.01267  Uiso   1.00
H81    H     0.51670   0.63550   0.74230   0.01267  Uiso   1.00
H82    H     0.65040   0.62790   0.67650   0.01267  Uiso   1.00
H83    H     0.41100   0.69540   0.81540   0.01267  Uiso   1.00
H84    H     0.32890   0.64540   0.77190   0.01267  Uiso   1.00
H85    H     0.15620   0.68120   0.88920   0.01267  Uiso   1.00
H86    H     0.17310   0.59810   0.84040   0.01267  Uiso   1.00
H87    H     0.11240   0.40230   0.00230   0.01267  Uiso   1.00
H88    H     0.12250   0.53370   0.93420   0.01267  Uiso   1.00
H89    H     0.44360   0.48590   0.93380   0.01267  Uiso   1.00
H90    H     0.42470   0.37760   0.00910   0.01267  Uiso   1.00
H91    H     0.86590   0.97120   0.60000   0.01267  Uiso   1.00
H92    H     0.92550   0.58200   0.62260   0.01267  Uiso   1.00
H93    H     0.06400   0.56450   0.68450   0.01267  Uiso   1.00
H94    H     0.98330   0.86450   0.74230   0.01267  Uiso   1.00
H95    H     0.84960   0.87210   0.67650   0.01267  Uiso   1.00
H96    H     0.08900   0.80460   0.81540   0.01267  Uiso   1.00
H97    H     0.17110   0.85460   0.77190   0.01267  Uiso   1.00
H98    H     0.34380   0.81880   0.88920   0.01267  Uiso   1.00
H99    H     0.32690   0.90190   0.84040   0.01267  Uiso   1.00
H100   H     0.38760   0.09770   0.00230   0.01267  Uiso   1.00
H101   H     0.37750   0.96630   0.93420   0.01267  Uiso   1.00
H102   H     0.05640   0.01410   0.93380   0.01267  Uiso   1.00
H103   H     0.07530   0.12240   0.00910   0.01267  Uiso   1.00
H104   H     0.63410   0.52880   0.60000   0.01267  Uiso   1.00
C51    C     0.35960   0.43860   0.14646   0.01267  Uiso   1.00
C52    C     0.37140   0.52140   0.18370   0.01267  Uiso   1.00
C53    C     0.28600   0.54130   0.22058   0.01267  Uiso   1.00
C54    C     0.19380   0.47450   0.21797   0.01267  Uiso   1.00
C55    C     0.19080   0.39400   0.17803   0.01267  Uiso   1.00
C56    C     0.21170   0.65200   0.29218   0.01267  Uiso   1.00
C57    C     0.15410   0.79100   0.36255   0.01267  Uiso   1.00
C58    C     0.92320   0.81800   0.48982   0.01267  Uiso   1.00
C59    C     0.00220   0.81320   0.44816   0.01267  Uiso   1.00
C60    C     0.03120   0.71350   0.42901   0.01267  Uiso   1.00
C61    C     0.97620   0.62600   0.44932   0.01267  Uiso   1.00
C62    C     0.90590   0.63890   0.49281   0.01267  Uiso   1.00
C63    C     0.14040   0.06140   0.14646   0.01267  Uiso   1.00
C64    C     0.12860   0.97860   0.18370   0.01267  Uiso   1.00
C65    C     0.21400   0.95870   0.22058   0.01267  Uiso   1.00
C66    C     0.30620   0.02550   0.21797   0.01267  Uiso   1.00
C67    C     0.30920   0.10600   0.17803   0.01267  Uiso   1.00
C68    C     0.28830   0.84800   0.29218   0.01267  Uiso   1.00
C69    C     0.34590   0.70900   0.36255   0.01267  Uiso   1.00
C70    C     0.57680   0.68200   0.48982   0.01267  Uiso   1.00
C71    C     0.49780   0.68680   0.44816   0.01267  Uiso   1.00
C72    C     0.46880   0.78650   0.42901   0.01267  Uiso   1.00
C73    C     0.52380   0.87400   0.44932   0.01267  Uiso   1.00
C74    C     0.59410   0.86110   0.49281   0.01267  Uiso   1.00
C75    C     0.56140   0.85960   0.64646   0.01267  Uiso   1.00
C76    C     0.47860   0.87140   0.68370   0.01267  Uiso   1.00
C77    C     0.45870   0.78600   0.72058   0.01267  Uiso   1.00
C78    C     0.52550   0.69380   0.71797   0.01267  Uiso   1.00
C79    C     0.60600   0.69080   0.67803   0.01267  Uiso   1.00
C80    C     0.34800   0.71170   0.79218   0.01267  Uiso   1.00
C81    C     0.20900   0.65410   0.86255   0.01267  Uiso   1.00
C82    C     0.18200   0.42320   0.98982   0.01267  Uiso   1.00
C83    C     0.18680   0.50220   0.94816   0.01267  Uiso   1.00
C84    C     0.28650   0.53120   0.92901   0.01267  Uiso   1.00
C85    C     0.37400   0.47620   0.94932   0.01267  Uiso   1.00
C86    C     0.36110   0.40590   0.99281   0.01267  Uiso   1.00
C87    C     0.93860   0.64040   0.64646   0.01267  Uiso   1.00
C88    C     0.02140   0.62860   0.68370   0.01267  Uiso   1.00
C89    C     0.04130   0.71400   0.72058   0.01267  Uiso   1.00
C90    C     0.97450   0.80620   0.71797   0.01267  Uiso   1.00
C91    C     0.89400   0.80920   0.67803   0.01267  Uiso   1.00
C92    C     0.15200   0.78830   0.79218   0.01267  Uiso   1.00
C93    C     0.29100   0.84590   0.86255   0.01267  Uiso   1.00
C94    C     0.31800   0.07680   0.98982   0.01267  Uiso   1.00
C95    C     0.31320   0.99780   0.94816   0.01267  Uiso   1.00
C96    C     0.21350   0.96880   0.92901   0.01267  Uiso   1.00
C97    C     0.12600   0.02380   0.94932   0.01267  Uiso   1.00
C98    C     0.13890   0.09410   0.99281   0.01267  Uiso   1.00
C99    C     0.25000   0.75000   0.32638   0.01267  Uiso   1.00
C100   C     0.25000   0.75000   0.82638   0.01267  Uiso   1.00
S5     S     0.45080   0.22122   0.07879   0.01267  Uiso   1.00
S6     S     0.04920   0.27878   0.07879   0.01267  Uiso   1.00
S7     S     0.77878   0.95080   0.57879   0.01267  Uiso   1.00
S8     S     0.72122   0.54920   0.57879   0.01267  Uiso   1.00
N9     N     0.26890   0.37440   0.14185   0.01267  Uiso   1.00
N10    N     0.87690   0.73230   0.51241   0.01267  Uiso   1.00
N11    N     0.23110   0.12560   0.14185   0.01267  Uiso   1.00
N12    N     0.62310   0.76770   0.51241   0.01267  Uiso   1.00
N13    N     0.62560   0.76890   0.64185   0.01267  Uiso   1.00
N14    N     0.26770   0.37690   0.01241   0.01267  Uiso   1.00
N15    N     0.87440   0.73110   0.64185   0.01267  Uiso   1.00
N16    N     0.23230   0.12310   0.01241   0.01267  Uiso   1.00
O9     O     0.30052   0.62605   0.25549   0.01267  Uiso   1.00
O10    O     0.10813   0.69570   0.38953   0.01267  Uiso   1.00
O11    O     0.19948   0.87395   0.25549   0.01267  Uiso   1.00
O12    O     0.39187   0.80430   0.38953   0.01267  Uiso   1.00
O13    O     0.37395   0.80052   0.75549   0.01267  Uiso   1.00
O14    O     0.30430   0.60813   0.88953   0.01267  Uiso   1.00
O15    O     0.12605   0.69948   0.75549   0.01267  Uiso   1.00
O16    O     0.19570   0.89187   0.88953   0.01267  Uiso   1.00
