data_image0
_cell_length_a       20.8002
_cell_length_b       20.8002
_cell_length_c       20.8002
_cell_angle_alpha    90
_cell_angle_beta     90
_cell_angle_gamma    90

_symmetry_space_group_name_H-M    "P 1"
_symmetry_int_tables_number       1

loop_
  _symmetry_equiv_pos_as_xyz
  'x, y, z'

loop_
  _atom_site_label
  _atom_site_occupancy
  _atom_site_fract_x
  _atom_site_fract_y
  _atom_site_fract_z
  _atom_site_thermal_displace_type
  _atom_site_B_iso_or_equiv
  _atom_site_type_symbol
  C1       1.0000 0.21620  0.94060  0.23420  Biso   1.000  C
  C2       1.0000 0.21620  0.44060  0.73420  Biso   1.000  C
  C3       1.0000 0.71620  0.94060  0.73420  Biso   1.000  C
  C4       1.0000 0.71620  0.44060  0.23420  Biso   1.000  C
  C5       1.0000 0.78380  0.05940  0.23420  Biso   1.000  C
  C6       1.0000 0.78380  0.55940  0.73420  Biso   1.000  C
  C7       1.0000 0.28380  0.05940  0.73420  Biso   1.000  C
  C8       1.0000 0.28380  0.55940  0.23420  Biso   1.000  C
  C9       1.0000 0.78380  0.94060  0.76580  Biso   1.000  C
  C10      1.0000 0.78380  0.44060  0.26580  Biso   1.000  C
  C11      1.0000 0.28380  0.94060  0.26580  Biso   1.000  C
  C12      1.0000 0.28380  0.44060  0.76580  Biso   1.000  C
  C13      1.0000 0.21620  0.05940  0.76580  Biso   1.000  C
  C14      1.0000 0.21620  0.55940  0.26580  Biso   1.000  C
  C15      1.0000 0.71620  0.05940  0.26580  Biso   1.000  C
  C16      1.0000 0.71620  0.55940  0.76580  Biso   1.000  C
  C17      1.0000 0.23420  0.21620  0.94060  Biso   1.000  C
  C18      1.0000 0.23420  0.71620  0.44060  Biso   1.000  C
  C19      1.0000 0.73420  0.21620  0.44060  Biso   1.000  C
  C20      1.0000 0.73420  0.71620  0.94060  Biso   1.000  C
  C21      1.0000 0.23420  0.78380  0.05940  Biso   1.000  C
  C22      1.0000 0.23420  0.28380  0.55940  Biso   1.000  C
  C23      1.0000 0.73420  0.78380  0.55940  Biso   1.000  C
  C24      1.0000 0.73420  0.28380  0.05940  Biso   1.000  C
  C25      1.0000 0.76580  0.78380  0.94060  Biso   1.000  C
  C26      1.0000 0.76580  0.28380  0.44060  Biso   1.000  C
  C27      1.0000 0.26580  0.78380  0.44060  Biso   1.000  C
  C28      1.0000 0.26580  0.28380  0.94060  Biso   1.000  C
  C29      1.0000 0.76580  0.21620  0.05940  Biso   1.000  C
  C30      1.0000 0.76580  0.71620  0.55940  Biso   1.000  C
  C31      1.0000 0.26580  0.21620  0.55940  Biso   1.000  C
  C32      1.0000 0.26580  0.71620  0.05940  Biso   1.000  C
  C33      1.0000 0.94060  0.23420  0.21620  Biso   1.000  C
  C34      1.0000 0.94060  0.73420  0.71620  Biso   1.000  C
  C35      1.0000 0.44060  0.23420  0.71620  Biso   1.000  C
  C36      1.0000 0.44060  0.73420  0.21620  Biso   1.000  C
  C37      1.0000 0.05940  0.23420  0.78380  Biso   1.000  C
  C38      1.0000 0.05940  0.73420  0.28380  Biso   1.000  C
  C39      1.0000 0.55940  0.23420  0.28380  Biso   1.000  C
  C40      1.0000 0.55940  0.73420  0.78380  Biso   1.000  C
  C41      1.0000 0.94060  0.76580  0.78380  Biso   1.000  C
  C42      1.0000 0.94060  0.26580  0.28380  Biso   1.000  C
  C43      1.0000 0.44060  0.76580  0.28380  Biso   1.000  C
  C44      1.0000 0.44060  0.26580  0.78380  Biso   1.000  C
  C45      1.0000 0.05940  0.76580  0.21620  Biso   1.000  C
  C46      1.0000 0.05940  0.26580  0.71620  Biso   1.000  C
  C47      1.0000 0.55940  0.76580  0.71620  Biso   1.000  C
  C48      1.0000 0.55940  0.26580  0.21620  Biso   1.000  C
  C49      1.0000 0.78380  0.05940  0.76580  Biso   1.000  C
  C50      1.0000 0.78380  0.55940  0.26580  Biso   1.000  C
  C51      1.0000 0.28380  0.05940  0.26580  Biso   1.000  C
  C52      1.0000 0.28380  0.55940  0.76580  Biso   1.000  C
  C53      1.0000 0.21620  0.94060  0.76580  Biso   1.000  C
  C54      1.0000 0.21620  0.44060  0.26580  Biso   1.000  C
  C55      1.0000 0.71620  0.94060  0.26580  Biso   1.000  C
  C56      1.0000 0.71620  0.44060  0.76580  Biso   1.000  C
  C57      1.0000 0.21620  0.05940  0.23420  Biso   1.000  C
  C58      1.0000 0.21620  0.55940  0.73420  Biso   1.000  C
  C59      1.0000 0.71620  0.05940  0.73420  Biso   1.000  C
  C60      1.0000 0.71620  0.55940  0.23420  Biso   1.000  C
  C61      1.0000 0.78380  0.94060  0.23420  Biso   1.000  C
  C62      1.0000 0.78380  0.44060  0.73420  Biso   1.000  C
  C63      1.0000 0.28380  0.94060  0.73420  Biso   1.000  C
  C64      1.0000 0.28380  0.44060  0.23420  Biso   1.000  C
  C65      1.0000 0.76580  0.78380  0.05940  Biso   1.000  C
  C66      1.0000 0.76580  0.28380  0.55940  Biso   1.000  C
  C67      1.0000 0.26580  0.78380  0.55940  Biso   1.000  C
  C68      1.0000 0.26580  0.28380  0.05940  Biso   1.000  C
  C69      1.0000 0.76580  0.21620  0.94060  Biso   1.000  C
  C70      1.0000 0.76580  0.71620  0.44060  Biso   1.000  C
  C71      1.0000 0.26580  0.21620  0.44060  Biso   1.000  C
  C72      1.0000 0.26580  0.71620  0.94060  Biso   1.000  C
  C73      1.0000 0.23420  0.21620  0.05940  Biso   1.000  C
  C74      1.0000 0.23420  0.71620  0.55940  Biso   1.000  C
  C75      1.0000 0.73420  0.21620  0.55940  Biso   1.000  C
  C76      1.0000 0.73420  0.71620  0.05940  Biso   1.000  C
  C77      1.0000 0.23420  0.78380  0.94060  Biso   1.000  C
  C78      1.0000 0.23420  0.28380  0.44060  Biso   1.000  C
  C79      1.0000 0.73420  0.78380  0.44060  Biso   1.000  C
  C80      1.0000 0.73420  0.28380  0.94060  Biso   1.000  C
  C81      1.0000 0.05940  0.76580  0.78380  Biso   1.000  C
  C82      1.0000 0.05940  0.26580  0.28380  Biso   1.000  C
  C83      1.0000 0.55940  0.76580  0.28380  Biso   1.000  C
  C84      1.0000 0.55940  0.26580  0.78380  Biso   1.000  C
  C85      1.0000 0.94060  0.76580  0.21620  Biso   1.000  C
  C86      1.0000 0.94060  0.26580  0.71620  Biso   1.000  C
  C87      1.0000 0.44060  0.76580  0.71620  Biso   1.000  C
  C88      1.0000 0.44060  0.26580  0.21620  Biso   1.000  C
  C89      1.0000 0.05940  0.23420  0.21620  Biso   1.000  C
  C90      1.0000 0.05940  0.73420  0.71620  Biso   1.000  C
  C91      1.0000 0.55940  0.23420  0.71620  Biso   1.000  C
  C92      1.0000 0.55940  0.73420  0.21620  Biso   1.000  C
  C93      1.0000 0.94060  0.23420  0.78380  Biso   1.000  C
  C94      1.0000 0.94060  0.73420  0.28380  Biso   1.000  C
  C95      1.0000 0.44060  0.23420  0.28380  Biso   1.000  C
  C96      1.0000 0.44060  0.73420  0.78380  Biso   1.000  C
  Zr1      1.0000 0.00000  0.00000  0.11680  Biso   1.000  Zr
  Zr2      1.0000 0.00000  0.50000  0.61680  Biso   1.000  Zr
  Zr3      1.0000 0.50000  0.00000  0.61680  Biso   1.000  Zr
  Zr4      1.0000 0.50000  0.50000  0.11680  Biso   1.000  Zr
  Zr5      1.0000 0.00000  0.00000  0.88320  Biso   1.000  Zr
  Zr6      1.0000 0.00000  0.50000  0.38320  Biso   1.000  Zr
  Zr7      1.0000 0.50000  0.00000  0.38320  Biso   1.000  Zr
  Zr8      1.0000 0.50000  0.50000  0.88320  Biso   1.000  Zr
  Zr9      1.0000 0.11680  0.00000  0.00000  Biso   1.000  Zr
  Zr10     1.0000 0.11680  0.50000  0.50000  Biso   1.000  Zr
  Zr11     1.0000 0.61680  0.00000  0.50000  Biso   1.000  Zr
  Zr12     1.0000 0.61680  0.50000  0.00000  Biso   1.000  Zr
  Zr13     1.0000 0.88320  0.00000  0.00000  Biso   1.000  Zr
  Zr14     1.0000 0.88320  0.50000  0.50000  Biso   1.000  Zr
  Zr15     1.0000 0.38320  0.00000  0.50000  Biso   1.000  Zr
  Zr16     1.0000 0.38320  0.50000  0.00000  Biso   1.000  Zr
  Zr17     1.0000 0.00000  0.11680  0.00000  Biso   1.000  Zr
  Zr18     1.0000 0.00000  0.61680  0.50000  Biso   1.000  Zr
  Zr19     1.0000 0.50000  0.11680  0.50000  Biso   1.000  Zr
  Zr20     1.0000 0.50000  0.61680  0.00000  Biso   1.000  Zr
  Zr21     1.0000 0.00000  0.88320  0.00000  Biso   1.000  Zr
  Zr22     1.0000 0.00000  0.38320  0.50000  Biso   1.000  Zr
  Zr23     1.0000 0.50000  0.88320  0.50000  Biso   1.000  Zr
  Zr24     1.0000 0.50000  0.38320  0.00000  Biso   1.000  Zr
  O1       1.0000 0.05880  0.05880  0.05880  Biso   1.000  O
  O2       1.0000 0.05880  0.55880  0.55880  Biso   1.000  O
  O3       1.0000 0.55880  0.05880  0.55880  Biso   1.000  O
  O4       1.0000 0.55880  0.55880  0.05880  Biso   1.000  O
  O5       1.0000 0.94120  0.94120  0.05880  Biso   1.000  O
  O6       1.0000 0.94120  0.44120  0.55880  Biso   1.000  O
  O7       1.0000 0.44120  0.94120  0.55880  Biso   1.000  O
  O8       1.0000 0.44120  0.44120  0.05880  Biso   1.000  O
  O9       1.0000 0.94120  0.05880  0.94120  Biso   1.000  O
  O10      1.0000 0.94120  0.55880  0.44120  Biso   1.000  O
  O11      1.0000 0.44120  0.05880  0.44120  Biso   1.000  O
  O12      1.0000 0.44120  0.55880  0.94120  Biso   1.000  O
  O13      1.0000 0.05880  0.94120  0.94120  Biso   1.000  O
  O14      1.0000 0.05880  0.44120  0.44120  Biso   1.000  O
  O15      1.0000 0.55880  0.94120  0.44120  Biso   1.000  O
  O16      1.0000 0.55880  0.44120  0.94120  Biso   1.000  O
  O17      1.0000 0.94120  0.94120  0.94120  Biso   1.000  O
  O18      1.0000 0.94120  0.44120  0.44120  Biso   1.000  O
  O19      1.0000 0.44120  0.94120  0.44120  Biso   1.000  O
  O20      1.0000 0.44120  0.44120  0.94120  Biso   1.000  O
  O21      1.0000 0.05880  0.05880  0.94120  Biso   1.000  O
  O22      1.0000 0.05880  0.55880  0.44120  Biso   1.000  O
  O23      1.0000 0.55880  0.05880  0.44120  Biso   1.000  O
  O24      1.0000 0.55880  0.55880  0.94120  Biso   1.000  O
  O25      1.0000 0.05880  0.94120  0.05880  Biso   1.000  O
  O26      1.0000 0.05880  0.44120  0.55880  Biso   1.000  O
  O27      1.0000 0.55880  0.94120  0.55880  Biso   1.000  O
  O28      1.0000 0.55880  0.44120  0.05880  Biso   1.000  O
  O29      1.0000 0.94120  0.05880  0.05880  Biso   1.000  O
  O30      1.0000 0.94120  0.55880  0.55880  Biso   1.000  O
  O31      1.0000 0.44120  0.05880  0.55880  Biso   1.000  O
  O32      1.0000 0.44120  0.55880  0.05880  Biso   1.000  O
  O33      1.0000 0.08800  0.00000  0.17200  Biso   1.000  O
  O34      1.0000 0.17500  0.00000  0.08500  Biso   1.000  O
  C97      1.0000 0.15000  0.00000  0.14700  Biso   1.000  C
  C98      1.0000 0.21000  0.00000  0.19000  Biso   1.000  C
  O35      1.0000 0.08800  0.50000  0.67200  Biso   1.000  O
  O36      1.0000 0.17500  0.50000  0.58500  Biso   1.000  O
  C99      1.0000 0.15000  0.50000  0.64700  Biso   1.000  C
  C100     1.0000 0.21000  0.50000  0.69000  Biso   1.000  C
  O37      1.0000 0.58800  0.00000  0.67200  Biso   1.000  O
  O38      1.0000 0.67500  0.00000  0.58500  Biso   1.000  O
  C101     1.0000 0.65000  0.00000  0.64700  Biso   1.000  C
  C102     1.0000 0.71000  0.00000  0.69000  Biso   1.000  C
  O39      1.0000 0.58800  0.50000  0.17200  Biso   1.000  O
  O40      1.0000 0.67500  0.50000  0.08500  Biso   1.000  O
  C103     1.0000 0.65000  0.50000  0.14700  Biso   1.000  C
  C104     1.0000 0.71000  0.50000  0.19000  Biso   1.000  C
  O41      1.0000 0.91200  0.00000  0.17200  Biso   1.000  O
  O42      1.0000 0.82500  0.00000  0.08500  Biso   1.000  O
  C105     1.0000 0.85000  0.00000  0.14700  Biso   1.000  C
  C106     1.0000 0.79000  0.00000  0.19000  Biso   1.000  C
  O43      1.0000 0.91200  0.50000  0.67200  Biso   1.000  O
  O44      1.0000 0.82500  0.50000  0.58500  Biso   1.000  O
  C107     1.0000 0.85000  0.50000  0.64700  Biso   1.000  C
  C108     1.0000 0.79000  0.50000  0.69000  Biso   1.000  C
  O45      1.0000 0.41200  0.00000  0.67200  Biso   1.000  O
  O46      1.0000 0.32500  0.00000  0.58500  Biso   1.000  O
  C109     1.0000 0.35000  0.00000  0.64700  Biso   1.000  C
  C110     1.0000 0.29000  0.00000  0.69000  Biso   1.000  C
  O47      1.0000 0.41200  0.50000  0.17200  Biso   1.000  O
  O48      1.0000 0.32500  0.50000  0.08500  Biso   1.000  O
  C111     1.0000 0.35000  0.50000  0.14700  Biso   1.000  C
  C112     1.0000 0.29000  0.50000  0.19000  Biso   1.000  C
  O49      1.0000 0.91200  0.00000  0.82800  Biso   1.000  O
  O50      1.0000 0.82500  0.00000  0.91500  Biso   1.000  O
  C113     1.0000 0.85000  0.00000  0.85300  Biso   1.000  C
  C114     1.0000 0.79000  0.00000  0.81000  Biso   1.000  C
  O51      1.0000 0.91200  0.50000  0.32800  Biso   1.000  O
  O52      1.0000 0.82500  0.50000  0.41500  Biso   1.000  O
  C115     1.0000 0.85000  0.50000  0.35300  Biso   1.000  C
  C116     1.0000 0.79000  0.50000  0.31000  Biso   1.000  C
  O53      1.0000 0.41200  0.00000  0.32800  Biso   1.000  O
  O54      1.0000 0.32500  0.00000  0.41500  Biso   1.000  O
  C117     1.0000 0.35000  0.00000  0.35300  Biso   1.000  C
  C118     1.0000 0.29000  0.00000  0.31000  Biso   1.000  C
  O55      1.0000 0.41200  0.50000  0.82800  Biso   1.000  O
  O56      1.0000 0.32500  0.50000  0.91500  Biso   1.000  O
  C119     1.0000 0.35000  0.50000  0.85300  Biso   1.000  C
  C120     1.0000 0.29000  0.50000  0.81000  Biso   1.000  C
  O57      1.0000 0.08800  0.00000  0.82800  Biso   1.000  O
  O58      1.0000 0.17500  0.00000  0.91500  Biso   1.000  O
  C121     1.0000 0.15000  0.00000  0.85300  Biso   1.000  C
  C122     1.0000 0.21000  0.00000  0.81000  Biso   1.000  C
  O59      1.0000 0.08800  0.50000  0.32800  Biso   1.000  O
  O60      1.0000 0.17500  0.50000  0.41500  Biso   1.000  O
  C123     1.0000 0.15000  0.50000  0.35300  Biso   1.000  C
  C124     1.0000 0.21000  0.50000  0.31000  Biso   1.000  C
  O61      1.0000 0.58800  0.00000  0.32800  Biso   1.000  O
  O62      1.0000 0.67500  0.00000  0.41500  Biso   1.000  O
  C125     1.0000 0.65000  0.00000  0.35300  Biso   1.000  C
  C126     1.0000 0.71000  0.00000  0.31000  Biso   1.000  C
  O63      1.0000 0.58800  0.50000  0.82800  Biso   1.000  O
  O64      1.0000 0.67500  0.50000  0.91500  Biso   1.000  O
  C127     1.0000 0.65000  0.50000  0.85300  Biso   1.000  C
  C128     1.0000 0.71000  0.50000  0.81000  Biso   1.000  C
  O65      1.0000 0.17200  0.08800  0.00000  Biso   1.000  O
  O66      1.0000 0.08500  0.17500  0.00000  Biso   1.000  O
  C129     1.0000 0.14700  0.15000  0.00000  Biso   1.000  C
  C130     1.0000 0.19000  0.21000  0.00000  Biso   1.000  C
  O67      1.0000 0.17200  0.58800  0.50000  Biso   1.000  O
  O68      1.0000 0.08500  0.67500  0.50000  Biso   1.000  O
  C131     1.0000 0.14700  0.65000  0.50000  Biso   1.000  C
  C132     1.0000 0.19000  0.71000  0.50000  Biso   1.000  C
  O69      1.0000 0.67200  0.08800  0.50000  Biso   1.000  O
  O70      1.0000 0.58500  0.17500  0.50000  Biso   1.000  O
  C133     1.0000 0.64700  0.15000  0.50000  Biso   1.000  C
  C134     1.0000 0.69000  0.21000  0.50000  Biso   1.000  C
  O71      1.0000 0.67200  0.58800  0.00000  Biso   1.000  O
  O72      1.0000 0.58500  0.67500  0.00000  Biso   1.000  O
  C135     1.0000 0.64700  0.65000  0.00000  Biso   1.000  C
  C136     1.0000 0.69000  0.71000  0.00000  Biso   1.000  C
  O73      1.0000 0.17200  0.91200  0.00000  Biso   1.000  O
  O74      1.0000 0.08500  0.82500  0.00000  Biso   1.000  O
  C137     1.0000 0.14700  0.85000  0.00000  Biso   1.000  C
  C138     1.0000 0.19000  0.79000  0.00000  Biso   1.000  C
  O75      1.0000 0.17200  0.41200  0.50000  Biso   1.000  O
  O76      1.0000 0.08500  0.32500  0.50000  Biso   1.000  O
  C139     1.0000 0.14700  0.35000  0.50000  Biso   1.000  C
  C140     1.0000 0.19000  0.29000  0.50000  Biso   1.000  C
  O77      1.0000 0.67200  0.91200  0.50000  Biso   1.000  O
  O78      1.0000 0.58500  0.82500  0.50000  Biso   1.000  O
  C141     1.0000 0.64700  0.85000  0.50000  Biso   1.000  C
  C142     1.0000 0.69000  0.79000  0.50000  Biso   1.000  C
  O79      1.0000 0.67200  0.41200  0.00000  Biso   1.000  O
  O80      1.0000 0.58500  0.32500  0.00000  Biso   1.000  O
  C143     1.0000 0.64700  0.35000  0.00000  Biso   1.000  C
  C144     1.0000 0.69000  0.29000  0.00000  Biso   1.000  C
  O81      1.0000 0.82800  0.91200  0.00000  Biso   1.000  O
  O82      1.0000 0.91500  0.82500  0.00000  Biso   1.000  O
  C145     1.0000 0.85300  0.85000  0.00000  Biso   1.000  C
  C146     1.0000 0.81000  0.79000  0.00000  Biso   1.000  C
  O83      1.0000 0.82800  0.41200  0.50000  Biso   1.000  O
  O84      1.0000 0.91500  0.32500  0.50000  Biso   1.000  O
  C147     1.0000 0.85300  0.35000  0.50000  Biso   1.000  C
  C148     1.0000 0.81000  0.29000  0.50000  Biso   1.000  C
  O85      1.0000 0.32800  0.91200  0.50000  Biso   1.000  O
  O86      1.0000 0.41500  0.82500  0.50000  Biso   1.000  O
  C149     1.0000 0.35300  0.85000  0.50000  Biso   1.000  C
  C150     1.0000 0.31000  0.79000  0.50000  Biso   1.000  C
  O87      1.0000 0.32800  0.41200  0.00000  Biso   1.000  O
  O88      1.0000 0.41500  0.32500  0.00000  Biso   1.000  O
  C151     1.0000 0.35300  0.35000  0.00000  Biso   1.000  C
  C152     1.0000 0.31000  0.29000  0.00000  Biso   1.000  C
  O89      1.0000 0.82800  0.08800  0.00000  Biso   1.000  O
  O90      1.0000 0.91500  0.17500  0.00000  Biso   1.000  O
  C153     1.0000 0.85300  0.15000  0.00000  Biso   1.000  C
  C154     1.0000 0.81000  0.21000  0.00000  Biso   1.000  C
  O91      1.0000 0.82800  0.58800  0.50000  Biso   1.000  O
  O92      1.0000 0.91500  0.67500  0.50000  Biso   1.000  O
  C155     1.0000 0.85300  0.65000  0.50000  Biso   1.000  C
  C156     1.0000 0.81000  0.71000  0.50000  Biso   1.000  C
  O93      1.0000 0.32800  0.08800  0.50000  Biso   1.000  O
  O94      1.0000 0.41500  0.17500  0.50000  Biso   1.000  O
  C157     1.0000 0.35300  0.15000  0.50000  Biso   1.000  C
  C158     1.0000 0.31000  0.21000  0.50000  Biso   1.000  C
  O95      1.0000 0.32800  0.58800  0.00000  Biso   1.000  O
  O96      1.0000 0.41500  0.67500  0.00000  Biso   1.000  O
  C159     1.0000 0.35300  0.65000  0.00000  Biso   1.000  C
  C160     1.0000 0.31000  0.71000  0.00000  Biso   1.000  C
  O97      1.0000 0.00000  0.17200  0.08800  Biso   1.000  O
  O98      1.0000 0.00000  0.08500  0.17500  Biso   1.000  O
  C161     1.0000 0.00000  0.14700  0.15000  Biso   1.000  C
  C162     1.0000 0.00000  0.19000  0.21000  Biso   1.000  C
  O99      1.0000 0.00000  0.67200  0.58800  Biso   1.000  O
  O100     1.0000 0.00000  0.58500  0.67500  Biso   1.000  O
  C163     1.0000 0.00000  0.64700  0.65000  Biso   1.000  C
  C164     1.0000 0.00000  0.69000  0.71000  Biso   1.000  C
  O101     1.0000 0.50000  0.17200  0.58800  Biso   1.000  O
  O102     1.0000 0.50000  0.08500  0.67500  Biso   1.000  O
  C165     1.0000 0.50000  0.14700  0.65000  Biso   1.000  C
  C166     1.0000 0.50000  0.19000  0.71000  Biso   1.000  C
  O103     1.0000 0.50000  0.67200  0.08800  Biso   1.000  O
  O104     1.0000 0.50000  0.58500  0.17500  Biso   1.000  O
  C167     1.0000 0.50000  0.64700  0.15000  Biso   1.000  C
  C168     1.0000 0.50000  0.69000  0.21000  Biso   1.000  C
  O105     1.0000 0.00000  0.17200  0.91200  Biso   1.000  O
  O106     1.0000 0.00000  0.08500  0.82500  Biso   1.000  O
  C169     1.0000 0.00000  0.14700  0.85000  Biso   1.000  C
  C170     1.0000 0.00000  0.19000  0.79000  Biso   1.000  C
  O107     1.0000 0.00000  0.67200  0.41200  Biso   1.000  O
  O108     1.0000 0.00000  0.58500  0.32500  Biso   1.000  O
  C171     1.0000 0.00000  0.64700  0.35000  Biso   1.000  C
  C172     1.0000 0.00000  0.69000  0.29000  Biso   1.000  C
  O109     1.0000 0.50000  0.17200  0.41200  Biso   1.000  O
  O110     1.0000 0.50000  0.08500  0.32500  Biso   1.000  O
  C173     1.0000 0.50000  0.14700  0.35000  Biso   1.000  C
  C174     1.0000 0.50000  0.19000  0.29000  Biso   1.000  C
  O111     1.0000 0.50000  0.67200  0.91200  Biso   1.000  O
  O112     1.0000 0.50000  0.58500  0.82500  Biso   1.000  O
  C175     1.0000 0.50000  0.64700  0.85000  Biso   1.000  C
  C176     1.0000 0.50000  0.69000  0.79000  Biso   1.000  C
  O113     1.0000 0.00000  0.82800  0.91200  Biso   1.000  O
  O114     1.0000 0.00000  0.91500  0.82500  Biso   1.000  O
  C177     1.0000 0.00000  0.85300  0.85000  Biso   1.000  C
  C178     1.0000 0.00000  0.81000  0.79000  Biso   1.000  C
  O115     1.0000 0.00000  0.32800  0.41200  Biso   1.000  O
  O116     1.0000 0.00000  0.41500  0.32500  Biso   1.000  O
  C179     1.0000 0.00000  0.35300  0.35000  Biso   1.000  C
  C180     1.0000 0.00000  0.31000  0.29000  Biso   1.000  C
  O117     1.0000 0.50000  0.82800  0.41200  Biso   1.000  O
  O118     1.0000 0.50000  0.91500  0.32500  Biso   1.000  O
  C181     1.0000 0.50000  0.85300  0.35000  Biso   1.000  C
  C182     1.0000 0.50000  0.81000  0.29000  Biso   1.000  C
  O119     1.0000 0.50000  0.32800  0.91200  Biso   1.000  O
  O120     1.0000 0.50000  0.41500  0.82500  Biso   1.000  O
  C183     1.0000 0.50000  0.35300  0.85000  Biso   1.000  C
  C184     1.0000 0.50000  0.31000  0.79000  Biso   1.000  C
  O121     1.0000 0.00000  0.82800  0.08800  Biso   1.000  O
  O122     1.0000 0.00000  0.91500  0.17500  Biso   1.000  O
  C185     1.0000 0.00000  0.85300  0.15000  Biso   1.000  C
  C186     1.0000 0.00000  0.81000  0.21000  Biso   1.000  C
  O123     1.0000 0.00000  0.32800  0.58800  Biso   1.000  O
  O124     1.0000 0.00000  0.41500  0.67500  Biso   1.000  O
  C187     1.0000 0.00000  0.35300  0.65000  Biso   1.000  C
  C188     1.0000 0.00000  0.31000  0.71000  Biso   1.000  C
  O125     1.0000 0.50000  0.82800  0.58800  Biso   1.000  O
  O126     1.0000 0.50000  0.91500  0.67500  Biso   1.000  O
  C189     1.0000 0.50000  0.85300  0.65000  Biso   1.000  C
  C190     1.0000 0.50000  0.81000  0.71000  Biso   1.000  C
  O127     1.0000 0.50000  0.32800  0.08800  Biso   1.000  O
  O128     1.0000 0.50000  0.41500  0.17500  Biso   1.000  O
  C191     1.0000 0.50000  0.35300  0.15000  Biso   1.000  C
  C192     1.0000 0.50000  0.31000  0.21000  Biso   1.000  C
