data_UKULOB01_clean
_audit_creation_date              2014-07-02
_audit_creation_method            'Materials Studio'
_symmetry_space_group_name_H-M    'P1'
_symmetry_Int_Tables_number       1
_symmetry_cell_setting            triclinic
loop_
_symmetry_equiv_pos_as_xyz
  x,y,z
_cell_length_a                    7.3852
_cell_length_b                    13.2962
_cell_length_c                    14.7035
_cell_angle_alpha                 90.0000
_cell_angle_beta                  91.4410
_cell_angle_gamma                 90.0000
loop_
_atom_site_label
_atom_site_type_symbol
_atom_site_fract_x
_atom_site_fract_y
_atom_site_fract_z
_atom_site_U_iso_or_equiv
_atom_site_adp_type
_atom_site_occupancy
Fe1    Fe    0.50000   0.50000   0.00000   0.01267  Uiso   1.00
Fe2    Fe    0.00000   0.00000   0.00000   0.01267  Uiso   1.00
Fe3    Fe    0.00000   0.00000   0.50000   0.01267  Uiso   1.00
Fe4    Fe    0.50000   0.50000   0.50000   0.01267  Uiso   1.00
Ag1    Ag    0.73004   0.24500   0.74968   0.01267  Uiso   1.00
Ag2    Ag    0.97177   0.44327   0.77109   0.01267  Uiso   1.00
Ag3    Ag    0.76996   0.74500   0.25032   0.01267  Uiso   1.00
Ag4    Ag    0.52823   0.94327   0.22890   0.01267  Uiso   1.00
Ag5    Ag    0.26996   0.75500   0.25032   0.01267  Uiso   1.00
Ag6    Ag    0.02823   0.55673   0.22890   0.01267  Uiso   1.00
Ag7    Ag    0.23004   0.25500   0.74968   0.01267  Uiso   1.00
Ag8    Ag    0.47177   0.05673   0.77109   0.01267  Uiso   1.00
H1     H     0.43500   0.26900   0.01900   0.01267  Uiso   1.00
H2     H     0.44700   0.14300   0.12200   0.01267  Uiso   1.00
H3     H     0.52300   0.18500   0.27400   0.01267  Uiso   1.00
H4     H     0.53900   0.46300   0.20670   0.01267  Uiso   1.00
H5     H     0.06500   0.76900   0.98100   0.01267  Uiso   1.00
H6     H     0.05300   0.64300   0.87800   0.01267  Uiso   1.00
H7     H     0.97700   0.68500   0.72600   0.01267  Uiso   1.00
H8     H     0.96100   0.96300   0.79330   0.01267  Uiso   1.00
H9     H     0.56500   0.73100   0.98100   0.01267  Uiso   1.00
H10    H     0.55300   0.85700   0.87800   0.01267  Uiso   1.00
H11    H     0.47700   0.81500   0.72600   0.01267  Uiso   1.00
H12    H     0.46100   0.53700   0.79330   0.01267  Uiso   1.00
H13    H     0.93500   0.23100   0.01900   0.01267  Uiso   1.00
H14    H     0.94700   0.35700   0.12200   0.01267  Uiso   1.00
H15    H     0.02300   0.31500   0.27400   0.01267  Uiso   1.00
H16    H     0.03900   0.03700   0.20670   0.01267  Uiso   1.00
C1     C     0.66120   0.33906   0.85483   0.01267  Uiso   1.00
C2     C     0.14020   0.44264   0.88503   0.01267  Uiso   1.00
C3     C     0.45940   0.28378   0.07943   0.01267  Uiso   1.00
C4     C     0.47070   0.20660   0.14148   0.01267  Uiso   1.00
C5     C     0.50760   0.23130   0.23067   0.01267  Uiso   1.00
C6     C     0.51900   0.39616   0.19279   0.01267  Uiso   1.00
C7     C     0.80550   0.15214   0.64501   0.01267  Uiso   1.00
C8     C     0.81360   0.47908   0.65826   0.01267  Uiso   1.00
C9     C     0.83880   0.83906   0.14517   0.01267  Uiso   1.00
C10    C     0.35980   0.94264   0.11497   0.01267  Uiso   1.00
C11    C     0.04060   0.78378   0.92057   0.01267  Uiso   1.00
C12    C     0.02930   0.70660   0.85852   0.01267  Uiso   1.00
C13    C     0.99240   0.73130   0.76933   0.01267  Uiso   1.00
C14    C     0.98100   0.89616   0.80721   0.01267  Uiso   1.00
C15    C     0.69450   0.65214   0.35499   0.01267  Uiso   1.00
C16    C     0.68640   0.97908   0.34174   0.01267  Uiso   1.00
C17    C     0.33880   0.66094   0.14517   0.01267  Uiso   1.00
C18    C     0.85980   0.55736   0.11497   0.01267  Uiso   1.00
C19    C     0.54060   0.71622   0.92057   0.01267  Uiso   1.00
C20    C     0.52930   0.79340   0.85852   0.01267  Uiso   1.00
C21    C     0.49240   0.76870   0.76933   0.01267  Uiso   1.00
C22    C     0.48100   0.60384   0.80721   0.01267  Uiso   1.00
C23    C     0.19450   0.84786   0.35499   0.01267  Uiso   1.00
C24    C     0.18640   0.52092   0.34174   0.01267  Uiso   1.00
C25    C     0.16120   0.16094   0.85483   0.01267  Uiso   1.00
C26    C     0.64020   0.05736   0.88503   0.01267  Uiso   1.00
C27    C     0.95940   0.21622   0.07943   0.01267  Uiso   1.00
C28    C     0.97070   0.29340   0.14148   0.01267  Uiso   1.00
C29    C     0.00760   0.26870   0.23067   0.01267  Uiso   1.00
C30    C     0.01900   0.10384   0.19279   0.01267  Uiso   1.00
C31    C     0.30550   0.34786   0.64501   0.01267  Uiso   1.00
C32    C     0.31360   0.02092   0.65826   0.01267  Uiso   1.00
N1     N     0.62080   0.39426   0.91026   0.01267  Uiso   1.00
N2     N     0.24600   0.45332   0.94215   0.01267  Uiso   1.00
N3     N     0.48550   0.37946   0.10440   0.01267  Uiso   1.00
N4     N     0.53200   0.32643   0.25752   0.01267  Uiso   1.00
N5     N     0.85280   0.09912   0.58998   0.01267  Uiso   1.00
N6     N     0.71570   0.49830   0.59979   0.01267  Uiso   1.00
N7     N     0.87920   0.89426   0.08974   0.01267  Uiso   1.00
N8     N     0.25400   0.95332   0.05785   0.01267  Uiso   1.00
N9     N     0.01450   0.87946   0.89560   0.01267  Uiso   1.00
N10    N     0.96800   0.82643   0.74248   0.01267  Uiso   1.00
N11    N     0.64720   0.59912   0.41002   0.01267  Uiso   1.00
N12    N     0.78430   0.99830   0.40021   0.01267  Uiso   1.00
N13    N     0.37920   0.60574   0.08974   0.01267  Uiso   1.00
N14    N     0.75400   0.54668   0.05785   0.01267  Uiso   1.00
N15    N     0.51450   0.62054   0.89560   0.01267  Uiso   1.00
N16    N     0.46800   0.67357   0.74248   0.01267  Uiso   1.00
N17    N     0.14720   0.90088   0.41002   0.01267  Uiso   1.00
N18    N     0.28430   0.50170   0.40021   0.01267  Uiso   1.00
N19    N     0.12080   0.10574   0.91026   0.01267  Uiso   1.00
N20    N     0.74600   0.04668   0.94215   0.01267  Uiso   1.00
N21    N     0.98550   0.12054   0.10440   0.01267  Uiso   1.00
N22    N     0.03200   0.17357   0.25752   0.01267  Uiso   1.00
N23    N     0.35280   0.40088   0.58998   0.01267  Uiso   1.00
N24    N     0.21570   0.00170   0.59979   0.01267  Uiso   1.00
