data_UKULOB_clean
_audit_creation_date              2014-07-02
_audit_creation_method            'Materials Studio'
_symmetry_space_group_name_H-M    'P1'
_symmetry_Int_Tables_number       1
_symmetry_cell_setting            triclinic
loop_
_symmetry_equiv_pos_as_xyz
  x,y,z
_cell_length_a                    7.4930
_cell_length_b                    13.0528
_cell_length_c                    14.2584
_cell_angle_alpha                 90.0000
_cell_angle_beta                  92.0550
_cell_angle_gamma                 90.0000
loop_
_atom_site_label
_atom_site_type_symbol
_atom_site_fract_x
_atom_site_fract_y
_atom_site_fract_z
_atom_site_U_iso_or_equiv
_atom_site_adp_type
_atom_site_occupancy
Fe1    Fe    0.50000   0.50000   0.00000   0.01267  Uiso   1.00
Fe2    Fe    0.00000   0.00000   0.00000   0.01267  Uiso   1.00
Fe3    Fe    1.00000   0.00000   0.50000   0.01267  Uiso   1.00
Fe4    Fe    0.50000   0.50000   0.50000   0.01267  Uiso   1.00
Ag1    Ag    0.72949   0.24462   0.75932   0.01267  Uiso   1.00
Ag2    Ag    0.96395   0.44483   0.78324   0.01267  Uiso   1.00
Ag3    Ag    0.77051   0.74462   0.24068   0.01267  Uiso   1.00
Ag4    Ag    0.53605   0.94483   0.21676   0.01267  Uiso   1.00
Ag5    Ag    0.27051   0.75538   0.24068   0.01267  Uiso   1.00
Ag6    Ag    0.03605   0.55517   0.21676   0.01267  Uiso   1.00
Ag7    Ag    0.22949   0.25538   0.75932   0.01267  Uiso   1.00
Ag8    Ag    0.46395   0.05517   0.78324   0.01267  Uiso   1.00
H1     H     0.38700   0.28800   0.00500   0.01267  Uiso   1.00
H2     H     0.38200   0.15300   0.11300   0.01267  Uiso   1.00
H3     H     0.47800   0.19600   0.26500   0.01267  Uiso   1.00
H4     H     0.54100   0.47900   0.20900   0.01267  Uiso   1.00
H5     H     0.11300   0.78800   0.99500   0.01267  Uiso   1.00
H6     H     0.11800   0.65300   0.88700   0.01267  Uiso   1.00
H7     H     0.02200   0.69600   0.73500   0.01267  Uiso   1.00
H8     H     0.95900   0.97900   0.79100   0.01267  Uiso   1.00
H9     H     0.61300   0.71200   0.99500   0.01267  Uiso   1.00
H10    H     0.61800   0.84700   0.88700   0.01267  Uiso   1.00
H11    H     0.52200   0.80400   0.73500   0.01267  Uiso   1.00
H12    H     0.45900   0.52100   0.79100   0.01267  Uiso   1.00
H13    H     0.88700   0.21200   0.00500   0.01267  Uiso   1.00
H14    H     0.88200   0.34700   0.11300   0.01267  Uiso   1.00
H15    H     0.97800   0.30400   0.26500   0.01267  Uiso   1.00
H16    H     0.04100   0.02100   0.20900   0.01267  Uiso   1.00
C1     C     0.65830   0.34270   0.86510   0.01267  Uiso   1.00
C2     C     0.14860   0.44670   0.89380   0.01267  Uiso   1.00
C3     C     0.42390   0.29420   0.06950   0.01267  Uiso   1.00
C4     C     0.42150   0.21480   0.13320   0.01267  Uiso   1.00
C5     C     0.47080   0.23690   0.22530   0.01267  Uiso   1.00
C6     C     0.51460   0.40410   0.18737   0.01267  Uiso   1.00
C7     C     0.80490   0.15080   0.65150   0.01267  Uiso   1.00
C8     C     0.80810   0.48020   0.66540   0.01267  Uiso   1.00
C9     C     0.84170   0.84270   0.13490   0.01267  Uiso   1.00
C10    C     0.35140   0.94670   0.10620   0.01267  Uiso   1.00
C11    C     0.07610   0.79420   0.93050   0.01267  Uiso   1.00
C12    C     0.07850   0.71480   0.86680   0.01267  Uiso   1.00
C13    C     0.02920   0.73690   0.77470   0.01267  Uiso   1.00
C14    C     0.98540   0.90410   0.81263   0.01267  Uiso   1.00
C15    C     0.69510   0.65080   0.34850   0.01267  Uiso   1.00
C16    C     0.69190   0.98020   0.33460   0.01267  Uiso   1.00
C17    C     0.34170   0.65730   0.13490   0.01267  Uiso   1.00
C18    C     0.85140   0.55330   0.10620   0.01267  Uiso   1.00
C19    C     0.57610   0.70580   0.93050   0.01267  Uiso   1.00
C20    C     0.57850   0.78520   0.86680   0.01267  Uiso   1.00
C21    C     0.52920   0.76310   0.77470   0.01267  Uiso   1.00
C22    C     0.48540   0.59590   0.81263   0.01267  Uiso   1.00
C23    C     0.19510   0.84920   0.34850   0.01267  Uiso   1.00
C24    C     0.19190   0.51980   0.33460   0.01267  Uiso   1.00
C25    C     0.15830   0.15730   0.86510   0.01267  Uiso   1.00
C26    C     0.64860   0.05330   0.89380   0.01267  Uiso   1.00
C27    C     0.92390   0.20580   0.06950   0.01267  Uiso   1.00
C28    C     0.92150   0.28520   0.13320   0.01267  Uiso   1.00
C29    C     0.97080   0.26310   0.22530   0.01267  Uiso   1.00
C30    C     0.01460   0.09590   0.18737   0.01267  Uiso   1.00
C31    C     0.30490   0.34920   0.65150   0.01267  Uiso   1.00
C32    C     0.30810   0.01980   0.66540   0.01267  Uiso   1.00
N1     N     0.60900   0.40186   0.91839   0.01267  Uiso   1.00
N2     N     0.27220   0.46404   0.94169   0.01267  Uiso   1.00
N3     N     0.47320   0.38976   0.09519   0.01267  Uiso   1.00
N4     N     0.51620   0.33140   0.25283   0.01267  Uiso   1.00
N5     N     0.85360   0.09780   0.59396   0.01267  Uiso   1.00
N6     N     0.71280   0.49944   0.60380   0.01267  Uiso   1.00
N7     N     0.89100   0.90186   0.08161   0.01267  Uiso   1.00
N8     N     0.22780   0.96404   0.05831   0.01267  Uiso   1.00
N9     N     0.02680   0.88976   0.90481   0.01267  Uiso   1.00
N10    N     0.98380   0.83140   0.74717   0.01267  Uiso   1.00
N11    N     0.64640   0.59780   0.40604   0.01267  Uiso   1.00
N12    N     0.78720   0.99944   0.39620   0.01267  Uiso   1.00
N13    N     0.39100   0.59814   0.08161   0.01267  Uiso   1.00
N14    N     0.72780   0.53596   0.05831   0.01267  Uiso   1.00
N15    N     0.52680   0.61024   0.90481   0.01267  Uiso   1.00
N16    N     0.48380   0.66860   0.74717   0.01267  Uiso   1.00
N17    N     0.14640   0.90220   0.40604   0.01267  Uiso   1.00
N18    N     0.28720   0.50056   0.39620   0.01267  Uiso   1.00
N19    N     0.10900   0.09814   0.91839   0.01267  Uiso   1.00
N20    N     0.77220   0.03596   0.94169   0.01267  Uiso   1.00
N21    N     0.97320   0.11024   0.09519   0.01267  Uiso   1.00
N22    N     0.01620   0.16860   0.25283   0.01267  Uiso   1.00
N23    N     0.35360   0.40220   0.59396   0.01267  Uiso   1.00
N24    N     0.21280   0.00056   0.60380   0.01267  Uiso   1.00
