data_UKUMAO01_clean
_audit_creation_date              2014-07-02
_audit_creation_method            'Materials Studio'
_symmetry_space_group_name_H-M    'P1'
_symmetry_Int_Tables_number       1
_symmetry_cell_setting            triclinic
loop_
_symmetry_equiv_pos_as_xyz
  x,y,z
_cell_length_a                    7.2272
_cell_length_b                    13.3075
_cell_length_c                    14.6157
_cell_angle_alpha                 90.0000
_cell_angle_beta                  90.9440
_cell_angle_gamma                 90.0000
loop_
_atom_site_label
_atom_site_type_symbol
_atom_site_fract_x
_atom_site_fract_y
_atom_site_fract_z
_atom_site_U_iso_or_equiv
_atom_site_adp_type
_atom_site_occupancy
Fe1    Fe    0.50000   0.50000   0.00000   0.01267  Uiso   1.00
Fe2    Fe    0.00000   0.00000   0.00000   0.01267  Uiso   1.00
Fe3    Fe    0.00000   0.00000   0.50000   0.01267  Uiso   1.00
Fe4    Fe    0.50000   0.50000   0.50000   0.01267  Uiso   1.00
H1     H     0.39700   0.28900   0.01900   0.01267  Uiso   1.00
H2     H     0.40500   0.14800   0.12800   0.01267  Uiso   1.00
H3     H     0.49800   0.18400   0.27500   0.01267  Uiso   1.00
H4     H     0.52400   0.46500   0.20200   0.01267  Uiso   1.00
H5     H     0.10300   0.78900   0.98100   0.01267  Uiso   1.00
H6     H     0.09500   0.64800   0.87200   0.01267  Uiso   1.00
H7     H     0.00200   0.68400   0.72500   0.01267  Uiso   1.00
H8     H     0.97600   0.96500   0.79800   0.01267  Uiso   1.00
H9     H     0.60300   0.71100   0.98100   0.01267  Uiso   1.00
H10    H     0.59500   0.85200   0.87200   0.01267  Uiso   1.00
H11    H     0.50200   0.81600   0.72500   0.01267  Uiso   1.00
H12    H     0.47600   0.53500   0.79800   0.01267  Uiso   1.00
H13    H     0.89700   0.21100   0.01900   0.01267  Uiso   1.00
H14    H     0.90500   0.35200   0.12800   0.01267  Uiso   1.00
H15    H     0.99800   0.31600   0.27500   0.01267  Uiso   1.00
H16    H     0.02400   0.03500   0.20200   0.01267  Uiso   1.00
Au1    Au    0.73177   0.24511   0.75096   0.01267  Uiso   1.00
Au2    Au    0.97768   0.45569   0.76825   0.01267  Uiso   1.00
Au3    Au    0.76823   0.74511   0.24904   0.01267  Uiso   1.00
Au4    Au    0.52232   0.95569   0.23175   0.01267  Uiso   1.00
Au5    Au    0.26823   0.75489   0.24904   0.01267  Uiso   1.00
Au6    Au    0.02232   0.54431   0.23175   0.01267  Uiso   1.00
Au7    Au    0.23177   0.25489   0.75096   0.01267  Uiso   1.00
Au8    Au    0.47768   0.04431   0.76825   0.01267  Uiso   1.00
C1     C     0.65840   0.33310   0.85420   0.01267  Uiso   1.00
C2     C     0.13570   0.45170   0.88110   0.01267  Uiso   1.00
C3     C     0.42990   0.28980   0.08150   0.01267  Uiso   1.00
C4     C     0.43600   0.21230   0.14430   0.01267  Uiso   1.00
C5     C     0.48150   0.23600   0.23300   0.01267  Uiso   1.00
C6     C     0.50540   0.40030   0.19450   0.01267  Uiso   1.00
C7     C     0.80730   0.15730   0.64750   0.01267  Uiso   1.00
C8     C     0.82150   0.48020   0.65920   0.01267  Uiso   1.00
C9     C     0.84160   0.83310   0.14580   0.01267  Uiso   1.00
C10    C     0.36430   0.95170   0.11890   0.01267  Uiso   1.00
C11    C     0.07010   0.78980   0.91850   0.01267  Uiso   1.00
C12    C     0.06400   0.71230   0.85570   0.01267  Uiso   1.00
C13    C     0.01850   0.73600   0.76700   0.01267  Uiso   1.00
C14    C     0.99460   0.90030   0.80550   0.01267  Uiso   1.00
C15    C     0.69270   0.65730   0.35250   0.01267  Uiso   1.00
C16    C     0.67850   0.98020   0.34080   0.01267  Uiso   1.00
C17    C     0.34160   0.66690   0.14580   0.01267  Uiso   1.00
C18    C     0.86430   0.54830   0.11890   0.01267  Uiso   1.00
C19    C     0.57010   0.71020   0.91850   0.01267  Uiso   1.00
C20    C     0.56400   0.78770   0.85570   0.01267  Uiso   1.00
C21    C     0.51850   0.76400   0.76700   0.01267  Uiso   1.00
C22    C     0.49460   0.59970   0.80550   0.01267  Uiso   1.00
C23    C     0.19270   0.84270   0.35250   0.01267  Uiso   1.00
C24    C     0.17850   0.51980   0.34080   0.01267  Uiso   1.00
C25    C     0.15840   0.16690   0.85420   0.01267  Uiso   1.00
C26    C     0.63570   0.04830   0.88110   0.01267  Uiso   1.00
C27    C     0.92990   0.21020   0.08150   0.01267  Uiso   1.00
C28    C     0.93600   0.28770   0.14430   0.01267  Uiso   1.00
C29    C     0.98150   0.26400   0.23300   0.01267  Uiso   1.00
C30    C     0.00540   0.09970   0.19450   0.01267  Uiso   1.00
C31    C     0.30730   0.34270   0.64750   0.01267  Uiso   1.00
C32    C     0.32150   0.01980   0.65920   0.01267  Uiso   1.00
N1     N     0.61570   0.38610   0.91210   0.01267  Uiso   1.00
N2     N     0.23630   0.45860   0.94120   0.01267  Uiso   1.00
N3     N     0.46690   0.38500   0.10660   0.01267  Uiso   1.00
N4     N     0.51500   0.33040   0.25930   0.01267  Uiso   1.00
N5     N     0.85410   0.10510   0.59110   0.01267  Uiso   1.00
N6     N     0.72290   0.49740   0.59780   0.01267  Uiso   1.00
N7     N     0.88430   0.88610   0.08790   0.01267  Uiso   1.00
N8     N     0.26370   0.95860   0.05880   0.01267  Uiso   1.00
N9     N     0.03310   0.88500   0.89340   0.01267  Uiso   1.00
N10    N     0.98500   0.83040   0.74070   0.01267  Uiso   1.00
N11    N     0.64590   0.60510   0.40890   0.01267  Uiso   1.00
N12    N     0.77710   0.99740   0.40220   0.01267  Uiso   1.00
N13    N     0.38430   0.61390   0.08790   0.01267  Uiso   1.00
N14    N     0.76370   0.54140   0.05880   0.01267  Uiso   1.00
N15    N     0.53310   0.61500   0.89340   0.01267  Uiso   1.00
N16    N     0.48500   0.66960   0.74070   0.01267  Uiso   1.00
N17    N     0.14590   0.89490   0.40890   0.01267  Uiso   1.00
N18    N     0.27710   0.50260   0.40220   0.01267  Uiso   1.00
N19    N     0.11570   0.11390   0.91210   0.01267  Uiso   1.00
N20    N     0.73630   0.04140   0.94120   0.01267  Uiso   1.00
N21    N     0.96690   0.11500   0.10660   0.01267  Uiso   1.00
N22    N     0.01500   0.16960   0.25930   0.01267  Uiso   1.00
N23    N     0.35410   0.39490   0.59110   0.01267  Uiso   1.00
N24    N     0.22290   0.00260   0.59780   0.01267  Uiso   1.00
