data_image0
_cell_length_a       14.615
_cell_length_b       16.585
_cell_length_c       20.559
_cell_angle_alpha    99.33
_cell_angle_beta     107.46
_cell_angle_gamma    100.74

_symmetry_space_group_name_H-M    "P 1"
_symmetry_int_tables_number       1

loop_
  _symmetry_equiv_pos_as_xyz
  'x, y, z'

loop_
  _atom_site_label
  _atom_site_occupancy
  _atom_site_fract_x
  _atom_site_fract_y
  _atom_site_fract_z
  _atom_site_thermal_displace_type
  _atom_site_B_iso_or_equiv
  _atom_site_type_symbol
  Mn1      1.0000 0.06038  0.22073  0.23775  Biso   1.000  Mn
  Mn2      1.0000 0.14861  0.06266  0.18266  Biso   1.000  Mn
  Mn3      1.0000 0.00992  0.39337  0.34370  Biso   1.000  Mn
  O1       1.0000 0.98410  0.24640  0.31060  Biso   1.000  O
  O2       1.0000 0.94850  0.10370  0.17870  Biso   1.000  O
  O3       1.0000 0.23990  0.03880  0.12600  Biso   1.000  O
  O4       1.0000 0.14560  0.13700  0.28454  Biso   1.000  O
  O5       1.0000 0.92210  0.86680  0.96110  Biso   1.000  O
  O6       1.0000 0.98410  0.29210  0.17700  Biso   1.000  O
  O7       1.0000 0.12990  0.95540  0.02620  Biso   1.000  O
  O8       1.0000 0.86940  0.81870  0.84680  Biso   1.000  O
  O9       1.0000 0.83650  0.59480  0.62560  Biso   1.000  O
  O10      1.0000 0.99390  0.01150  0.11237  Biso   1.000  O
  O11      1.0000 0.80760  0.67920  0.70850  Biso   1.000  O
  O12      1.0000 0.99510  0.30870  0.41630  Biso   1.000  O
  O13      1.0000 0.29080  0.12980  0.27890  Biso   1.000  O
  O14      1.0000 0.59510  0.07620  0.15200  Biso   1.000  O
  C1       1.0000 0.62670  0.89310  0.04490  Biso   1.000  C
  O15      1.0000 0.50220  0.77560  0.97210  Biso   1.000  O
  C2       1.0000 0.38110  0.25620  0.40800  Biso   1.000  C
  H1       1.0000 0.42210  0.24780  0.38070  Biso   1.000  H
  C3       1.0000 0.29780  0.95140  0.05310  Biso   1.000  C
  C4       1.0000 0.82470  0.98580  0.10390  Biso   1.000  C
  C5       1.0000 0.65140  0.97230  0.09290  Biso   1.000  C
  C6       1.0000 0.41940  0.31440  0.47270  Biso   1.000  C
  C7       1.0000 0.98370  0.24250  0.37270  Biso   1.000  C
  O16      1.0000 0.00730  0.42150  0.24430  Biso   1.000  O
  C8       1.0000 0.68170  0.55730  0.63900  Biso   1.000  C
  C9       1.0000 0.39430  0.99350  0.08830  Biso   1.000  C
  H2       1.0000 0.41020  0.04520  0.12190  Biso   1.000  H
  C10      1.0000 0.97290  0.15880  0.39090  Biso   1.000  C
  C11      1.0000 0.88820  0.80860  0.90850  Biso   1.000  C
  C12      1.0000 0.80140  0.90880  0.06080  Biso   1.000  C
  H3       1.0000 0.85160  0.88620  0.05000  Biso   1.000  H
  C13      1.0000 0.92980  0.04010  0.13540  Biso   1.000  C
  C14      1.0000 0.47100  0.96010  0.07460  Biso   1.000  C
  C15      1.0000 0.74920  0.01800  0.12110  Biso   1.000  C
  H4       1.0000 0.76620  0.07150  0.15250  Biso   1.000  H
  C16      1.0000 0.55500  0.43630  0.55980  Biso   1.000  C
  C17      1.0000 0.21720  0.98500  0.06910  Biso   1.000  C
  C18      1.0000 0.57430  0.00880  0.10930  Biso   1.000  C
  C19      1.0000 0.44400  0.88250  0.02780  Biso   1.000  C
  C20      1.0000 0.34760  0.83870  0.99310  Biso   1.000  C
  H5       1.0000 0.33120  0.78550  0.96130  Biso   1.000  H
  C21      1.0000 0.70150  0.86230  0.03200  Biso   1.000  C
  H6       1.0000 0.68570  0.80760  0.00250  Biso   1.000  H
  C22      1.0000 0.52490  0.84530  0.01430  Biso   1.000  C
  O17      1.0000 0.57550  0.35370  0.46320  Biso   1.000  O
  C23      1.0000 0.28220  0.21020  0.38370  Biso   1.000  C
  C24      1.0000 0.65010  0.48910  0.57960  Biso   1.000  C
  H7       1.0000 0.69260  0.47950  0.55360  Biso   1.000  H
  C25      1.0000 0.78230  0.61420  0.65990  Biso   1.000  C
  C26      1.0000 0.90020  0.70070  0.98050  Biso   1.000  C
  H8       1.0000 0.93660  0.74380  0.02160  Biso   1.000  H
  C27      1.0000 0.90860  0.50300  0.05500  Biso   1.000  C
  C28      1.0000 0.27350  0.87560  0.00640  Biso   1.000  C
  H9       1.0000 0.20580  0.84730  0.98240  Biso   1.000  H
  C29      1.0000 0.22690  0.22070  0.42310  Biso   1.000  C
  H10      1.0000 0.15970  0.18910  0.40520  Biso   1.000  H
  C30      1.0000 0.36030  0.32600  0.51330  Biso   1.000  C
  C31      1.0000 0.24070  0.15620  0.31280  Biso   1.000  C
  C32      1.0000 0.52320  0.36820  0.49810  Biso   1.000  C
  C33      1.0000 0.94300  0.39770  0.12080  Biso   1.000  C
  C34      1.0000 0.81210  0.65670  0.85860  Biso   1.000  C
  H11      1.0000 0.78680  0.67090  0.81490  Biso   1.000  H
  C35      1.0000 0.86550  0.72060  0.91660  Biso   1.000  C
  C36      1.0000 0.94450  0.08580  0.33850  Biso   1.000  C
  H12      1.0000 0.92740  0.08820  0.29060  Biso   1.000  H
  C37      1.0000 0.82910  0.55100  0.92550  Biso   1.000  C
  C38      1.0000 0.98380  0.36870  0.18690  Biso   1.000  C
  C39      1.0000 0.49750  0.44500  0.60130  Biso   1.000  C
  C40      1.0000 0.88030  0.61370  0.98380  Biso   1.000  C
  C41      1.0000 0.89550  0.33490  0.05770  Biso   1.000  C
  H13      1.0000 0.89380  0.27730  0.05740  Biso   1.000  H
  C42      1.0000 0.85830  0.43980  0.99460  Biso   1.000  C
  C43      1.0000 0.79320  0.57250  0.86060  Biso   1.000  C
  H14      1.0000 0.75670  0.53000  0.81910  Biso   1.000  H
  C44      1.0000 0.00070  0.15590  0.46170  Biso   1.000  C
  H15      1.0000 0.02170  0.20670  0.49700  Biso   1.000  H
  C45      1.0000 0.39700  0.39030  0.57990  Biso   1.000  C
  C46      1.0000 0.95120  0.48080  0.11960  Biso   1.000  C
  H16      1.0000 0.98490  0.52340  0.16150  Biso   1.000  H
  O18      1.0000 0.34700  0.39690  0.61900  Biso   1.000  O
  C47      1.0000 0.62160  0.56610  0.67750  Biso   1.000  C
  H17      1.0000 0.64370  0.61120  0.71800  Biso   1.000  H
  C48      1.0000 0.96820  0.00490  0.42710  Biso   1.000  C
  C49      1.0000 0.52970  0.51200  0.65990  Biso   1.000  C
  H18      1.0000 0.48890  0.52030  0.68740  Biso   1.000  H
  C50      1.0000 0.91640  0.59380  0.05240  Biso   1.000  C
  C51      1.0000 0.99750  0.07980  0.48010  Biso   1.000  C
  O19      1.0000 0.95590  0.64860  0.10760  Biso   1.000  O
  C52      1.0000 0.94180  0.00850  0.35780  Biso   1.000  C
  H19      1.0000 0.92130  0.95780  0.32250  Biso   1.000  H
  C53      1.0000 0.26090  0.27630  0.49060  Biso   1.000  C
  H20      1.0000 0.22010  0.28000  0.51870  Biso   1.000  H
  O20      1.0000 0.94160  0.85690  0.39900  Biso   1.000  O
  C54      1.0000 0.85250  0.35760  0.99800  Biso   1.000  C
  H21      1.0000 0.81680  0.31470  0.95660  Biso   1.000  H
  C55      1.0000 0.96690  0.92280  0.44630  Biso   1.000  C
  O21      1.0000 0.76420  0.40590  0.87370  Biso   1.000  O
  C56      1.0000 0.81690  0.46110  0.92710  Biso   1.000  C
  Mn4      1.0000 0.93962  0.77927  0.76225  Biso   1.000  Mn
  Mn5      1.0000 0.85139  0.93734  0.81734  Biso   1.000  Mn
  Mn6      1.0000 0.99008  0.60663  0.65630  Biso   1.000  Mn
  O22      1.0000 0.01590  0.75360  0.68940  Biso   1.000  O
  O23      1.0000 0.05150  0.89630  0.82130  Biso   1.000  O
  O24      1.0000 0.76010  0.96120  0.87400  Biso   1.000  O
  O25      1.0000 0.85440  0.86300  0.71546  Biso   1.000  O
  O26      1.0000 0.07790  0.13320  0.03890  Biso   1.000  O
  O27      1.0000 0.01590  0.70790  0.82300  Biso   1.000  O
  O28      1.0000 0.87010  0.04460  0.97380  Biso   1.000  O
  O29      1.0000 0.13060  0.18130  0.15320  Biso   1.000  O
  O30      1.0000 0.16350  0.40520  0.37440  Biso   1.000  O
  O31      1.0000 0.00610  0.98850  0.88763  Biso   1.000  O
  O32      1.0000 0.19240  0.32080  0.29150  Biso   1.000  O
  O33      1.0000 0.00490  0.69130  0.58370  Biso   1.000  O
  O34      1.0000 0.70920  0.87020  0.72110  Biso   1.000  O
  O35      1.0000 0.40490  0.92380  0.84800  Biso   1.000  O
  C57      1.0000 0.37330  0.10690  0.95510  Biso   1.000  C
  O36      1.0000 0.49780  0.22440  0.02790  Biso   1.000  O
  C58      1.0000 0.61890  0.74380  0.59200  Biso   1.000  C
  H22      1.0000 0.57790  0.75220  0.61930  Biso   1.000  H
  C59      1.0000 0.70220  0.04860  0.94690  Biso   1.000  C
  C60      1.0000 0.17530  0.01420  0.89610  Biso   1.000  C
  C61      1.0000 0.34860  0.02770  0.90710  Biso   1.000  C
  C62      1.0000 0.58060  0.68560  0.52730  Biso   1.000  C
  C63      1.0000 0.01630  0.75750  0.62730  Biso   1.000  C
  O37      1.0000 0.99270  0.57850  0.75570  Biso   1.000  O
  C64      1.0000 0.31830  0.44270  0.36100  Biso   1.000  C
  C65      1.0000 0.60570  0.00650  0.91170  Biso   1.000  C
  H23      1.0000 0.58980  0.95480  0.87810  Biso   1.000  H
  C66      1.0000 0.02710  0.84120  0.60910  Biso   1.000  C
  C67      1.0000 0.11180  0.19140  0.09150  Biso   1.000  C
  C68      1.0000 0.19860  0.09120  0.93920  Biso   1.000  C
  H24      1.0000 0.14840  0.11380  0.95000  Biso   1.000  H
  C69      1.0000 0.07020  0.95990  0.86460  Biso   1.000  C
  C70      1.0000 0.52900  0.03990  0.92540  Biso   1.000  C
  C71      1.0000 0.25080  0.98200  0.87890  Biso   1.000  C
  H25      1.0000 0.23380  0.92850  0.84750  Biso   1.000  H
  C72      1.0000 0.44500  0.56370  0.44020  Biso   1.000  C
  C73      1.0000 0.78280  0.01500  0.93090  Biso   1.000  C
  C74      1.0000 0.42570  0.99120  0.89070  Biso   1.000  C
  C75      1.0000 0.55600  0.11750  0.97220  Biso   1.000  C
  C76      1.0000 0.65240  0.16130  0.00690  Biso   1.000  C
  H26      1.0000 0.66880  0.21450  0.03870  Biso   1.000  H
  C77      1.0000 0.29850  0.13770  0.96800  Biso   1.000  C
  H27      1.0000 0.31430  0.19240  0.99750  Biso   1.000  H
  C78      1.0000 0.47510  0.15470  0.98570  Biso   1.000  C
  O38      1.0000 0.42450  0.64630  0.53680  Biso   1.000  O
  C79      1.0000 0.71780  0.78980  0.61630  Biso   1.000  C
  C80      1.0000 0.34990  0.51090  0.42040  Biso   1.000  C
  H28      1.0000 0.30740  0.52050  0.44640  Biso   1.000  H
  C81      1.0000 0.21770  0.38580  0.34010  Biso   1.000  C
  C82      1.0000 0.09980  0.29930  0.01950  Biso   1.000  C
  H29      1.0000 0.06340  0.25620  0.97840  Biso   1.000  H
  C83      1.0000 0.09140  0.49700  0.94500  Biso   1.000  C
  C84      1.0000 0.72650  0.12440  0.99360  Biso   1.000  C
  H30      1.0000 0.79420  0.15270  0.01760  Biso   1.000  H
  C85      1.0000 0.77310  0.77930  0.57690  Biso   1.000  C
  H31      1.0000 0.84030  0.81090  0.59480  Biso   1.000  H
  C86      1.0000 0.63970  0.67400  0.48670  Biso   1.000  C
  C87      1.0000 0.75930  0.84380  0.68720  Biso   1.000  C
  C88      1.0000 0.47680  0.63180  0.50190  Biso   1.000  C
  C89      1.0000 0.05700  0.60230  0.87920  Biso   1.000  C
  C90      1.0000 0.18790  0.34330  0.14140  Biso   1.000  C
  H32      1.0000 0.21320  0.32910  0.18510  Biso   1.000  H
  C91      1.0000 0.13450  0.27940  0.08340  Biso   1.000  C
  C92      1.0000 0.05550  0.91420  0.66150  Biso   1.000  C
  H33      1.0000 0.07260  0.91180  0.70940  Biso   1.000  H
  C93      1.0000 0.17090  0.44900  0.07450  Biso   1.000  C
  C94      1.0000 0.01620  0.63130  0.81310  Biso   1.000  C
  C95      1.0000 0.50250  0.55500  0.39870  Biso   1.000  C
  C96      1.0000 0.11970  0.38630  0.01620  Biso   1.000  C
  C97      1.0000 0.10450  0.66510  0.94230  Biso   1.000  C
  H34      1.0000 0.10620  0.72270  0.94260  Biso   1.000  H
  C98      1.0000 0.14170  0.56020  0.00540  Biso   1.000  C
  C99      1.0000 0.20680  0.42750  0.13940  Biso   1.000  C
  H35      1.0000 0.24330  0.47000  0.18090  Biso   1.000  H
  C100     1.0000 0.99930  0.84410  0.53830  Biso   1.000  C
  H36      1.0000 0.97830  0.79330  0.50300  Biso   1.000  H
  C101     1.0000 0.60300  0.60970  0.42010  Biso   1.000  C
  C102     1.0000 0.04880  0.51920  0.88040  Biso   1.000  C
  H37      1.0000 0.01510  0.47660  0.83850  Biso   1.000  H
  O39      1.0000 0.65300  0.60310  0.38100  Biso   1.000  O
  C103     1.0000 0.37840  0.43390  0.32250  Biso   1.000  C
  H38      1.0000 0.35630  0.38880  0.28200  Biso   1.000  H
  C104     1.0000 0.03180  0.99510  0.57290  Biso   1.000  C
  C105     1.0000 0.47030  0.48800  0.34010  Biso   1.000  C
  H39      1.0000 0.51110  0.47970  0.31260  Biso   1.000  H
  C106     1.0000 0.08360  0.40620  0.94760  Biso   1.000  C
  C107     1.0000 0.00250  0.92020  0.51990  Biso   1.000  C
  O40      1.0000 0.04410  0.35140  0.89240  Biso   1.000  O
  C108     1.0000 0.05820  0.99150  0.64220  Biso   1.000  C
  H40      1.0000 0.07870  0.04220  0.67750  Biso   1.000  H
  C109     1.0000 0.73910  0.72370  0.50940  Biso   1.000  C
  H41      1.0000 0.77990  0.72000  0.48130  Biso   1.000  H
  O41      1.0000 0.05840  0.14310  0.60100  Biso   1.000  O
  C110     1.0000 0.14750  0.64240  0.00200  Biso   1.000  C
  H42      1.0000 0.18320  0.68530  0.04340  Biso   1.000  H
  C111     1.0000 0.03310  0.07720  0.55370  Biso   1.000  C
  O42      1.0000 0.23580  0.59410  0.12630  Biso   1.000  O
  C112     1.0000 0.18310  0.53890  0.07290  Biso   1.000  C
  Mn7      1.0000 0.00000  0.00000  0.00000  Biso   1.000  Mn
