data_image0
_cell_length_a       14.691
_cell_length_b       14.818
_cell_length_c       17.713
_cell_angle_alpha    98.13
_cell_angle_beta     93.1
_cell_angle_gamma    115.29

_symmetry_space_group_name_H-M    "P 1"
_symmetry_int_tables_number       1

loop_
  _symmetry_equiv_pos_as_xyz
  'x, y, z'

loop_
  _atom_site_label
  _atom_site_occupancy
  _atom_site_fract_x
  _atom_site_fract_y
  _atom_site_fract_z
  _atom_site_thermal_displace_type
  _atom_site_B_iso_or_equiv
  _atom_site_type_symbol
  Mn1      1.0000 0.96982  0.00857  0.21754  Biso   1.000  Mn
  Mn2      1.0000 0.75557  0.76153  0.25770  Biso   1.000  Mn
  Mn3      1.0000 0.51390  0.54040  0.28340  Biso   1.000  Mn
  C1       1.0000 0.07610  0.43430  0.12040  Biso   1.000  C
  O1       1.0000 0.86670  0.91500  0.30130  Biso   1.000  O
  O2       1.0000 0.64260  0.56040  0.35760  Biso   1.000  O
  O3       1.0000 0.95920  0.46090  0.19700  Biso   1.000  O
  O4       1.0000 0.10080  0.11970  0.08270  Biso   1.000  O
  O5       1.0000 0.36340  0.19640  0.70760  Biso   1.000  O
  O6       1.0000 0.86440  0.75080  0.18280  Biso   1.000  O
  O7       1.0000 0.56280  0.87640  0.86640  Biso   1.000  O
  O8       1.0000 0.60640  0.88610  0.62930  Biso   1.000  O
  C2       1.0000 0.03010  0.58210  0.11380  Biso   1.000  C
  O9       1.0000 0.47620  0.31530  0.64970  Biso   1.000  O
  O10      1.0000 0.33900  0.83920  0.10490  Biso   1.000  O
  O11      1.0000 0.22340  0.60180  0.99300  Biso   1.000  O
  O12      1.0000 0.04170  0.15860  0.19410  Biso   1.000  O
  O13      1.0000 0.67260  0.18990  0.46620  Biso   1.000  O
  C3       1.0000 0.09350  0.61290  0.06150  Biso   1.000  C
  O14      1.0000 0.79120  0.68190  0.33760  Biso   1.000  O
  C4       1.0000 0.50660  0.85730  0.91940  Biso   1.000  C
  C5       1.0000 0.69190  0.97330  0.52890  Biso   1.000  C
  C6       1.0000 0.10230  0.69750  0.03040  Biso   1.000  C
  H1       1.0000 0.14550  0.71640  0.99170  Biso   1.000  H
  C7       1.0000 0.05720  0.33920  0.14080  Biso   1.000  C
  H2       1.0000 0.00760  0.31100  0.17380  Biso   1.000  H
  C8       1.0000 0.45910  0.79210  0.03990  Biso   1.000  C
  O15      1.0000 0.10920  0.64340  0.41530  Biso   1.000  O
  C9       1.0000 0.36920  0.89220  0.98490  Biso   1.000  C
  C10      1.0000 0.99230  0.73020  0.11150  Biso   1.000  C
  C11      1.0000 0.66000  0.12600  0.50430  Biso   1.000  C
  C12      1.0000 0.59550  0.11120  0.56780  Biso   1.000  C
  C13      1.0000 0.05150  0.75610  0.05290  Biso   1.000  C
  H3       1.0000 0.05750  0.81150  0.02890  Biso   1.000  H
  C14      1.0000 0.48850  0.15930  0.64680  Biso   1.000  C
  C15      1.0000 0.73250  0.90160  0.50880  Biso   1.000  C
  H4       1.0000 0.71600  0.84630  0.53530  Biso   1.000  H
  O16      1.0000 0.92360  0.08620  0.32070  Biso   1.000  O
  C16      1.0000 0.70980  0.05090  0.48680  Biso   1.000  C
  C17      1.0000 0.55100  0.17550  0.58630  Biso   1.000  C
  H5       1.0000 0.56180  0.22950  0.55930  Biso   1.000  H
  O17      1.0000 0.97160  0.88100  0.13280  Biso   1.000  O
  C18      1.0000 0.78890  0.44840  0.49760  Biso   1.000  C
  H6       1.0000 0.75430  0.40560  0.53210  Biso   1.000  H
  C19      1.0000 0.02210  0.49290  0.15440  Biso   1.000  C
  C20      1.0000 0.62290  0.95480  0.59150  Biso   1.000  C
  C21      1.0000 0.08480  0.18120  0.13310  Biso   1.000  C
  C22      1.0000 0.42260  0.89180  0.91920  Biso   1.000  C
  C23      1.0000 0.20780  0.42000  0.03950  Biso   1.000  C
  H7       1.0000 0.25850  0.44910  0.00740  Biso   1.000  H
  C24      1.0000 0.40560  0.94070  0.85830  Biso   1.000  C
  H8       1.0000 0.44610  0.95140  0.81740  Biso   1.000  H
  C25      1.0000 0.14340  0.46960  0.07170  Biso   1.000  C
  C26      1.0000 0.57270  0.02560  0.60890  Biso   1.000  C
  C27      1.0000 0.81030  0.99060  0.40570  Biso   1.000  C
  C28      1.0000 0.11150  0.28740  0.11230  Biso   1.000  C
  O18      1.0000 0.46760  0.58840  0.18650  Biso   1.000  O
  O19      1.0000 0.62800  0.64140  0.17710  Biso   1.000  O
  C29      1.0000 0.43300  0.22980  0.66680  Biso   1.000  C
  C30      1.0000 0.18340  0.32160  0.06320  Biso   1.000  C
  H9       1.0000 0.21710  0.28210  0.04480  Biso   1.000  H
  C31      1.0000 0.94730  0.54410  0.45490  Biso   1.000  C
  C32      1.0000 0.79230  0.91090  0.45400  Biso   1.000  C
  H10      1.0000 0.82390  0.86680  0.44550  Biso   1.000  H
  C33      1.0000 0.51150  0.01070  0.66460  Biso   1.000  C
  H11      1.0000 0.49710  0.95490  0.69030  Biso   1.000  H
  C34      1.0000 0.05220  0.57270  0.45280  Biso   1.000  C
  C35      1.0000 0.54570  0.63760  0.15290  Biso   1.000  C
  C36      1.0000 0.96940  0.63670  0.14090  Biso   1.000  C
  H12      1.0000 0.91980  0.61240  0.17480  Biso   1.000  H
  C37      1.0000 0.51700  0.80810  0.97940  Biso   1.000  C
  C38      1.0000 0.79530  0.56370  0.41680  Biso   1.000  C
  C39      1.0000 0.87160  0.00430  0.34040  Biso   1.000  C
  C40      1.0000 0.77160  0.06550  0.42810  Biso   1.000  C
  H13      1.0000 0.78820  0.12240  0.40350  Biso   1.000  H
  C41      1.0000 0.53890  0.70040  0.09730  Biso   1.000  C
  C42      1.0000 0.59310  0.70680  0.04230  Biso   1.000  C
  H14      1.0000 0.63200  0.66950  0.03720  Biso   1.000  H
  C43      1.0000 0.73830  0.61030  0.36400  Biso   1.000  C
  C44      1.0000 0.38040  0.83700  0.04990  Biso   1.000  C
  C45      1.0000 0.59430  0.77540  0.98460  Biso   1.000  C
  H15      1.0000 0.64670  0.79580  0.95260  Biso   1.000  H
  C46      1.0000 0.16050  0.56360  0.03390  Biso   1.000  C
  C47      1.0000 0.88490  0.46420  0.49110  Biso   1.000  C
  C48      1.0000 0.28950  0.91850  0.98140  Biso   1.000  C
  H16      1.0000 0.24660  0.90680  0.02090  Biso   1.000  H
  C49      1.0000 0.32990  0.97140  0.86090  Biso   1.000  C
  H17      1.0000 0.31680  0.00060  0.81970  Biso   1.000  H
  C50      1.0000 0.89750  0.58800  0.41270  Biso   1.000  C
  H18      1.0000 0.93420  0.63460  0.38110  Biso   1.000  H
  C51      1.0000 0.46860  0.07990  0.68450  Biso   1.000  C
  H19      1.0000 0.42610  0.07050  0.72410  Biso   1.000  H
  C52      1.0000 0.93470  0.79430  0.14840  Biso   1.000  C
  C53      1.0000 0.46670  0.73840  0.09510  Biso   1.000  C
  H20      1.0000 0.42160  0.72670  0.13300  Biso   1.000  H
  C54      1.0000 0.73380  0.49080  0.45640  Biso   1.000  C
  H21      1.0000 0.66320  0.47110  0.45650  Biso   1.000  H
  C55      1.0000 0.27110  0.96170  0.92150  Biso   1.000  C
  O20      1.0000 0.16620  0.02230  0.85460  Biso   1.000  O
  O21      1.0000 0.12200  0.97050  0.96740  Biso   1.000  O
  C56      1.0000 0.17870  0.99050  0.91650  Biso   1.000  C
  Mn4      1.0000 0.03018  0.99143  0.78246  Biso   1.000  Mn
  Mn5      1.0000 0.24443  0.23847  0.74230  Biso   1.000  Mn
  Mn6      1.0000 0.48610  0.45960  0.71660  Biso   1.000  Mn
  C57      1.0000 0.92390  0.56570  0.87960  Biso   1.000  C
  O22      1.0000 0.13330  0.08500  0.69870  Biso   1.000  O
  O23      1.0000 0.35740  0.43960  0.64240  Biso   1.000  O
  O24      1.0000 0.04080  0.53910  0.80300  Biso   1.000  O
  O25      1.0000 0.89920  0.88030  0.91730  Biso   1.000  O
  O26      1.0000 0.63660  0.80360  0.29240  Biso   1.000  O
  O27      1.0000 0.13560  0.24920  0.81720  Biso   1.000  O
  O28      1.0000 0.43720  0.12360  0.13360  Biso   1.000  O
  O29      1.0000 0.39360  0.11390  0.37070  Biso   1.000  O
  C58      1.0000 0.96990  0.41790  0.88620  Biso   1.000  C
  O30      1.0000 0.52380  0.68470  0.35030  Biso   1.000  O
  O31      1.0000 0.66100  0.16080  0.89510  Biso   1.000  O
  O32      1.0000 0.77660  0.39820  0.00700  Biso   1.000  O
  O33      1.0000 0.95830  0.84140  0.80590  Biso   1.000  O
  O34      1.0000 0.32740  0.81010  0.53380  Biso   1.000  O
  C59      1.0000 0.90650  0.38710  0.93850  Biso   1.000  C
  O35      1.0000 0.20880  0.31810  0.66240  Biso   1.000  O
  C60      1.0000 0.49340  0.14270  0.08060  Biso   1.000  C
  C61      1.0000 0.30810  0.02670  0.47110  Biso   1.000  C
  C62      1.0000 0.89770  0.30250  0.96960  Biso   1.000  C
  H22      1.0000 0.85450  0.28360  0.00830  Biso   1.000  H
  C63      1.0000 0.94280  0.66080  0.85920  Biso   1.000  C
  H23      1.0000 0.99240  0.68900  0.82620  Biso   1.000  H
  C64      1.0000 0.54090  0.20790  0.96010  Biso   1.000  C
  O36      1.0000 0.89080  0.35660  0.58470  Biso   1.000  O
  C65      1.0000 0.63080  0.10780  0.01510  Biso   1.000  C
  C66      1.0000 0.00770  0.26980  0.88850  Biso   1.000  C
  C67      1.0000 0.34000  0.87400  0.49570  Biso   1.000  C
  C68      1.0000 0.40450  0.88880  0.43220  Biso   1.000  C
  C69      1.0000 0.94850  0.24390  0.94710  Biso   1.000  C
  H24      1.0000 0.94250  0.18850  0.97110  Biso   1.000  H
  C70      1.0000 0.51150  0.84070  0.35320  Biso   1.000  C
  C71      1.0000 0.26750  0.09840  0.49120  Biso   1.000  C
  H25      1.0000 0.28400  0.15370  0.46470  Biso   1.000  H
  O37      1.0000 0.07640  0.91380  0.67930  Biso   1.000  O
  C72      1.0000 0.29020  0.94910  0.51320  Biso   1.000  C
  C73      1.0000 0.44900  0.82450  0.41370  Biso   1.000  C
  H26      1.0000 0.43820  0.77050  0.44070  Biso   1.000  H
  O38      1.0000 0.02840  0.11900  0.86720  Biso   1.000  O
  C74      1.0000 0.21110  0.55160  0.50240  Biso   1.000  C
  H27      1.0000 0.24570  0.59440  0.46790  Biso   1.000  H
  C75      1.0000 0.97790  0.50710  0.84560  Biso   1.000  C
  C76      1.0000 0.37710  0.04520  0.40850  Biso   1.000  C
  C77      1.0000 0.91520  0.81880  0.86690  Biso   1.000  C
  C78      1.0000 0.57740  0.10820  0.08080  Biso   1.000  C
  C79      1.0000 0.79220  0.58000  0.96050  Biso   1.000  C
  H28      1.0000 0.74150  0.55090  0.99260  Biso   1.000  H
  C80      1.0000 0.59440  0.05930  0.14170  Biso   1.000  C
  H29      1.0000 0.55390  0.04860  0.18260  Biso   1.000  H
  C81      1.0000 0.85660  0.53040  0.92830  Biso   1.000  C
  C82      1.0000 0.42730  0.97440  0.39110  Biso   1.000  C
  C83      1.0000 0.18970  0.00940  0.59430  Biso   1.000  C
  C84      1.0000 0.88850  0.71260  0.88770  Biso   1.000  C
  O39      1.0000 0.53240  0.41160  0.81350  Biso   1.000  O
  O40      1.0000 0.37200  0.35860  0.82290  Biso   1.000  O
  C85      1.0000 0.56700  0.77020  0.33320  Biso   1.000  C
  C86      1.0000 0.81660  0.67840  0.93680  Biso   1.000  C
  H30      1.0000 0.78290  0.71790  0.95520  Biso   1.000  H
  C87      1.0000 0.05270  0.45590  0.54510  Biso   1.000  C
  C88      1.0000 0.20770  0.08910  0.54600  Biso   1.000  C
  H31      1.0000 0.17610  0.13320  0.55450  Biso   1.000  H
  C89      1.0000 0.48850  0.98930  0.33540  Biso   1.000  C
  H32      1.0000 0.50290  0.04510  0.30970  Biso   1.000  H
  C90      1.0000 0.94780  0.42730  0.54720  Biso   1.000  C
  C91      1.0000 0.45430  0.36240  0.84710  Biso   1.000  C
  C92      1.0000 0.03060  0.36330  0.85910  Biso   1.000  C
  H33      1.0000 0.08020  0.38760  0.82520  Biso   1.000  H
  C93      1.0000 0.48300  0.19190  0.02060  Biso   1.000  C
  C94      1.0000 0.20470  0.43630  0.58320  Biso   1.000  C
  C95      1.0000 0.12840  0.99570  0.65960  Biso   1.000  C
  C96      1.0000 0.22840  0.93450  0.57190  Biso   1.000  C
  H34      1.0000 0.21180  0.87760  0.59650  Biso   1.000  H
  C97      1.0000 0.46110  0.29960  0.90270  Biso   1.000  C
  C98      1.0000 0.40690  0.29320  0.95770  Biso   1.000  C
  H35      1.0000 0.36800  0.33050  0.96280  Biso   1.000  H
  C99      1.0000 0.26170  0.38970  0.63600  Biso   1.000  C
  C100     1.0000 0.61960  0.16300  0.95010  Biso   1.000  C
  C101     1.0000 0.40570  0.22460  0.01540  Biso   1.000  C
  H36      1.0000 0.35330  0.20420  0.04740  Biso   1.000  H
  C102     1.0000 0.83950  0.43640  0.96610  Biso   1.000  C
  C103     1.0000 0.11510  0.53580  0.50890  Biso   1.000  C
  C104     1.0000 0.71050  0.08150  0.01860  Biso   1.000  C
  H37      1.0000 0.75340  0.09320  0.97910  Biso   1.000  H
  C105     1.0000 0.67010  0.02860  0.13910  Biso   1.000  C
  H38      1.0000 0.68320  0.99940  0.18030  Biso   1.000  H
  C106     1.0000 0.10250  0.41200  0.58730  Biso   1.000  C
  H39      1.0000 0.06580  0.36540  0.61890  Biso   1.000  H
  C107     1.0000 0.53140  0.92010  0.31550  Biso   1.000  C
  H40      1.0000 0.57390  0.92950  0.27590  Biso   1.000  H
  C108     1.0000 0.06530  0.20570  0.85160  Biso   1.000  C
  C109     1.0000 0.53330  0.26160  0.90490  Biso   1.000  C
  H41      1.0000 0.57840  0.27330  0.86700  Biso   1.000  H
  C110     1.0000 0.26620  0.50920  0.54360  Biso   1.000  C
  H42      1.0000 0.33680  0.52890  0.54350  Biso   1.000  H
  C111     1.0000 0.72890  0.03830  0.07850  Biso   1.000  C
  O41      1.0000 0.83380  0.97770  0.14540  Biso   1.000  O
  O42      1.0000 0.87800  0.02950  0.03260  Biso   1.000  O
  C112     1.0000 0.82130  0.00950  0.08350  Biso   1.000  C
  Mn7      1.0000 0.00000  0.00000  0.00000  Biso   1.000  Mn
