data_image0
_cell_length_a       16.5492
_cell_length_b       14.8523
_cell_length_c       17.7313
_cell_angle_alpha    90
_cell_angle_beta     112.758
_cell_angle_gamma    90

_symmetry_space_group_name_H-M    "P 1"
_symmetry_int_tables_number       1

loop_
  _symmetry_equiv_pos_as_xyz
  'x, y, z'

loop_
  _atom_site_label
  _atom_site_occupancy
  _atom_site_fract_x
  _atom_site_fract_y
  _atom_site_fract_z
  _atom_site_thermal_displace_type
  _atom_site_B_iso_or_equiv
  _atom_site_type_symbol
  C1       1.0000 0.87900  0.81100  0.31870  Biso   1.000  C
  C2       1.0000 0.78640  0.79310  0.30630  Biso   1.000  C
  C3       1.0000 0.75930  0.71160  0.32550  Biso   1.000  C
  H1       1.0000 0.80080  0.66640  0.34680  Biso   1.000  H
  C4       1.0000 0.67270  0.69350  0.31460  Biso   1.000  C
  C5       1.0000 0.61470  0.76520  0.28590  Biso   1.000  C
  H2       1.0000 0.55660  0.75780  0.27950  Biso   1.000  H
  C6       1.0000 0.64170  0.84780  0.26660  Biso   1.000  C
  H3       1.0000 0.60140  0.89450  0.24740  Biso   1.000  H
  C7       1.0000 0.72650  0.86100  0.27550  Biso   1.000  C
  H4       1.0000 0.74350  0.91580  0.26080  Biso   1.000  H
  C8       1.0000 0.82680  0.32990  0.54640  Biso   1.000  C
  C9       1.0000 0.79630  0.42650  0.53500  Biso   1.000  C
  C10      1.0000 0.74440  0.45750  0.45830  Biso   1.000  C
  H5       1.0000 0.72940  0.41840  0.41390  Biso   1.000  H
  C11      1.0000 0.71350  0.54660  0.44530  Biso   1.000  C
  C12      1.0000 0.73860  0.60420  0.51140  Biso   1.000  C
  H6       1.0000 0.72040  0.66400  0.50370  Biso   1.000  H
  C13      1.0000 0.79070  0.57400  0.58930  Biso   1.000  C
  H7       1.0000 0.80580  0.61290  0.63380  Biso   1.000  H
  C14      1.0000 0.82010  0.48560  0.60050  Biso   1.000  C
  H8       1.0000 0.85610  0.46580  0.65240  Biso   1.000  H
  C15      1.0000 0.73510  0.42940  0.11510  Biso   1.000  C
  C16      1.0000 0.68930  0.42260  0.17090  Biso   1.000  C
  C17      1.0000 0.68450  0.49630  0.21780  Biso   1.000  C
  H9       1.0000 0.71270  0.54950  0.21460  Biso   1.000  H
  C18      1.0000 0.63940  0.49290  0.26870  Biso   1.000  C
  C19      1.0000 0.59690  0.41060  0.27000  Biso   1.000  C
  H10      1.0000 0.56360  0.40630  0.30170  Biso   1.000  H
  C20      1.0000 0.60310  0.33780  0.22650  Biso   1.000  C
  H11      1.0000 0.57650  0.28380  0.23040  Biso   1.000  H
  C21      1.0000 0.64870  0.34460  0.17680  Biso   1.000  C
  H12      1.0000 0.65200  0.29480  0.14630  Biso   1.000  H
  C22      1.0000 0.29030  0.61000  0.17300  Biso   1.000  C
  C23      1.0000 0.36490  0.59850  0.25540  Biso   1.000  C
  C24      1.0000 0.45210  0.59410  0.26140  Biso   1.000  C
  H13      1.0000 0.46310  0.59580  0.21380  Biso   1.000  H
  C25      1.0000 0.52180  0.58730  0.33590  Biso   1.000  C
  C26      1.0000 0.50250  0.58380  0.40590  Biso   1.000  C
  H14      1.0000 0.54780  0.57930  0.45710  Biso   1.000  H
  C27      1.0000 0.41630  0.58690  0.39960  Biso   1.000  C
  H15      1.0000 0.40420  0.58330  0.44650  Biso   1.000  H
  C28      1.0000 0.34870  0.59540  0.32430  Biso   1.000  C
  H16      1.0000 0.29130  0.59900  0.32090  Biso   1.000  H
  C29      1.0000 0.11790  0.78310  0.22650  Biso   1.000  C
  H17      1.0000 0.15140  0.73340  0.25210  Biso   1.000  H
  C30      1.0000 0.11150  0.81770  0.15470  Biso   1.000  C
  H18      1.0000 0.13940  0.79690  0.12150  Biso   1.000  H
  C31      1.0000 0.03110  0.89540  0.20220  Biso   1.000  C
  H19      1.0000 0.99300  0.93890  0.20700  Biso   1.000  H
  N1       1.0000 0.06680  0.83280  0.25610  Biso   1.000  N
  N2       1.0000 0.05590  0.88950  0.13970  Biso   1.000  N
  O1       1.0000 0.90210  0.88430  0.30050  Biso   1.000  O
  O2       1.0000 0.93430  0.74760  0.34830  Biso   1.000  O
  O3       1.0000 0.88040  0.30750  0.61340  Biso   1.000  O
  O4       1.0000 0.79270  0.27900  0.48410  Biso   1.000  O
  O5       1.0000 0.21710  0.62580  0.16980  Biso   1.000  O
  O6       1.0000 0.31000  0.60740  0.11030  Biso   1.000  O
  O7       1.0000 0.73060  0.36000  0.07180  Biso   1.000  O
  O8       1.0000 0.77430  0.49660  0.11340  Biso   1.000  O
  O9       1.0000 0.09630  0.88910  0.45040  Biso   1.000  O
  C32      1.0000 0.02750  0.94650  0.06820  Biso   1.000  C
  Si1      1.0000 0.63725  0.58249  0.34062  Biso   1.000  Si
  Zn1      1.0000 0.04732  0.80535  0.35899  Biso   1.000  Zn
  Zn2      1.0000 0.21712  0.85496  0.50932  Biso   1.000  Zn
  C33      1.0000 0.99830  0.90710  0.99180  Biso   1.000  C
  H20      1.0000 0.99810  0.84480  0.98670  Biso   1.000  H
  C34      1.0000 0.03060  0.03880  0.07710  Biso   1.000  C
  H21      1.0000 0.05190  0.06460  0.12900  Biso   1.000  H
  C35      1.0000 0.12100  0.31100  0.18130  Biso   1.000  C
  C36      1.0000 0.21360  0.29310  0.19370  Biso   1.000  C
  C37      1.0000 0.24070  0.21160  0.17450  Biso   1.000  C
  H22      1.0000 0.19920  0.16640  0.15320  Biso   1.000  H
  C38      1.0000 0.32730  0.19350  0.18540  Biso   1.000  C
  C39      1.0000 0.38530  0.26520  0.21410  Biso   1.000  C
  H23      1.0000 0.44340  0.25780  0.22050  Biso   1.000  H
  C40      1.0000 0.35830  0.34780  0.23340  Biso   1.000  C
  H24      1.0000 0.39860  0.39450  0.25260  Biso   1.000  H
  C41      1.0000 0.27350  0.36100  0.22450  Biso   1.000  C
  H25      1.0000 0.25650  0.41580  0.23920  Biso   1.000  H
  C42      1.0000 0.17320  0.82990  0.95360  Biso   1.000  C
  C43      1.0000 0.20370  0.92650  0.96500  Biso   1.000  C
  C44      1.0000 0.25560  0.95750  0.04170  Biso   1.000  C
  H26      1.0000 0.27060  0.91840  0.08610  Biso   1.000  H
  C45      1.0000 0.28650  0.04660  0.05470  Biso   1.000  C
  C46      1.0000 0.26140  0.10420  0.98860  Biso   1.000  C
  H27      1.0000 0.27960  0.16400  0.99630  Biso   1.000  H
  C47      1.0000 0.20930  0.07400  0.91070  Biso   1.000  C
  H28      1.0000 0.19420  0.11290  0.86620  Biso   1.000  H
  C48      1.0000 0.17990  0.98560  0.89950  Biso   1.000  C
  H29      1.0000 0.14390  0.96580  0.84760  Biso   1.000  H
  C49      1.0000 0.26490  0.92940  0.38490  Biso   1.000  C
  C50      1.0000 0.31070  0.92260  0.32910  Biso   1.000  C
  C51      1.0000 0.31550  0.99630  0.28220  Biso   1.000  C
  H30      1.0000 0.28730  0.04950  0.28540  Biso   1.000  H
  C52      1.0000 0.36060  0.99290  0.23130  Biso   1.000  C
  C53      1.0000 0.40310  0.91060  0.23000  Biso   1.000  C
  H31      1.0000 0.43640  0.90630  0.19830  Biso   1.000  H
  C54      1.0000 0.39690  0.83780  0.27350  Biso   1.000  C
  H32      1.0000 0.42350  0.78380  0.26960  Biso   1.000  H
  C55      1.0000 0.35130  0.84460  0.32320  Biso   1.000  C
  H33      1.0000 0.34800  0.79480  0.35370  Biso   1.000  H
  C56      1.0000 0.70970  0.11000  0.32700  Biso   1.000  C
  C57      1.0000 0.63510  0.09850  0.24460  Biso   1.000  C
  C58      1.0000 0.54790  0.09410  0.23860  Biso   1.000  C
  H34      1.0000 0.53690  0.09580  0.28620  Biso   1.000  H
  C59      1.0000 0.47820  0.08730  0.16410  Biso   1.000  C
  C60      1.0000 0.49750  0.08380  0.09410  Biso   1.000  C
  H35      1.0000 0.45220  0.07930  0.04290  Biso   1.000  H
  C61      1.0000 0.58370  0.08690  0.10040  Biso   1.000  C
  H36      1.0000 0.59580  0.08330  0.05350  Biso   1.000  H
  C62      1.0000 0.65130  0.09540  0.17570  Biso   1.000  C
  H37      1.0000 0.70870  0.09900  0.17910  Biso   1.000  H
  C63      1.0000 0.88210  0.28310  0.27350  Biso   1.000  C
  H38      1.0000 0.84860  0.23340  0.24790  Biso   1.000  H
  C64      1.0000 0.88850  0.31770  0.34530  Biso   1.000  C
  H39      1.0000 0.86060  0.29690  0.37850  Biso   1.000  H
  C65      1.0000 0.96890  0.39540  0.29780  Biso   1.000  C
  H40      1.0000 0.00700  0.43890  0.29300  Biso   1.000  H
  N3       1.0000 0.93320  0.33280  0.24390  Biso   1.000  N
  N4       1.0000 0.94410  0.38950  0.36030  Biso   1.000  N
  O10      1.0000 0.09790  0.38430  0.19950  Biso   1.000  O
  O11      1.0000 0.06570  0.24760  0.15170  Biso   1.000  O
  O12      1.0000 0.11960  0.80750  0.88660  Biso   1.000  O
  O13      1.0000 0.20730  0.77900  0.01590  Biso   1.000  O
  O14      1.0000 0.78290  0.12580  0.33020  Biso   1.000  O
  O15      1.0000 0.69000  0.10740  0.38970  Biso   1.000  O
  O16      1.0000 0.26940  0.86000  0.42820  Biso   1.000  O
  O17      1.0000 0.22570  0.99660  0.38660  Biso   1.000  O
  O18      1.0000 0.90370  0.38910  0.04960  Biso   1.000  O
  C66      1.0000 0.97250  0.44650  0.43180  Biso   1.000  C
  Si2      1.0000 0.36275  0.08249  0.15938  Biso   1.000  Si
  Zn3      1.0000 0.95268  0.30535  0.14101  Biso   1.000  Zn
  Zn4      1.0000 0.78288  0.35496  0.99068  Biso   1.000  Zn
  C67      1.0000 0.00170  0.40710  0.50820  Biso   1.000  C
  H41      1.0000 0.00190  0.34480  0.51330  Biso   1.000  H
  C68      1.0000 0.96940  0.53880  0.42290  Biso   1.000  C
  H42      1.0000 0.94810  0.56460  0.37100  Biso   1.000  H
  C69      1.0000 0.12100  0.18900  0.68130  Biso   1.000  C
  C70      1.0000 0.21360  0.20690  0.69370  Biso   1.000  C
  C71      1.0000 0.24070  0.28840  0.67450  Biso   1.000  C
  H43      1.0000 0.19920  0.33360  0.65320  Biso   1.000  H
  C72      1.0000 0.32730  0.30650  0.68540  Biso   1.000  C
  C73      1.0000 0.38530  0.23480  0.71410  Biso   1.000  C
  H44      1.0000 0.44340  0.24220  0.72050  Biso   1.000  H
  C74      1.0000 0.35830  0.15220  0.73340  Biso   1.000  C
  H45      1.0000 0.39860  0.10550  0.75260  Biso   1.000  H
  C75      1.0000 0.27350  0.13900  0.72450  Biso   1.000  C
  H46      1.0000 0.25650  0.08420  0.73920  Biso   1.000  H
  C76      1.0000 0.17320  0.67010  0.45360  Biso   1.000  C
  C77      1.0000 0.20370  0.57350  0.46500  Biso   1.000  C
  C78      1.0000 0.25560  0.54250  0.54170  Biso   1.000  C
  H47      1.0000 0.27060  0.58160  0.58610  Biso   1.000  H
  C79      1.0000 0.28650  0.45340  0.55470  Biso   1.000  C
  C80      1.0000 0.26140  0.39580  0.48860  Biso   1.000  C
  H48      1.0000 0.27960  0.33600  0.49630  Biso   1.000  H
  C81      1.0000 0.20930  0.42600  0.41070  Biso   1.000  C
  H49      1.0000 0.19420  0.38710  0.36620  Biso   1.000  H
  C82      1.0000 0.17990  0.51440  0.39950  Biso   1.000  C
  H50      1.0000 0.14390  0.53420  0.34760  Biso   1.000  H
  C83      1.0000 0.26490  0.57060  0.88490  Biso   1.000  C
  C84      1.0000 0.31070  0.57740  0.82910  Biso   1.000  C
  C85      1.0000 0.31550  0.50370  0.78220  Biso   1.000  C
  H51      1.0000 0.28730  0.45050  0.78540  Biso   1.000  H
  C86      1.0000 0.36060  0.50710  0.73130  Biso   1.000  C
  C87      1.0000 0.40310  0.58940  0.73000  Biso   1.000  C
  H52      1.0000 0.43640  0.59370  0.69830  Biso   1.000  H
  C88      1.0000 0.39690  0.66220  0.77350  Biso   1.000  C
  H53      1.0000 0.42350  0.71620  0.76960  Biso   1.000  H
  C89      1.0000 0.35130  0.65540  0.82320  Biso   1.000  C
  H54      1.0000 0.34800  0.70520  0.85370  Biso   1.000  H
  C90      1.0000 0.70970  0.39000  0.82700  Biso   1.000  C
  C91      1.0000 0.63510  0.40150  0.74460  Biso   1.000  C
  C92      1.0000 0.54790  0.40590  0.73860  Biso   1.000  C
  H55      1.0000 0.53690  0.40420  0.78620  Biso   1.000  H
  C93      1.0000 0.47820  0.41270  0.66410  Biso   1.000  C
  C94      1.0000 0.49750  0.41620  0.59410  Biso   1.000  C
  H56      1.0000 0.45220  0.42070  0.54290  Biso   1.000  H
  C95      1.0000 0.58370  0.41310  0.60040  Biso   1.000  C
  H57      1.0000 0.59580  0.41670  0.55350  Biso   1.000  H
  C96      1.0000 0.65130  0.40460  0.67570  Biso   1.000  C
  H58      1.0000 0.70870  0.40100  0.67910  Biso   1.000  H
  C97      1.0000 0.88210  0.21690  0.77350  Biso   1.000  C
  H59      1.0000 0.84860  0.26660  0.74790  Biso   1.000  H
  C98      1.0000 0.88850  0.18230  0.84530  Biso   1.000  C
  H60      1.0000 0.86060  0.20310  0.87850  Biso   1.000  H
  C99      1.0000 0.96890  0.10460  0.79780  Biso   1.000  C
  H61      1.0000 0.00700  0.06110  0.79300  Biso   1.000  H
  N5       1.0000 0.93320  0.16720  0.74390  Biso   1.000  N
  N6       1.0000 0.94410  0.11050  0.86030  Biso   1.000  N
  O19      1.0000 0.09790  0.11570  0.69950  Biso   1.000  O
  O20      1.0000 0.06570  0.25240  0.65170  Biso   1.000  O
  O21      1.0000 0.11960  0.69250  0.38660  Biso   1.000  O
  O22      1.0000 0.20730  0.72100  0.51590  Biso   1.000  O
  O23      1.0000 0.78290  0.37420  0.83020  Biso   1.000  O
  O24      1.0000 0.69000  0.39260  0.88970  Biso   1.000  O
  O25      1.0000 0.26940  0.64000  0.92820  Biso   1.000  O
  O26      1.0000 0.22570  0.50340  0.88660  Biso   1.000  O
  O27      1.0000 0.90370  0.11090  0.54960  Biso   1.000  O
  C100     1.0000 0.97250  0.05350  0.93180  Biso   1.000  C
  Si3      1.0000 0.36275  0.41751  0.65938  Biso   1.000  Si
  Zn5      1.0000 0.95268  0.19465  0.64101  Biso   1.000  Zn
  Zn6      1.0000 0.78288  0.14504  0.49068  Biso   1.000  Zn
  C101     1.0000 0.00170  0.09290  0.00820  Biso   1.000  C
  H62      1.0000 0.00190  0.15520  0.01330  Biso   1.000  H
  C102     1.0000 0.96940  0.96120  0.92290  Biso   1.000  C
  H63      1.0000 0.94810  0.93540  0.87100  Biso   1.000  H
  C103     1.0000 0.87900  0.68900  0.81870  Biso   1.000  C
  C104     1.0000 0.78640  0.70690  0.80630  Biso   1.000  C
  C105     1.0000 0.75930  0.78840  0.82550  Biso   1.000  C
  H64      1.0000 0.80080  0.83360  0.84680  Biso   1.000  H
  C106     1.0000 0.67270  0.80650  0.81460  Biso   1.000  C
  C107     1.0000 0.61470  0.73480  0.78590  Biso   1.000  C
  H65      1.0000 0.55660  0.74220  0.77950  Biso   1.000  H
  C108     1.0000 0.64170  0.65220  0.76660  Biso   1.000  C
  H66      1.0000 0.60140  0.60550  0.74740  Biso   1.000  H
  C109     1.0000 0.72650  0.63900  0.77550  Biso   1.000  C
  H67      1.0000 0.74350  0.58420  0.76080  Biso   1.000  H
  C110     1.0000 0.82680  0.17010  0.04640  Biso   1.000  C
  C111     1.0000 0.79630  0.07350  0.03500  Biso   1.000  C
  C112     1.0000 0.74440  0.04250  0.95830  Biso   1.000  C
  H68      1.0000 0.72940  0.08160  0.91390  Biso   1.000  H
  C113     1.0000 0.71350  0.95340  0.94530  Biso   1.000  C
  C114     1.0000 0.73860  0.89580  0.01140  Biso   1.000  C
  H69      1.0000 0.72040  0.83600  0.00370  Biso   1.000  H
  C115     1.0000 0.79070  0.92600  0.08930  Biso   1.000  C
  H70      1.0000 0.80580  0.88710  0.13380  Biso   1.000  H
  C116     1.0000 0.82010  0.01440  0.10050  Biso   1.000  C
  H71      1.0000 0.85610  0.03420  0.15240  Biso   1.000  H
  C117     1.0000 0.73510  0.07060  0.61510  Biso   1.000  C
  C118     1.0000 0.68930  0.07740  0.67090  Biso   1.000  C
  C119     1.0000 0.68450  0.00370  0.71780  Biso   1.000  C
  H72      1.0000 0.71270  0.95050  0.71460  Biso   1.000  H
  C120     1.0000 0.63940  0.00710  0.76870  Biso   1.000  C
  C121     1.0000 0.59690  0.08940  0.77000  Biso   1.000  C
  H73      1.0000 0.56360  0.09370  0.80170  Biso   1.000  H
  C122     1.0000 0.60310  0.16220  0.72650  Biso   1.000  C
  H74      1.0000 0.57650  0.21620  0.73040  Biso   1.000  H
  C123     1.0000 0.64870  0.15540  0.67680  Biso   1.000  C
  H75      1.0000 0.65200  0.20520  0.64630  Biso   1.000  H
  C124     1.0000 0.29030  0.89000  0.67300  Biso   1.000  C
  C125     1.0000 0.36490  0.90150  0.75540  Biso   1.000  C
  C126     1.0000 0.45210  0.90590  0.76140  Biso   1.000  C
  H76      1.0000 0.46310  0.90420  0.71380  Biso   1.000  H
  C127     1.0000 0.52180  0.91270  0.83590  Biso   1.000  C
  C128     1.0000 0.50250  0.91620  0.90590  Biso   1.000  C
  H77      1.0000 0.54780  0.92070  0.95710  Biso   1.000  H
  C129     1.0000 0.41630  0.91310  0.89960  Biso   1.000  C
  H78      1.0000 0.40420  0.91670  0.94650  Biso   1.000  H
  C130     1.0000 0.34870  0.90460  0.82430  Biso   1.000  C
  H79      1.0000 0.29130  0.90100  0.82090  Biso   1.000  H
  C131     1.0000 0.11790  0.71690  0.72650  Biso   1.000  C
  H80      1.0000 0.15140  0.76660  0.75210  Biso   1.000  H
  C132     1.0000 0.11150  0.68230  0.65470  Biso   1.000  C
  H81      1.0000 0.13940  0.70310  0.62150  Biso   1.000  H
  C133     1.0000 0.03110  0.60460  0.70220  Biso   1.000  C
  H82      1.0000 0.99300  0.56110  0.70700  Biso   1.000  H
  N7       1.0000 0.06680  0.66720  0.75610  Biso   1.000  N
  N8       1.0000 0.05590  0.61050  0.63970  Biso   1.000  N
  O28      1.0000 0.90210  0.61570  0.80050  Biso   1.000  O
  O29      1.0000 0.93430  0.75240  0.84830  Biso   1.000  O
  O30      1.0000 0.88040  0.19250  0.11340  Biso   1.000  O
  O31      1.0000 0.79270  0.22100  0.98410  Biso   1.000  O
  O32      1.0000 0.21710  0.87420  0.66980  Biso   1.000  O
  O33      1.0000 0.31000  0.89260  0.61030  Biso   1.000  O
  O34      1.0000 0.73060  0.14000  0.57180  Biso   1.000  O
  O35      1.0000 0.77430  0.00340  0.61340  Biso   1.000  O
  O36      1.0000 0.09630  0.61090  0.95040  Biso   1.000  O
  C134     1.0000 0.02750  0.55350  0.56820  Biso   1.000  C
  Si4      1.0000 0.63725  0.91751  0.84062  Biso   1.000  Si
  Zn7      1.0000 0.04732  0.69465  0.85899  Biso   1.000  Zn
  Zn8      1.0000 0.21712  0.64504  0.00932  Biso   1.000  Zn
  C135     1.0000 0.99830  0.59290  0.49180  Biso   1.000  C
  H83      1.0000 0.99810  0.65520  0.48670  Biso   1.000  H
  C136     1.0000 0.03060  0.46120  0.57710  Biso   1.000  C
  H84      1.0000 0.05190  0.43540  0.62900  Biso   1.000  H
