data_image0
_cell_length_a       11.804
_cell_length_b       24.81
_cell_length_c       15.672
_cell_angle_alpha    90
_cell_angle_beta     96.269
_cell_angle_gamma    90

_symmetry_space_group_name_H-M    "P 1"
_symmetry_int_tables_number       1

loop_
  _symmetry_equiv_pos_as_xyz
  'x, y, z'

loop_
  _atom_site_label
  _atom_site_occupancy
  _atom_site_fract_x
  _atom_site_fract_y
  _atom_site_fract_z
  _atom_site_thermal_displace_type
  _atom_site_B_iso_or_equiv
  _atom_site_type_symbol
  Zn1      1.0000 0.08714  0.33314  0.99298  Biso   1.000  Zn
  C1       1.0000 0.98780  0.37429  0.82790  Biso   1.000  C
  C2       1.0000 0.02350  0.37345  0.73940  Biso   1.000  C
  H1       1.0000 0.07290  0.40420  0.73350  Biso   1.000  H
  H2       1.0000 0.06860  0.34120  0.73360  Biso   1.000  H
  C3       1.0000 0.87970  0.60919  0.84890  Biso   1.000  C
  C4       1.0000 0.89900  0.55866  0.79970  Biso   1.000  C
  H3       1.0000 0.98020  0.55290  0.79930  Biso   1.000  H
  H4       1.0000 0.86810  0.52810  0.82810  Biso   1.000  H
  C5       1.0000 0.85050  0.51629  0.66600  Biso   1.000  C
  C6       1.0000 0.89660  0.46827  0.69680  Biso   1.000  C
  H5       1.0000 0.93000  0.46580  0.75320  Biso   1.000  H
  C7       1.0000 0.89320  0.42370  0.64350  Biso   1.000  C
  C8       1.0000 0.84350  0.42611  0.55966  Biso   1.000  C
  C9       1.0000 0.79860  0.47568  0.53058  Biso   1.000  C
  H6       1.0000 0.76530  0.47830  0.47420  Biso   1.000  H
  C10      1.0000 0.80160  0.52123  0.58222  Biso   1.000  C
  C11      1.0000 0.75430  0.57505  0.55034  Biso   1.000  C
  H7       1.0000 0.70710  0.58810  0.59370  Biso   1.000  H
  C12      1.0000 0.67750  0.57317  0.46630  Biso   1.000  C
  C13      1.0000 0.56360  0.56049  0.46610  Biso   1.000  C
  H8       1.0000 0.53580  0.55140  0.51750  Biso   1.000  H
  C14      1.0000 0.49000  0.56094  0.39140  Biso   1.000  C
  H9       1.0000 0.41380  0.55220  0.39350  Biso   1.000  H
  C15      1.0000 0.52720  0.57401  0.31400  Biso   1.000  C
  C16      1.0000 0.64060  0.58560  0.31460  Biso   1.000  C
  H10      1.0000 0.66870  0.59380  0.26300  Biso   1.000  H
  C17      1.0000 0.71410  0.58547  0.38870  Biso   1.000  C
  H11      1.0000 0.79050  0.59390  0.38620  Biso   1.000  H
  C18      1.0000 0.44660  0.57540  0.23220  Biso   1.000  C
  H12      1.0000 0.37130  0.56590  0.24460  Biso   1.000  H
  H13      1.0000 0.47180  0.55030  0.19180  Biso   1.000  H
  H14      1.0000 0.44550  0.61110  0.20830  Biso   1.000  H
  C19      1.0000 0.57330  0.75322  0.53420  Biso   1.000  C
  C20      1.0000 0.18160  0.81815  0.52210  Biso   1.000  C
  C21      1.0000 0.65470  0.71331  0.50260  Biso   1.000  C
  H15      1.0000 0.61240  0.68690  0.46630  Biso   1.000  H
  H16      1.0000 0.70620  0.73180  0.46830  Biso   1.000  H
  C22      1.0000 0.07740  0.78472  0.53130  Biso   1.000  C
  H17      1.0000 0.05130  0.79140  0.58690  Biso   1.000  H
  H18      1.0000 0.01680  0.79490  0.48740  Biso   1.000  H
  C23      1.0000 0.01530  0.69415  0.52990  Biso   1.000  C
  C24      1.0000 0.90800  0.70946  0.54720  Biso   1.000  C
  H19      1.0000 0.89090  0.74570  0.55400  Biso   1.000  H
  C25      1.0000 0.82560  0.67038  0.55430  Biso   1.000  C
  C26      1.0000 0.84860  0.61647  0.54604  Biso   1.000  C
  C27      1.0000 0.95730  0.60258  0.52761  Biso   1.000  C
  H20      1.0000 0.97380  0.56630  0.52080  Biso   1.000  H
  C28      1.0000 0.04190  0.63978  0.51888  Biso   1.000  C
  C29      1.0000 0.16010  0.62490  0.49580  Biso   1.000  C
  C30      1.0000 0.24740  0.62009  0.57330  Biso   1.000  C
  C31      1.0000 0.22800  0.59217  0.64650  Biso   1.000  C
  H21      1.0000 0.15520  0.57960  0.65270  Biso   1.000  H
  C32      1.0000 0.31500  0.58280  0.71000  Biso   1.000  C
  H22      1.0000 0.30010  0.56330  0.75820  Biso   1.000  H
  C33      1.0000 0.42290  0.60130  0.70460  Biso   1.000  C
  C34      1.0000 0.44170  0.63088  0.63440  Biso   1.000  C
  H23      1.0000 0.51380  0.64510  0.63010  Biso   1.000  H
  C35      1.0000 0.35510  0.64014  0.56930  Biso   1.000  C
  H24      1.0000 0.37010  0.66040  0.52180  Biso   1.000  H
  C36      1.0000 0.51940  0.58820  0.77400  Biso   1.000  C
  H25      1.0000 0.58860  0.60460  0.75980  Biso   1.000  H
  H26      1.0000 0.52930  0.54990  0.77780  Biso   1.000  H
  H27      1.0000 0.50120  0.60190  0.82810  Biso   1.000  H
  O1       1.0000 0.07350  0.37196  0.88474  Biso   1.000  O
  O2       1.0000 0.88850  0.37849  0.83993  Biso   1.000  O
  O3       1.0000 0.91610  0.60504  0.92876  Biso   1.000  O
  O4       1.0000 0.83520  0.64879  0.81599  Biso   1.000  O
  O5       1.0000 0.93630  0.37461  0.67107  Biso   1.000  O
  O6       1.0000 0.84780  0.56167  0.71588  Biso   1.000  O
  O7       1.0000 0.56210  0.75837  0.61028  Biso   1.000  O
  O8       1.0000 0.51830  0.77991  0.47364  Biso   1.000  O
  O9       1.0000 0.16850  0.86733  0.52790  Biso   1.000  O
  O10      1.0000 0.26990  0.79485  0.50847  Biso   1.000  O
  O11      1.0000 0.71841  0.68679  0.57216  Biso   1.000  O
  O12      1.0000 0.10216  0.72972  0.52334  Biso   1.000  O
  Zn2      1.0000 0.41286  0.83314  0.50702  Biso   1.000  Zn
  C37      1.0000 0.51220  0.87429  0.67210  Biso   1.000  C
  C38      1.0000 0.47650  0.87345  0.76060  Biso   1.000  C
  H28      1.0000 0.42710  0.90420  0.76650  Biso   1.000  H
  H29      1.0000 0.43140  0.84120  0.76640  Biso   1.000  H
  C39      1.0000 0.62030  0.10919  0.65110  Biso   1.000  C
  C40      1.0000 0.60100  0.05866  0.70030  Biso   1.000  C
  H30      1.0000 0.51980  0.05290  0.70070  Biso   1.000  H
  H31      1.0000 0.63190  0.02810  0.67190  Biso   1.000  H
  C41      1.0000 0.64950  0.01629  0.83400  Biso   1.000  C
  C42      1.0000 0.60340  0.96827  0.80320  Biso   1.000  C
  H32      1.0000 0.57000  0.96580  0.74680  Biso   1.000  H
  C43      1.0000 0.60680  0.92370  0.85650  Biso   1.000  C
  C44      1.0000 0.65650  0.92611  0.94034  Biso   1.000  C
  C45      1.0000 0.70140  0.97568  0.96942  Biso   1.000  C
  H33      1.0000 0.73470  0.97830  0.02580  Biso   1.000  H
  C46      1.0000 0.69840  0.02123  0.91778  Biso   1.000  C
  C47      1.0000 0.74570  0.07505  0.94966  Biso   1.000  C
  H34      1.0000 0.79290  0.08810  0.90630  Biso   1.000  H
  C48      1.0000 0.82250  0.07317  0.03370  Biso   1.000  C
  C49      1.0000 0.93640  0.06049  0.03390  Biso   1.000  C
  H35      1.0000 0.96420  0.05140  0.98250  Biso   1.000  H
  C50      1.0000 0.01000  0.06094  0.10860  Biso   1.000  C
  H36      1.0000 0.08620  0.05220  0.10650  Biso   1.000  H
  C51      1.0000 0.97280  0.07401  0.18600  Biso   1.000  C
  C52      1.0000 0.85940  0.08560  0.18540  Biso   1.000  C
  H37      1.0000 0.83130  0.09380  0.23700  Biso   1.000  H
  C53      1.0000 0.78590  0.08547  0.11130  Biso   1.000  C
  H38      1.0000 0.70950  0.09390  0.11380  Biso   1.000  H
  C54      1.0000 0.05340  0.07540  0.26780  Biso   1.000  C
  H39      1.0000 0.12870  0.06590  0.25540  Biso   1.000  H
  H40      1.0000 0.02820  0.05030  0.30820  Biso   1.000  H
  H41      1.0000 0.05450  0.11110  0.29170  Biso   1.000  H
  C55      1.0000 0.92670  0.25322  0.96580  Biso   1.000  C
  C56      1.0000 0.31840  0.31815  0.97790  Biso   1.000  C
  C57      1.0000 0.84530  0.21331  0.99740  Biso   1.000  C
  H42      1.0000 0.88760  0.18690  0.03370  Biso   1.000  H
  H43      1.0000 0.79380  0.23180  0.03170  Biso   1.000  H
  C58      1.0000 0.42260  0.28472  0.96870  Biso   1.000  C
  H44      1.0000 0.44870  0.29140  0.91310  Biso   1.000  H
  H45      1.0000 0.48320  0.29490  0.01260  Biso   1.000  H
  C59      1.0000 0.48470  0.19415  0.97010  Biso   1.000  C
  C60      1.0000 0.59200  0.20946  0.95280  Biso   1.000  C
  H46      1.0000 0.60910  0.24570  0.94600  Biso   1.000  H
  C61      1.0000 0.67440  0.17038  0.94570  Biso   1.000  C
  C62      1.0000 0.65140  0.11647  0.95396  Biso   1.000  C
  C63      1.0000 0.54270  0.10258  0.97239  Biso   1.000  C
  H47      1.0000 0.52620  0.06630  0.97920  Biso   1.000  H
  C64      1.0000 0.45810  0.13978  0.98112  Biso   1.000  C
  C65      1.0000 0.33990  0.12490  0.00420  Biso   1.000  C
  C66      1.0000 0.25260  0.12009  0.92670  Biso   1.000  C
  C67      1.0000 0.27200  0.09217  0.85350  Biso   1.000  C
  H48      1.0000 0.34480  0.07960  0.84730  Biso   1.000  H
  C68      1.0000 0.18500  0.08280  0.79000  Biso   1.000  C
  H49      1.0000 0.19990  0.06330  0.74180  Biso   1.000  H
  C69      1.0000 0.07710  0.10130  0.79540  Biso   1.000  C
  C70      1.0000 0.05830  0.13088  0.86560  Biso   1.000  C
  H50      1.0000 0.98620  0.14510  0.86990  Biso   1.000  H
  C71      1.0000 0.14490  0.14014  0.93070  Biso   1.000  C
  H51      1.0000 0.12990  0.16040  0.97820  Biso   1.000  H
  C72      1.0000 0.98060  0.08820  0.72600  Biso   1.000  C
  H52      1.0000 0.91140  0.10460  0.74020  Biso   1.000  H
  H53      1.0000 0.97070  0.04990  0.72220  Biso   1.000  H
  H54      1.0000 0.99880  0.10190  0.67190  Biso   1.000  H
  O13      1.0000 0.42650  0.87196  0.61526  Biso   1.000  O
  O14      1.0000 0.61150  0.87849  0.66007  Biso   1.000  O
  O15      1.0000 0.58390  0.10504  0.57124  Biso   1.000  O
  O16      1.0000 0.66480  0.14879  0.68401  Biso   1.000  O
  O17      1.0000 0.56370  0.87461  0.82893  Biso   1.000  O
  O18      1.0000 0.65220  0.06167  0.78412  Biso   1.000  O
  O19      1.0000 0.93790  0.25837  0.88972  Biso   1.000  O
  O20      1.0000 0.98170  0.27991  0.02636  Biso   1.000  O
  O21      1.0000 0.33150  0.36733  0.97210  Biso   1.000  O
  O22      1.0000 0.23010  0.29485  0.99153  Biso   1.000  O
  O23      1.0000 0.78159  0.18679  0.92784  Biso   1.000  O
  O24      1.0000 0.39784  0.22972  0.97666  Biso   1.000  O
  Zn3      1.0000 0.91286  0.66686  0.00702  Biso   1.000  Zn
  C73      1.0000 0.01220  0.62571  0.17210  Biso   1.000  C
  C74      1.0000 0.97650  0.62655  0.26060  Biso   1.000  C
  H55      1.0000 0.92710  0.59580  0.26650  Biso   1.000  H
  H56      1.0000 0.93140  0.65880  0.26640  Biso   1.000  H
  C75      1.0000 0.12030  0.39081  0.15110  Biso   1.000  C
  C76      1.0000 0.10100  0.44134  0.20030  Biso   1.000  C
  H57      1.0000 0.01980  0.44710  0.20070  Biso   1.000  H
  H58      1.0000 0.13190  0.47190  0.17190  Biso   1.000  H
  C77      1.0000 0.14950  0.48371  0.33400  Biso   1.000  C
  C78      1.0000 0.10340  0.53173  0.30320  Biso   1.000  C
  H59      1.0000 0.07000  0.53420  0.24680  Biso   1.000  H
  C79      1.0000 0.10680  0.57630  0.35650  Biso   1.000  C
  C80      1.0000 0.15650  0.57389  0.44034  Biso   1.000  C
  C81      1.0000 0.20140  0.52432  0.46942  Biso   1.000  C
  H60      1.0000 0.23470  0.52170  0.52580  Biso   1.000  H
  C82      1.0000 0.19840  0.47877  0.41778  Biso   1.000  C
  C83      1.0000 0.24570  0.42495  0.44966  Biso   1.000  C
  H61      1.0000 0.29290  0.41190  0.40630  Biso   1.000  H
  C84      1.0000 0.32250  0.42683  0.53370  Biso   1.000  C
  C85      1.0000 0.43640  0.43951  0.53390  Biso   1.000  C
  H62      1.0000 0.46420  0.44860  0.48250  Biso   1.000  H
  C86      1.0000 0.51000  0.43906  0.60860  Biso   1.000  C
  H63      1.0000 0.58620  0.44780  0.60650  Biso   1.000  H
  C87      1.0000 0.47280  0.42599  0.68600  Biso   1.000  C
  C88      1.0000 0.35940  0.41440  0.68540  Biso   1.000  C
  H64      1.0000 0.33130  0.40620  0.73700  Biso   1.000  H
  C89      1.0000 0.28590  0.41453  0.61130  Biso   1.000  C
  H65      1.0000 0.20950  0.40610  0.61380  Biso   1.000  H
  C90      1.0000 0.55340  0.42460  0.76780  Biso   1.000  C
  H66      1.0000 0.62870  0.43410  0.75540  Biso   1.000  H
  H67      1.0000 0.52820  0.44970  0.80820  Biso   1.000  H
  H68      1.0000 0.55450  0.38890  0.79170  Biso   1.000  H
  C91      1.0000 0.42670  0.24678  0.46580  Biso   1.000  C
  C92      1.0000 0.81840  0.18185  0.47790  Biso   1.000  C
  C93      1.0000 0.34530  0.28669  0.49740  Biso   1.000  C
  H69      1.0000 0.38760  0.31310  0.53370  Biso   1.000  H
  H70      1.0000 0.29380  0.26820  0.53170  Biso   1.000  H
  C94      1.0000 0.92260  0.21528  0.46870  Biso   1.000  C
  H71      1.0000 0.94870  0.20860  0.41310  Biso   1.000  H
  H72      1.0000 0.98320  0.20510  0.51260  Biso   1.000  H
  C95      1.0000 0.98470  0.30585  0.47010  Biso   1.000  C
  C96      1.0000 0.09200  0.29054  0.45280  Biso   1.000  C
  H73      1.0000 0.10910  0.25430  0.44600  Biso   1.000  H
  C97      1.0000 0.17440  0.32962  0.44570  Biso   1.000  C
  C98      1.0000 0.15140  0.38353  0.45396  Biso   1.000  C
  C99      1.0000 0.04270  0.39742  0.47239  Biso   1.000  C
  H74      1.0000 0.02620  0.43370  0.47920  Biso   1.000  H
  C100     1.0000 0.95810  0.36022  0.48112  Biso   1.000  C
  C101     1.0000 0.83990  0.37510  0.50420  Biso   1.000  C
  C102     1.0000 0.75260  0.37991  0.42670  Biso   1.000  C
  C103     1.0000 0.77200  0.40783  0.35350  Biso   1.000  C
  H75      1.0000 0.84480  0.42040  0.34730  Biso   1.000  H
  C104     1.0000 0.68500  0.41720  0.29000  Biso   1.000  C
  H76      1.0000 0.69990  0.43670  0.24180  Biso   1.000  H
  C105     1.0000 0.57710  0.39870  0.29540  Biso   1.000  C
  C106     1.0000 0.55830  0.36912  0.36560  Biso   1.000  C
  H77      1.0000 0.48620  0.35490  0.36990  Biso   1.000  H
  C107     1.0000 0.64490  0.35986  0.43070  Biso   1.000  C
  H78      1.0000 0.62990  0.33960  0.47820  Biso   1.000  H
  C108     1.0000 0.48060  0.41180  0.22600  Biso   1.000  C
  H79      1.0000 0.41140  0.39540  0.24020  Biso   1.000  H
  H80      1.0000 0.47070  0.45010  0.22220  Biso   1.000  H
  H81      1.0000 0.49880  0.39810  0.17190  Biso   1.000  H
  O25      1.0000 0.92650  0.62804  0.11526  Biso   1.000  O
  O26      1.0000 0.11150  0.62151  0.16007  Biso   1.000  O
  O27      1.0000 0.08390  0.39496  0.07124  Biso   1.000  O
  O28      1.0000 0.16480  0.35121  0.18401  Biso   1.000  O
  O29      1.0000 0.06370  0.62539  0.32893  Biso   1.000  O
  O30      1.0000 0.15220  0.43833  0.28412  Biso   1.000  O
  O31      1.0000 0.43790  0.24163  0.38972  Biso   1.000  O
  O32      1.0000 0.48170  0.22009  0.52636  Biso   1.000  O
  O33      1.0000 0.83150  0.13267  0.47210  Biso   1.000  O
  O34      1.0000 0.73010  0.20515  0.49153  Biso   1.000  O
  O35      1.0000 0.28159  0.31321  0.42784  Biso   1.000  O
  O36      1.0000 0.89784  0.27028  0.47666  Biso   1.000  O
  Zn4      1.0000 0.58714  0.16686  0.49298  Biso   1.000  Zn
  C109     1.0000 0.48780  0.12571  0.32790  Biso   1.000  C
  C110     1.0000 0.52350  0.12655  0.23940  Biso   1.000  C
  H82      1.0000 0.57290  0.09580  0.23350  Biso   1.000  H
  H83      1.0000 0.56860  0.15880  0.23360  Biso   1.000  H
  C111     1.0000 0.37970  0.89081  0.34890  Biso   1.000  C
  C112     1.0000 0.39900  0.94134  0.29970  Biso   1.000  C
  H84      1.0000 0.48020  0.94710  0.29930  Biso   1.000  H
  H85      1.0000 0.36810  0.97190  0.32810  Biso   1.000  H
  C113     1.0000 0.35050  0.98371  0.16600  Biso   1.000  C
  C114     1.0000 0.39660  0.03173  0.19680  Biso   1.000  C
  H86      1.0000 0.43000  0.03420  0.25320  Biso   1.000  H
  C115     1.0000 0.39320  0.07630  0.14350  Biso   1.000  C
  C116     1.0000 0.34350  0.07389  0.05966  Biso   1.000  C
  C117     1.0000 0.29860  0.02432  0.03058  Biso   1.000  C
  H87      1.0000 0.26530  0.02170  0.97420  Biso   1.000  H
  C118     1.0000 0.30160  0.97877  0.08222  Biso   1.000  C
  C119     1.0000 0.25430  0.92495  0.05034  Biso   1.000  C
  H88      1.0000 0.20710  0.91190  0.09370  Biso   1.000  H
  C120     1.0000 0.17750  0.92683  0.96630  Biso   1.000  C
  C121     1.0000 0.06360  0.93951  0.96610  Biso   1.000  C
  H89      1.0000 0.03580  0.94860  0.01750  Biso   1.000  H
  C122     1.0000 0.99000  0.93906  0.89140  Biso   1.000  C
  H90      1.0000 0.91380  0.94780  0.89350  Biso   1.000  H
  C123     1.0000 0.02720  0.92599  0.81400  Biso   1.000  C
  C124     1.0000 0.14060  0.91440  0.81460  Biso   1.000  C
  H91      1.0000 0.16870  0.90620  0.76300  Biso   1.000  H
  C125     1.0000 0.21410  0.91453  0.88870  Biso   1.000  C
  H92      1.0000 0.29050  0.90610  0.88620  Biso   1.000  H
  C126     1.0000 0.94660  0.92460  0.73220  Biso   1.000  C
  H93      1.0000 0.87130  0.93410  0.74460  Biso   1.000  H
  H94      1.0000 0.97180  0.94970  0.69180  Biso   1.000  H
  H95      1.0000 0.94550  0.88890  0.70830  Biso   1.000  H
  C127     1.0000 0.07330  0.74678  0.03420  Biso   1.000  C
  C128     1.0000 0.68160  0.68185  0.02210  Biso   1.000  C
  C129     1.0000 0.15470  0.78669  0.00260  Biso   1.000  C
  H96      1.0000 0.11240  0.81310  0.96630  Biso   1.000  H
  H97      1.0000 0.20620  0.76820  0.96830  Biso   1.000  H
  C130     1.0000 0.57740  0.71528  0.03130  Biso   1.000  C
  H98      1.0000 0.55130  0.70860  0.08690  Biso   1.000  H
  H99      1.0000 0.51680  0.70510  0.98740  Biso   1.000  H
  C131     1.0000 0.51530  0.80585  0.02990  Biso   1.000  C
  C132     1.0000 0.40800  0.79054  0.04720  Biso   1.000  C
  H100     1.0000 0.39090  0.75430  0.05400  Biso   1.000  H
  C133     1.0000 0.32560  0.82962  0.05430  Biso   1.000  C
  C134     1.0000 0.34860  0.88353  0.04604  Biso   1.000  C
  C135     1.0000 0.45730  0.89742  0.02761  Biso   1.000  C
  H101     1.0000 0.47380  0.93370  0.02080  Biso   1.000  H
  C136     1.0000 0.54190  0.86022  0.01888  Biso   1.000  C
  C137     1.0000 0.66010  0.87510  0.99580  Biso   1.000  C
  C138     1.0000 0.74740  0.87991  0.07330  Biso   1.000  C
  C139     1.0000 0.72800  0.90783  0.14650  Biso   1.000  C
  H102     1.0000 0.65520  0.92040  0.15270  Biso   1.000  H
  C140     1.0000 0.81500  0.91720  0.21000  Biso   1.000  C
  H103     1.0000 0.80010  0.93670  0.25820  Biso   1.000  H
  C141     1.0000 0.92290  0.89870  0.20460  Biso   1.000  C
  C142     1.0000 0.94170  0.86912  0.13440  Biso   1.000  C
  H104     1.0000 0.01380  0.85490  0.13010  Biso   1.000  H
  C143     1.0000 0.85510  0.85986  0.06930  Biso   1.000  C
  H105     1.0000 0.87010  0.83960  0.02180  Biso   1.000  H
  C144     1.0000 0.01940  0.91180  0.27400  Biso   1.000  C
  H106     1.0000 0.08860  0.89540  0.25980  Biso   1.000  H
  H107     1.0000 0.02930  0.95010  0.27780  Biso   1.000  H
  H108     1.0000 0.00120  0.89810  0.32810  Biso   1.000  H
  O37      1.0000 0.57350  0.12804  0.38474  Biso   1.000  O
  O38      1.0000 0.38850  0.12151  0.33993  Biso   1.000  O
  O39      1.0000 0.41610  0.89496  0.42876  Biso   1.000  O
  O40      1.0000 0.33520  0.85121  0.31599  Biso   1.000  O
  O41      1.0000 0.43630  0.12539  0.17107  Biso   1.000  O
  O42      1.0000 0.34780  0.93833  0.21588  Biso   1.000  O
  O43      1.0000 0.06210  0.74163  0.11028  Biso   1.000  O
  O44      1.0000 0.01830  0.72009  0.97364  Biso   1.000  O
  O45      1.0000 0.66850  0.63267  0.02790  Biso   1.000  O
  O46      1.0000 0.76990  0.70515  0.00847  Biso   1.000  O
  O47      1.0000 0.21841  0.81321  0.07216  Biso   1.000  O
  O48      1.0000 0.60216  0.77028  0.02334  Biso   1.000  O
