data_image0
_cell_length_a       13.919
_cell_length_b       17.8965
_cell_length_c       16.1361
_cell_angle_alpha    90
_cell_angle_beta     98.619
_cell_angle_gamma    90

_symmetry_space_group_name_H-M    "P 1"
_symmetry_int_tables_number       1

loop_
  _symmetry_equiv_pos_as_xyz
  'x, y, z'

loop_
  _atom_site_label
  _atom_site_occupancy
  _atom_site_fract_x
  _atom_site_fract_y
  _atom_site_fract_z
  _atom_site_thermal_displace_type
  _atom_site_B_iso_or_equiv
  _atom_site_type_symbol
  C1       1.0000 0.99460  0.30050  0.23610  Biso   1.000  C
  C2       1.0000 0.00460  0.50090  0.16660  Biso   1.000  C
  C3       1.0000 0.99460  0.43230  0.30840  Biso   1.000  C
  C4       1.0000 0.00450  0.36870  0.08780  Biso   1.000  C
  C5       1.0000 0.13960  0.39700  0.22220  Biso   1.000  C
  C6       1.0000 0.86050  0.40240  0.17610  Biso   1.000  C
  C7       1.0000 0.78260  0.44740  0.44410  Biso   1.000  C
  H1       1.0000 0.81490  0.41180  0.41650  Biso   1.000  H
  C8       1.0000 0.68400  0.43960  0.44100  Biso   1.000  C
  H2       1.0000 0.65150  0.39990  0.41210  Biso   1.000  H
  C9       1.0000 0.63350  0.49110  0.48110  Biso   1.000  C
  C10      1.0000 0.68570  0.54960  0.52070  Biso   1.000  C
  H3       1.0000 0.65420  0.58680  0.54670  Biso   1.000  H
  C11      1.0000 0.78530  0.55290  0.52160  Biso   1.000  C
  H4       1.0000 0.81940  0.59220  0.55000  Biso   1.000  H
  C12      1.0000 0.52590  0.48120  0.47920  Biso   1.000  C
  H5       1.0000 0.49540  0.44420  0.44430  Biso   1.000  H
  N1       1.0000 0.99140  0.24240  0.26780  Biso   1.000  N
  N2       1.0000 0.00780  0.56260  0.15120  Biso   1.000  N
  N3       1.0000 0.99250  0.44930  0.37600  Biso   1.000  N
  N4       1.0000 0.00730  0.35080  0.01910  Biso   1.000  N
  N5       1.0000 0.22190  0.39610  0.23740  Biso   1.000  N
  N6       1.0000 0.77710  0.40450  0.16640  Biso   1.000  N
  N7       1.0000 0.83520  0.50260  0.48390  Biso   1.000  N
  Co1      1.0000 0.99839  0.17827  0.38682  Biso   1.000  Co
  Cr1      1.0000 0.99974  0.39971  0.19847  Biso   1.000  Cr
  C13      1.0000 0.00540  0.80050  0.26390  Biso   1.000  C
  C14      1.0000 0.99540  0.00090  0.33340  Biso   1.000  C
  C15      1.0000 0.00540  0.93230  0.19160  Biso   1.000  C
  C16      1.0000 0.99550  0.86870  0.41220  Biso   1.000  C
  C17      1.0000 0.86040  0.89700  0.27780  Biso   1.000  C
  C18      1.0000 0.13950  0.90240  0.32390  Biso   1.000  C
  C19      1.0000 0.21740  0.94740  0.05590  Biso   1.000  C
  H6       1.0000 0.18510  0.91180  0.08350  Biso   1.000  H
  C20      1.0000 0.31600  0.93960  0.05900  Biso   1.000  C
  H7       1.0000 0.34850  0.89990  0.08790  Biso   1.000  H
  C21      1.0000 0.36650  0.99110  0.01890  Biso   1.000  C
  C22      1.0000 0.31430  0.04960  0.97930  Biso   1.000  C
  H8       1.0000 0.34580  0.08680  0.95330  Biso   1.000  H
  C23      1.0000 0.21470  0.05290  0.97840  Biso   1.000  C
  H9       1.0000 0.18060  0.09220  0.95000  Biso   1.000  H
  C24      1.0000 0.47410  0.98120  0.02080  Biso   1.000  C
  H10      1.0000 0.50460  0.94420  0.05570  Biso   1.000  H
  N8       1.0000 0.00860  0.74240  0.23220  Biso   1.000  N
  N9       1.0000 0.99220  0.06260  0.34880  Biso   1.000  N
  N10      1.0000 0.00750  0.94930  0.12400  Biso   1.000  N
  N11      1.0000 0.99270  0.85080  0.48090  Biso   1.000  N
  N12      1.0000 0.77810  0.89610  0.26260  Biso   1.000  N
  N13      1.0000 0.22290  0.90450  0.33360  Biso   1.000  N
  N14      1.0000 0.16480  0.00260  0.01610  Biso   1.000  N
  Co2      1.0000 0.00161  0.67827  0.11318  Biso   1.000  Co
  Cr2      1.0000 0.00026  0.89971  0.30153  Biso   1.000  Cr
  C25      1.0000 0.00540  0.69950  0.76390  Biso   1.000  C
  C26      1.0000 0.99540  0.49910  0.83340  Biso   1.000  C
  C27      1.0000 0.00540  0.56770  0.69160  Biso   1.000  C
  C28      1.0000 0.99550  0.63130  0.91220  Biso   1.000  C
  C29      1.0000 0.86040  0.60300  0.77780  Biso   1.000  C
  C30      1.0000 0.13950  0.59760  0.82390  Biso   1.000  C
  C31      1.0000 0.21740  0.55260  0.55590  Biso   1.000  C
  H11      1.0000 0.18510  0.58820  0.58350  Biso   1.000  H
  C32      1.0000 0.31600  0.56040  0.55900  Biso   1.000  C
  H12      1.0000 0.34850  0.60010  0.58790  Biso   1.000  H
  C33      1.0000 0.36650  0.50890  0.51890  Biso   1.000  C
  C34      1.0000 0.31430  0.45040  0.47930  Biso   1.000  C
  H13      1.0000 0.34580  0.41320  0.45330  Biso   1.000  H
  C35      1.0000 0.21470  0.44710  0.47840  Biso   1.000  C
  H14      1.0000 0.18060  0.40780  0.45000  Biso   1.000  H
  C36      1.0000 0.47410  0.51880  0.52080  Biso   1.000  C
  H15      1.0000 0.50460  0.55580  0.55570  Biso   1.000  H
  N15      1.0000 0.00860  0.75760  0.73220  Biso   1.000  N
  N16      1.0000 0.99220  0.43740  0.84880  Biso   1.000  N
  N17      1.0000 0.00750  0.55070  0.62400  Biso   1.000  N
  N18      1.0000 0.99270  0.64920  0.98090  Biso   1.000  N
  N19      1.0000 0.77810  0.60390  0.76260  Biso   1.000  N
  N20      1.0000 0.22290  0.59550  0.83360  Biso   1.000  N
  N21      1.0000 0.16480  0.49740  0.51610  Biso   1.000  N
  Co3      1.0000 0.00161  0.82173  0.61318  Biso   1.000  Co
  Cr3      1.0000 0.00026  0.60029  0.80153  Biso   1.000  Cr
  C37      1.0000 0.99460  0.19950  0.73610  Biso   1.000  C
  C38      1.0000 0.00460  0.99910  0.66660  Biso   1.000  C
  C39      1.0000 0.99460  0.06770  0.80840  Biso   1.000  C
  C40      1.0000 0.00450  0.13130  0.58780  Biso   1.000  C
  C41      1.0000 0.13960  0.10300  0.72220  Biso   1.000  C
  C42      1.0000 0.86050  0.09760  0.67610  Biso   1.000  C
  C43      1.0000 0.78260  0.05260  0.94410  Biso   1.000  C
  H16      1.0000 0.81490  0.08820  0.91650  Biso   1.000  H
  C44      1.0000 0.68400  0.06040  0.94100  Biso   1.000  C
  H17      1.0000 0.65150  0.10010  0.91210  Biso   1.000  H
  C45      1.0000 0.63350  0.00890  0.98110  Biso   1.000  C
  C46      1.0000 0.68570  0.95040  0.02070  Biso   1.000  C
  H18      1.0000 0.65420  0.91320  0.04670  Biso   1.000  H
  C47      1.0000 0.78530  0.94710  0.02160  Biso   1.000  C
  H19      1.0000 0.81940  0.90780  0.05000  Biso   1.000  H
  C48      1.0000 0.52590  0.01880  0.97920  Biso   1.000  C
  H20      1.0000 0.49540  0.05580  0.94430  Biso   1.000  H
  N22      1.0000 0.99140  0.25760  0.76780  Biso   1.000  N
  N23      1.0000 0.00780  0.93740  0.65120  Biso   1.000  N
  N24      1.0000 0.99250  0.05070  0.87600  Biso   1.000  N
  N25      1.0000 0.00730  0.14920  0.51910  Biso   1.000  N
  N26      1.0000 0.22190  0.10390  0.73740  Biso   1.000  N
  N27      1.0000 0.77710  0.09550  0.66640  Biso   1.000  N
  N28      1.0000 0.83520  0.99740  0.98390  Biso   1.000  N
  Co4      1.0000 0.99839  0.32173  0.88682  Biso   1.000  Co
  Cr4      1.0000 0.99974  0.10029  0.69847  Biso   1.000  Cr
  Co5      1.0000 0.00000  0.50000  0.50000  Biso   1.000  Co
  Co6      1.0000 0.00000  0.00000  0.00000  Biso   1.000  Co
