data_image0
_cell_length_a       10.7613
_cell_length_b       7.1944
_cell_length_c       17.2162
_cell_angle_alpha    90
_cell_angle_beta     97.107
_cell_angle_gamma    90

_symmetry_space_group_name_H-M    "P 1"
_symmetry_int_tables_number       1

loop_
  _symmetry_equiv_pos_as_xyz
  'x, y, z'

loop_
  _atom_site_label
  _atom_site_occupancy
  _atom_site_fract_x
  _atom_site_fract_y
  _atom_site_fract_z
  _atom_site_thermal_displace_type
  _atom_site_B_iso_or_equiv
  _atom_site_type_symbol
  Sm1      1.0000 0.32635  0.51998  0.75283  Biso   1.000  Sm
  O1       1.0000 0.00562  0.25010  0.68506  Biso   1.000  O
  O2       1.0000 0.20181  0.30830  0.66928  Biso   1.000  O
  O3       1.0000 0.14320  0.68970  0.69178  Biso   1.000  O
  O4       1.0000 0.08300  0.92150  0.61298  Biso   1.000  O
  O5       1.0000 0.15500  0.46800  0.82406  Biso   1.000  O
  O6       1.0000 0.11223  0.17890  0.85868  Biso   1.000  O
  O7       1.0000 0.84830  0.18500  0.84893  Biso   1.000  O
  O8       1.0000 0.85100  0.04790  0.96527  Biso   1.000  O
  C1       1.0000 0.08380  0.32860  0.64884  Biso   1.000  C
  C2       1.0000 0.04150  0.42640  0.57357  Biso   1.000  C
  C3       1.0000 0.04810  0.61820  0.56147  Biso   1.000  C
  C4       1.0000 0.00650  0.68970  0.48790  Biso   1.000  C
  C5       1.0000 0.09450  0.75210  0.62487  Biso   1.000  C
  C6       1.0000 0.10840  0.35340  0.86640  Biso   1.000  C
  C7       1.0000 0.04680  0.42980  0.93380  Biso   1.000  C
  C8       1.0000 0.09880  0.58900  0.97102  Biso   1.000  C
  C9       1.0000 0.94680  0.34170  0.96250  Biso   1.000  C
  C10      1.0000 0.87810  0.18180  0.92017  Biso   1.000  C
  H1       1.0000 0.00700  0.82600  0.47800  Biso   1.000  H
  H2       1.0000 0.17800  0.64800  0.95200  Biso   1.000  H
  H3       1.0000 0.81400  0.94600  0.93600  Biso   1.000  H
  Sm2      1.0000 0.17365  0.01998  0.74717  Biso   1.000  Sm
  O9       1.0000 0.49438  0.75010  0.81494  Biso   1.000  O
  O10      1.0000 0.29819  0.80830  0.83072  Biso   1.000  O
  O11      1.0000 0.35680  0.18970  0.80822  Biso   1.000  O
  O12      1.0000 0.41700  0.42150  0.88702  Biso   1.000  O
  O13      1.0000 0.34500  0.96800  0.67594  Biso   1.000  O
  O14      1.0000 0.38777  0.67890  0.64132  Biso   1.000  O
  O15      1.0000 0.65170  0.68500  0.65107  Biso   1.000  O
  O16      1.0000 0.64900  0.54790  0.53473  Biso   1.000  O
  C11      1.0000 0.41620  0.82860  0.85116  Biso   1.000  C
  C12      1.0000 0.45850  0.92640  0.92643  Biso   1.000  C
  C13      1.0000 0.45190  0.11820  0.93853  Biso   1.000  C
  C14      1.0000 0.49350  0.18970  0.01210  Biso   1.000  C
  C15      1.0000 0.40550  0.25210  0.87513  Biso   1.000  C
  C16      1.0000 0.39160  0.85340  0.63360  Biso   1.000  C
  C17      1.0000 0.45320  0.92980  0.56620  Biso   1.000  C
  C18      1.0000 0.40120  0.08900  0.52898  Biso   1.000  C
  C19      1.0000 0.55320  0.84170  0.53750  Biso   1.000  C
  C20      1.0000 0.62190  0.68180  0.57983  Biso   1.000  C
  H4       1.0000 0.49300  0.32600  0.02200  Biso   1.000  H
  H5       1.0000 0.32200  0.14800  0.54800  Biso   1.000  H
  H6       1.0000 0.68600  0.44600  0.56400  Biso   1.000  H
  Sm3      1.0000 0.67365  0.48002  0.24717  Biso   1.000  Sm
  O17      1.0000 0.99438  0.74990  0.31494  Biso   1.000  O
  O18      1.0000 0.79819  0.69170  0.33072  Biso   1.000  O
  O19      1.0000 0.85680  0.31030  0.30822  Biso   1.000  O
  O20      1.0000 0.91700  0.07850  0.38702  Biso   1.000  O
  O21      1.0000 0.84500  0.53200  0.17594  Biso   1.000  O
  O22      1.0000 0.88777  0.82110  0.14132  Biso   1.000  O
  O23      1.0000 0.15170  0.81500  0.15107  Biso   1.000  O
  O24      1.0000 0.14900  0.95210  0.03473  Biso   1.000  O
  C21      1.0000 0.91620  0.67140  0.35116  Biso   1.000  C
  C22      1.0000 0.95850  0.57360  0.42643  Biso   1.000  C
  C23      1.0000 0.95190  0.38180  0.43853  Biso   1.000  C
  C24      1.0000 0.99350  0.31030  0.51210  Biso   1.000  C
  C25      1.0000 0.90550  0.24790  0.37513  Biso   1.000  C
  C26      1.0000 0.89160  0.64660  0.13360  Biso   1.000  C
  C27      1.0000 0.95320  0.57020  0.06620  Biso   1.000  C
  C28      1.0000 0.90120  0.41100  0.02898  Biso   1.000  C
  C29      1.0000 0.05320  0.65830  0.03750  Biso   1.000  C
  C30      1.0000 0.12190  0.81820  0.07983  Biso   1.000  C
  H7       1.0000 0.99300  0.17400  0.52200  Biso   1.000  H
  H8       1.0000 0.82200  0.35200  0.04800  Biso   1.000  H
  H9       1.0000 0.18600  0.05400  0.06400  Biso   1.000  H
  Sm4      1.0000 0.82635  0.98002  0.25283  Biso   1.000  Sm
  O25      1.0000 0.50562  0.24990  0.18506  Biso   1.000  O
  O26      1.0000 0.70181  0.19170  0.16928  Biso   1.000  O
  O27      1.0000 0.64320  0.81030  0.19178  Biso   1.000  O
  O28      1.0000 0.58300  0.57850  0.11298  Biso   1.000  O
  O29      1.0000 0.65500  0.03200  0.32406  Biso   1.000  O
  O30      1.0000 0.61223  0.32110  0.35868  Biso   1.000  O
  O31      1.0000 0.34830  0.31500  0.34893  Biso   1.000  O
  O32      1.0000 0.35100  0.45210  0.46527  Biso   1.000  O
  C31      1.0000 0.58380  0.17140  0.14884  Biso   1.000  C
  C32      1.0000 0.54150  0.07360  0.07357  Biso   1.000  C
  C33      1.0000 0.54810  0.88180  0.06147  Biso   1.000  C
  C34      1.0000 0.50650  0.81030  0.98790  Biso   1.000  C
  C35      1.0000 0.59450  0.74790  0.12487  Biso   1.000  C
  C36      1.0000 0.60840  0.14660  0.36640  Biso   1.000  C
  C37      1.0000 0.54680  0.07020  0.43380  Biso   1.000  C
  C38      1.0000 0.59880  0.91100  0.47102  Biso   1.000  C
  C39      1.0000 0.44680  0.15830  0.46250  Biso   1.000  C
  C40      1.0000 0.37810  0.31820  0.42017  Biso   1.000  C
  H10      1.0000 0.50700  0.67400  0.97800  Biso   1.000  H
  H11      1.0000 0.67800  0.85200  0.45200  Biso   1.000  H
  H12      1.0000 0.31400  0.55400  0.43600  Biso   1.000  H
