data_image0
_cell_length_a       11.1967
_cell_length_b       11.1967
_cell_length_c       44.0828
_cell_angle_alpha    90
_cell_angle_beta     90
_cell_angle_gamma    120

_symmetry_space_group_name_H-M    "P 1"
_symmetry_int_tables_number       1

loop_
  _symmetry_equiv_pos_as_xyz
  'x, y, z'

loop_
  _atom_site_label
  _atom_site_occupancy
  _atom_site_fract_x
  _atom_site_fract_y
  _atom_site_fract_z
  _atom_site_thermal_displace_type
  _atom_site_B_iso_or_equiv
  _atom_site_type_symbol
  H1       1.0000 0.65300  0.79500  0.76660  Biso   1.000  H
  O1       1.0000 0.67544  0.53890  0.60344  Biso   1.000  O
  O2       1.0000 0.48831  0.47933  0.63013  Biso   1.000  O
  O3       1.0000 0.70670  0.75980  0.76609  Biso   1.000  O
  N1       1.0000 0.56380  0.72960  0.58612  Biso   1.000  N
  C1       1.0000 0.76090  0.55430  0.70926  Biso   1.000  C
  C2       1.0000 0.69950  0.69550  0.73957  Biso   1.000  C
  C3       1.0000 0.82790  0.47560  0.70584  Biso   1.000  C
  H2       1.0000 0.87460  0.46590  0.72220  Biso   1.000  H
  C4       1.0000 0.68600  0.49940  0.65624  Biso   1.000  C
  C5       1.0000 0.68540  0.56410  0.68415  Biso   1.000  C
  C6       1.0000 0.76820  0.62290  0.73702  Biso   1.000  C
  C7       1.0000 0.61820  0.64150  0.68776  Biso   1.000  C
  H3       1.0000 0.56890  0.64910  0.67160  Biso   1.000  H
  C8       1.0000 0.62420  0.70550  0.71463  Biso   1.000  C
  H4       1.0000 0.57900  0.75570  0.71660  Biso   1.000  H
  C9       1.0000 0.54570  0.78670  0.61122  Biso   1.000  C
  H5       1.0000 0.49080  0.72900  0.62670  Biso   1.000  H
  C10      1.0000 0.61220  0.50720  0.62855  Biso   1.000  C
  C11      1.0000 0.68340  0.01580  0.59182  Biso   1.000  C
  C12      1.0000 0.70390  0.95720  0.56614  Biso   1.000  C
  H6       1.0000 0.75780  0.01270  0.55030  Biso   1.000  H
  C13      1.0000 0.64340  0.81450  0.56428  Biso   1.000  C
  H7       1.0000 0.65910  0.77660  0.54700  Biso   1.000  H
  C14      1.0000 0.75650  0.42940  0.65362  Biso   1.000  C
  H8       1.0000 0.75940  0.39160  0.63500  Biso   1.000  H
  C15      1.0000 0.60480  0.92690  0.61498  Biso   1.000  C
  H9       1.0000 0.59230  0.96230  0.63300  Biso   1.000  H
  C16      1.0000 0.82490  0.41420  0.67898  Biso   1.000  C
  H10      1.0000 0.86820  0.36200  0.67730  Biso   1.000  H
  C17      1.0000 0.73300  0.16820  0.59520  Biso   1.000  C
  H11      1.0000 0.77750  0.19730  0.61480  Biso   1.000  H
  H12      1.0000 0.65250  0.17920  0.59560  Biso   1.000  H
  H13      1.0000 0.20500  0.85800  0.43327  Biso   1.000  H
  O4       1.0000 0.46110  0.13654  0.27011  Biso   1.000  O
  O5       1.0000 0.52067  0.00898  0.29680  Biso   1.000  O
  O6       1.0000 0.24020  0.94690  0.43276  Biso   1.000  O
  N2       1.0000 0.27040  0.83420  0.25279  Biso   1.000  N
  C18      1.0000 0.44570  0.20660  0.37593  Biso   1.000  C
  C19      1.0000 0.30450  0.00400  0.40624  Biso   1.000  C
  C20      1.0000 0.52440  0.35230  0.37251  Biso   1.000  C
  H14      1.0000 0.53410  0.40870  0.38887  Biso   1.000  H
  C21      1.0000 0.50060  0.18660  0.32291  Biso   1.000  C
  C22      1.0000 0.43590  0.12130  0.35082  Biso   1.000  C
  C23      1.0000 0.37710  0.14530  0.40369  Biso   1.000  C
  C24      1.0000 0.35850  0.97670  0.35443  Biso   1.000  C
  H15      1.0000 0.35090  0.91980  0.33827  Biso   1.000  H
  C25      1.0000 0.29450  0.91870  0.38130  Biso   1.000  C
  H16      1.0000 0.24430  0.82330  0.38327  Biso   1.000  H
  C26      1.0000 0.21330  0.75900  0.27789  Biso   1.000  C
  H17      1.0000 0.27100  0.76180  0.29337  Biso   1.000  H
  C27      1.0000 0.49280  0.10500  0.29522  Biso   1.000  C
  C28      1.0000 0.98420  0.66760  0.25849  Biso   1.000  C
  C29      1.0000 0.04280  0.74670  0.23281  Biso   1.000  C
  H18      1.0000 0.98730  0.74510  0.21697  Biso   1.000  H
  C30      1.0000 0.18550  0.82890  0.23095  Biso   1.000  C
  H19      1.0000 0.22340  0.88250  0.21367  Biso   1.000  H
  C31      1.0000 0.57060  0.32710  0.32029  Biso   1.000  C
  H20      1.0000 0.60840  0.36780  0.30167  Biso   1.000  H
  C32      1.0000 0.07310  0.67790  0.28165  Biso   1.000  C
  H21      1.0000 0.03770  0.63000  0.29967  Biso   1.000  H
  C33      1.0000 0.58580  0.41070  0.34565  Biso   1.000  C
  H22      1.0000 0.63800  0.50620  0.34397  Biso   1.000  H
  C34      1.0000 0.83180  0.56480  0.26187  Biso   1.000  C
  H23      1.0000 0.80270  0.58020  0.28147  Biso   1.000  H
  H24      1.0000 0.82080  0.47330  0.26227  Biso   1.000  H
  H25      1.0000 0.14200  0.34700  0.09993  Biso   1.000  H
  O7       1.0000 0.86346  0.32456  0.93677  Biso   1.000  O
  O8       1.0000 0.99102  0.51169  0.96346  Biso   1.000  O
  O9       1.0000 0.05310  0.29330  0.09942  Biso   1.000  O
  N3       1.0000 0.16580  0.43620  0.91945  Biso   1.000  N
  C35      1.0000 0.79340  0.23910  0.04259  Biso   1.000  C
  C36      1.0000 0.99600  0.30050  0.07290  Biso   1.000  C
  C37      1.0000 0.64770  0.17210  0.03917  Biso   1.000  C
  H26      1.0000 0.59130  0.12540  0.05553  Biso   1.000  H
  C38      1.0000 0.81340  0.31400  0.98957  Biso   1.000  C
  C39      1.0000 0.87870  0.31460  0.01748  Biso   1.000  C
  C40      1.0000 0.85470  0.23180  0.07035  Biso   1.000  C
  C41      1.0000 0.02330  0.38180  0.02109  Biso   1.000  C
  H27      1.0000 0.08020  0.43110  0.00493  Biso   1.000  H
  C42      1.0000 0.08130  0.37580  0.04796  Biso   1.000  C
  H28      1.0000 0.17670  0.42100  0.04993  Biso   1.000  H
  C43      1.0000 0.24100  0.45430  0.94455  Biso   1.000  C
  H29      1.0000 0.23820  0.50920  0.96003  Biso   1.000  H
  C44      1.0000 0.89500  0.38780  0.96188  Biso   1.000  C
  C45      1.0000 0.33240  0.31660  0.92515  Biso   1.000  C
  C46      1.0000 0.25330  0.29610  0.89947  Biso   1.000  C
  H30      1.0000 0.25490  0.24220  0.88363  Biso   1.000  H
  C47      1.0000 0.17110  0.35660  0.89761  Biso   1.000  C
  H31      1.0000 0.11750  0.34090  0.88033  Biso   1.000  H
  C48      1.0000 0.67290  0.24350  0.98695  Biso   1.000  C
  H32      1.0000 0.63220  0.24060  0.96833  Biso   1.000  H
  C49      1.0000 0.32210  0.39520  0.94831  Biso   1.000  C
  H33      1.0000 0.37000  0.40770  0.96633  Biso   1.000  H
  C50      1.0000 0.58930  0.17510  0.01231  Biso   1.000  C
  H34      1.0000 0.49380  0.13180  0.01063  Biso   1.000  H
  C51      1.0000 0.43520  0.26700  0.92853  Biso   1.000  C
  H35      1.0000 0.41980  0.22250  0.94813  Biso   1.000  H
  H36      1.0000 0.52670  0.34750  0.92893  Biso   1.000  H
  H37      1.0000 0.20500  0.34700  0.40007  Biso   1.000  H
  O10      1.0000 0.46110  0.32456  0.56323  Biso   1.000  O
  O11      1.0000 0.52067  0.51169  0.53654  Biso   1.000  O
  O12      1.0000 0.24020  0.29330  0.40058  Biso   1.000  O
  N4       1.0000 0.27040  0.43620  0.58055  Biso   1.000  N
  C52      1.0000 0.44570  0.23910  0.45741  Biso   1.000  C
  C53      1.0000 0.30450  0.30050  0.42710  Biso   1.000  C
  C54      1.0000 0.52440  0.17210  0.46083  Biso   1.000  C
  H38      1.0000 0.53410  0.12540  0.44447  Biso   1.000  H
  C55      1.0000 0.50060  0.31400  0.51043  Biso   1.000  C
  C56      1.0000 0.43590  0.31460  0.48252  Biso   1.000  C
  C57      1.0000 0.37710  0.23180  0.42965  Biso   1.000  C
  C58      1.0000 0.35850  0.38180  0.47891  Biso   1.000  C
  H39      1.0000 0.35090  0.43110  0.49507  Biso   1.000  H
  C59      1.0000 0.29450  0.37580  0.45204  Biso   1.000  C
  H40      1.0000 0.24430  0.42100  0.45007  Biso   1.000  H
  C60      1.0000 0.21330  0.45430  0.55545  Biso   1.000  C
  H41      1.0000 0.27100  0.50920  0.53997  Biso   1.000  H
  C61      1.0000 0.49280  0.38780  0.53812  Biso   1.000  C
  C62      1.0000 0.98420  0.31660  0.57485  Biso   1.000  C
  C63      1.0000 0.04280  0.29610  0.60053  Biso   1.000  C
  H42      1.0000 0.98730  0.24220  0.61637  Biso   1.000  H
  C64      1.0000 0.18550  0.35660  0.60239  Biso   1.000  C
  H43      1.0000 0.22340  0.34090  0.61967  Biso   1.000  H
  C65      1.0000 0.57060  0.24350  0.51305  Biso   1.000  C
  H44      1.0000 0.60840  0.24060  0.53167  Biso   1.000  H
  C66      1.0000 0.07310  0.39520  0.55169  Biso   1.000  C
  H45      1.0000 0.03770  0.40770  0.53367  Biso   1.000  H
  C67      1.0000 0.58580  0.17510  0.48769  Biso   1.000  C
  H46      1.0000 0.63800  0.13180  0.48937  Biso   1.000  H
  C68      1.0000 0.83180  0.26700  0.57147  Biso   1.000  C
  H47      1.0000 0.80270  0.22250  0.55187  Biso   1.000  H
  H48      1.0000 0.82080  0.34750  0.57107  Biso   1.000  H
  H49      1.0000 0.14200  0.79500  0.73340  Biso   1.000  H
  O13      1.0000 0.86346  0.53890  0.89656  Biso   1.000  O
  O14      1.0000 0.99102  0.47933  0.86987  Biso   1.000  O
  O15      1.0000 0.05310  0.75980  0.73391  Biso   1.000  O
  N5       1.0000 0.16580  0.72960  0.91388  Biso   1.000  N
  C69      1.0000 0.79340  0.55430  0.79074  Biso   1.000  C
  C70      1.0000 0.99600  0.69550  0.76043  Biso   1.000  C
  C71      1.0000 0.64770  0.47560  0.79416  Biso   1.000  C
  H50      1.0000 0.59130  0.46590  0.77780  Biso   1.000  H
  C72      1.0000 0.81340  0.49940  0.84376  Biso   1.000  C
  C73      1.0000 0.87870  0.56410  0.81585  Biso   1.000  C
  C74      1.0000 0.85470  0.62290  0.76298  Biso   1.000  C
  C75      1.0000 0.02330  0.64150  0.81224  Biso   1.000  C
  H51      1.0000 0.08020  0.64910  0.82840  Biso   1.000  H
  C76      1.0000 0.08130  0.70550  0.78537  Biso   1.000  C
  H52      1.0000 0.17670  0.75570  0.78340  Biso   1.000  H
  C77      1.0000 0.24100  0.78670  0.88878  Biso   1.000  C
  H53      1.0000 0.23820  0.72900  0.87330  Biso   1.000  H
  C78      1.0000 0.89500  0.50720  0.87145  Biso   1.000  C
  C79      1.0000 0.33240  0.01580  0.90818  Biso   1.000  C
  C80      1.0000 0.25330  0.95720  0.93386  Biso   1.000  C
  H54      1.0000 0.25490  0.01270  0.94970  Biso   1.000  H
  C81      1.0000 0.17110  0.81450  0.93572  Biso   1.000  C
  H55      1.0000 0.11750  0.77660  0.95300  Biso   1.000  H
  C82      1.0000 0.67290  0.42940  0.84638  Biso   1.000  C
  H56      1.0000 0.63220  0.39160  0.86500  Biso   1.000  H
  C83      1.0000 0.32210  0.92690  0.88502  Biso   1.000  C
  H57      1.0000 0.37000  0.96230  0.86700  Biso   1.000  H
  C84      1.0000 0.58930  0.41420  0.82102  Biso   1.000  C
  H58      1.0000 0.49380  0.36200  0.82270  Biso   1.000  H
  C85      1.0000 0.43520  0.16820  0.90480  Biso   1.000  C
  H59      1.0000 0.41980  0.19730  0.88520  Biso   1.000  H
  H60      1.0000 0.52670  0.17920  0.90440  Biso   1.000  H
  H61      1.0000 0.65300  0.85800  0.06673  Biso   1.000  H
  O16      1.0000 0.67544  0.13654  0.22989  Biso   1.000  O
  O17      1.0000 0.48831  0.00898  0.20320  Biso   1.000  O
  O18      1.0000 0.70670  0.94690  0.06724  Biso   1.000  O
  N6       1.0000 0.56380  0.83420  0.24721  Biso   1.000  N
  C86      1.0000 0.76090  0.20660  0.12407  Biso   1.000  C
  C87      1.0000 0.69950  0.00400  0.09376  Biso   1.000  C
  C88      1.0000 0.82790  0.35230  0.12749  Biso   1.000  C
  H62      1.0000 0.87460  0.40870  0.11113  Biso   1.000  H
  C89      1.0000 0.68600  0.18660  0.17709  Biso   1.000  C
  C90      1.0000 0.68540  0.12130  0.14918  Biso   1.000  C
  C91      1.0000 0.76820  0.14530  0.09631  Biso   1.000  C
  C92      1.0000 0.61820  0.97670  0.14557  Biso   1.000  C
  H63      1.0000 0.56890  0.91980  0.16173  Biso   1.000  H
  C93      1.0000 0.62420  0.91870  0.11870  Biso   1.000  C
  H64      1.0000 0.57900  0.82330  0.11673  Biso   1.000  H
  C94      1.0000 0.54570  0.75900  0.22211  Biso   1.000  C
  H65      1.0000 0.49080  0.76180  0.20663  Biso   1.000  H
  C95      1.0000 0.61220  0.10500  0.20478  Biso   1.000  C
  C96      1.0000 0.68340  0.66760  0.24151  Biso   1.000  C
  C97      1.0000 0.70390  0.74670  0.26719  Biso   1.000  C
  H66      1.0000 0.75780  0.74510  0.28303  Biso   1.000  H
  C98      1.0000 0.64340  0.82890  0.26905  Biso   1.000  C
  H67      1.0000 0.65910  0.88250  0.28633  Biso   1.000  H
  C99      1.0000 0.75650  0.32710  0.17971  Biso   1.000  C
  H68      1.0000 0.75940  0.36780  0.19833  Biso   1.000  H
  C100     1.0000 0.60480  0.67790  0.21835  Biso   1.000  C
  H69      1.0000 0.59230  0.63000  0.20033  Biso   1.000  H
  C101     1.0000 0.82490  0.41070  0.15435  Biso   1.000  C
  H70      1.0000 0.86820  0.50620  0.15603  Biso   1.000  H
  C102     1.0000 0.73300  0.56480  0.23813  Biso   1.000  C
  H71      1.0000 0.77750  0.58020  0.21853  Biso   1.000  H
  H72      1.0000 0.65250  0.47330  0.23773  Biso   1.000  H
  Zn1      1.0000 0.48155  0.51845  0.58333  Biso   1.000  Zn
  Zn2      1.0000 0.48155  0.96310  0.25000  Biso   1.000  Zn
  Zn3      1.0000 0.03690  0.51845  0.91667  Biso   1.000  Zn
  H73      1.0000 0.34700  0.20500  0.26660  Biso   1.000  H
  O19      1.0000 0.32456  0.46110  0.10344  Biso   1.000  O
  O20      1.0000 0.51169  0.52067  0.13013  Biso   1.000  O
  O21      1.0000 0.29330  0.24020  0.26609  Biso   1.000  O
  N7       1.0000 0.43620  0.27040  0.08612  Biso   1.000  N
  C103     1.0000 0.23910  0.44570  0.20926  Biso   1.000  C
  C104     1.0000 0.30050  0.30450  0.23957  Biso   1.000  C
  C105     1.0000 0.17210  0.52440  0.20584  Biso   1.000  C
  H74      1.0000 0.12540  0.53410  0.22220  Biso   1.000  H
  C106     1.0000 0.31400  0.50060  0.15624  Biso   1.000  C
  C107     1.0000 0.31460  0.43590  0.18415  Biso   1.000  C
  C108     1.0000 0.23180  0.37710  0.23702  Biso   1.000  C
  C109     1.0000 0.38180  0.35850  0.18776  Biso   1.000  C
  H75      1.0000 0.43110  0.35090  0.17160  Biso   1.000  H
  C110     1.0000 0.37580  0.29450  0.21463  Biso   1.000  C
  H76      1.0000 0.42100  0.24430  0.21660  Biso   1.000  H
  C111     1.0000 0.45430  0.21330  0.11122  Biso   1.000  C
  H77      1.0000 0.50920  0.27100  0.12670  Biso   1.000  H
  C112     1.0000 0.38780  0.49280  0.12855  Biso   1.000  C
  C113     1.0000 0.31660  0.98420  0.09182  Biso   1.000  C
  C114     1.0000 0.29610  0.04280  0.06614  Biso   1.000  C
  H78      1.0000 0.24220  0.98730  0.05030  Biso   1.000  H
  C115     1.0000 0.35660  0.18550  0.06428  Biso   1.000  C
  H79      1.0000 0.34090  0.22340  0.04700  Biso   1.000  H
  C116     1.0000 0.24350  0.57060  0.15362  Biso   1.000  C
  H80      1.0000 0.24060  0.60840  0.13500  Biso   1.000  H
  C117     1.0000 0.39520  0.07310  0.11498  Biso   1.000  C
  H81      1.0000 0.40770  0.03770  0.13300  Biso   1.000  H
  C118     1.0000 0.17510  0.58580  0.17898  Biso   1.000  C
  H82      1.0000 0.13180  0.63800  0.17730  Biso   1.000  H
  C119     1.0000 0.26700  0.83180  0.09520  Biso   1.000  C
  H83      1.0000 0.22250  0.80270  0.11480  Biso   1.000  H
  H84      1.0000 0.34750  0.82080  0.09560  Biso   1.000  H
  H85      1.0000 0.79500  0.14200  0.93327  Biso   1.000  H
  O22      1.0000 0.53890  0.86346  0.77011  Biso   1.000  O
  O23      1.0000 0.47933  0.99102  0.79680  Biso   1.000  O
  O24      1.0000 0.75980  0.05310  0.93276  Biso   1.000  O
  N8       1.0000 0.72960  0.16580  0.75279  Biso   1.000  N
  C120     1.0000 0.55430  0.79340  0.87593  Biso   1.000  C
  C121     1.0000 0.69550  0.99600  0.90624  Biso   1.000  C
  C122     1.0000 0.47560  0.64770  0.87251  Biso   1.000  C
  H86      1.0000 0.46590  0.59130  0.88887  Biso   1.000  H
  C123     1.0000 0.49940  0.81340  0.82291  Biso   1.000  C
  C124     1.0000 0.56410  0.87870  0.85082  Biso   1.000  C
  C125     1.0000 0.62290  0.85470  0.90369  Biso   1.000  C
  C126     1.0000 0.64150  0.02330  0.85443  Biso   1.000  C
  H87      1.0000 0.64910  0.08020  0.83827  Biso   1.000  H
  C127     1.0000 0.70550  0.08130  0.88130  Biso   1.000  C
  H88      1.0000 0.75570  0.17670  0.88327  Biso   1.000  H
  C128     1.0000 0.78670  0.24100  0.77789  Biso   1.000  C
  H89      1.0000 0.72900  0.23820  0.79337  Biso   1.000  H
  C129     1.0000 0.50720  0.89500  0.79522  Biso   1.000  C
  C130     1.0000 0.01580  0.33240  0.75849  Biso   1.000  C
  C131     1.0000 0.95720  0.25330  0.73281  Biso   1.000  C
  H90      1.0000 0.01270  0.25490  0.71697  Biso   1.000  H
  C132     1.0000 0.81450  0.17110  0.73095  Biso   1.000  C
  H91      1.0000 0.77660  0.11750  0.71367  Biso   1.000  H
  C133     1.0000 0.42940  0.67290  0.82029  Biso   1.000  C
  H92      1.0000 0.39160  0.63220  0.80167  Biso   1.000  H
  C134     1.0000 0.92690  0.32210  0.78165  Biso   1.000  C
  H93      1.0000 0.96230  0.37000  0.79967  Biso   1.000  H
  C135     1.0000 0.41420  0.58930  0.84565  Biso   1.000  C
  H94      1.0000 0.36200  0.49380  0.84397  Biso   1.000  H
  C136     1.0000 0.16820  0.43520  0.76187  Biso   1.000  C
  H95      1.0000 0.19730  0.41980  0.78147  Biso   1.000  H
  H96      1.0000 0.17920  0.52670  0.76227  Biso   1.000  H
  H97      1.0000 0.85800  0.65300  0.59993  Biso   1.000  H
  O25      1.0000 0.13654  0.67544  0.43677  Biso   1.000  O
  O26      1.0000 0.00898  0.48831  0.46346  Biso   1.000  O
  O27      1.0000 0.94690  0.70670  0.59942  Biso   1.000  O
  N9       1.0000 0.83420  0.56380  0.41945  Biso   1.000  N
  C137     1.0000 0.20660  0.76090  0.54259  Biso   1.000  C
  C138     1.0000 0.00400  0.69950  0.57290  Biso   1.000  C
  C139     1.0000 0.35230  0.82790  0.53917  Biso   1.000  C
  H98      1.0000 0.40870  0.87460  0.55553  Biso   1.000  H
  C140     1.0000 0.18660  0.68600  0.48957  Biso   1.000  C
  C141     1.0000 0.12130  0.68540  0.51748  Biso   1.000  C
  C142     1.0000 0.14530  0.76820  0.57035  Biso   1.000  C
  C143     1.0000 0.97670  0.61820  0.52109  Biso   1.000  C
  H99      1.0000 0.91980  0.56890  0.50493  Biso   1.000  H
  C144     1.0000 0.91870  0.62420  0.54796  Biso   1.000  C
  H100     1.0000 0.82330  0.57900  0.54993  Biso   1.000  H
  C145     1.0000 0.75900  0.54570  0.44455  Biso   1.000  C
  H101     1.0000 0.76180  0.49080  0.46003  Biso   1.000  H
  C146     1.0000 0.10500  0.61220  0.46188  Biso   1.000  C
  C147     1.0000 0.66760  0.68340  0.42515  Biso   1.000  C
  C148     1.0000 0.74670  0.70390  0.39947  Biso   1.000  C
  H102     1.0000 0.74510  0.75780  0.38363  Biso   1.000  H
  C149     1.0000 0.82890  0.64340  0.39761  Biso   1.000  C
  H103     1.0000 0.88250  0.65910  0.38033  Biso   1.000  H
  C150     1.0000 0.32710  0.75650  0.48695  Biso   1.000  C
  H104     1.0000 0.36780  0.75940  0.46833  Biso   1.000  H
  C151     1.0000 0.67790  0.60480  0.44831  Biso   1.000  C
  H105     1.0000 0.63000  0.59230  0.46633  Biso   1.000  H
  C152     1.0000 0.41070  0.82490  0.51231  Biso   1.000  C
  H106     1.0000 0.50620  0.86820  0.51063  Biso   1.000  H
  C153     1.0000 0.56480  0.73300  0.42853  Biso   1.000  C
  H107     1.0000 0.58020  0.77750  0.44813  Biso   1.000  H
  H108     1.0000 0.47330  0.65250  0.42893  Biso   1.000  H
  H109     1.0000 0.79500  0.65300  0.90007  Biso   1.000  H
  O28      1.0000 0.53890  0.67544  0.06323  Biso   1.000  O
  O29      1.0000 0.47933  0.48831  0.03654  Biso   1.000  O
  O30      1.0000 0.75980  0.70670  0.90058  Biso   1.000  O
  N10      1.0000 0.72960  0.56380  0.08055  Biso   1.000  N
  C154     1.0000 0.55430  0.76090  0.95741  Biso   1.000  C
  C155     1.0000 0.69550  0.69950  0.92710  Biso   1.000  C
  C156     1.0000 0.47560  0.82790  0.96083  Biso   1.000  C
  H110     1.0000 0.46590  0.87460  0.94447  Biso   1.000  H
  C157     1.0000 0.49940  0.68600  0.01043  Biso   1.000  C
  C158     1.0000 0.56410  0.68540  0.98252  Biso   1.000  C
  C159     1.0000 0.62290  0.76820  0.92965  Biso   1.000  C
  C160     1.0000 0.64150  0.61820  0.97891  Biso   1.000  C
  H111     1.0000 0.64910  0.56890  0.99507  Biso   1.000  H
  C161     1.0000 0.70550  0.62420  0.95204  Biso   1.000  C
  H112     1.0000 0.75570  0.57900  0.95007  Biso   1.000  H
  C162     1.0000 0.78670  0.54570  0.05545  Biso   1.000  C
  H113     1.0000 0.72900  0.49080  0.03997  Biso   1.000  H
  C163     1.0000 0.50720  0.61220  0.03812  Biso   1.000  C
  C164     1.0000 0.01580  0.68340  0.07485  Biso   1.000  C
  C165     1.0000 0.95720  0.70390  0.10053  Biso   1.000  C
  H114     1.0000 0.01270  0.75780  0.11637  Biso   1.000  H
  C166     1.0000 0.81450  0.64340  0.10239  Biso   1.000  C
  H115     1.0000 0.77660  0.65910  0.11967  Biso   1.000  H
  C167     1.0000 0.42940  0.75650  0.01305  Biso   1.000  C
  H116     1.0000 0.39160  0.75940  0.03167  Biso   1.000  H
  C168     1.0000 0.92690  0.60480  0.05169  Biso   1.000  C
  H117     1.0000 0.96230  0.59230  0.03367  Biso   1.000  H
  C169     1.0000 0.41420  0.82490  0.98769  Biso   1.000  C
  H118     1.0000 0.36200  0.86820  0.98937  Biso   1.000  H
  C170     1.0000 0.16820  0.73300  0.07147  Biso   1.000  C
  H119     1.0000 0.19730  0.77750  0.05187  Biso   1.000  H
  H120     1.0000 0.17920  0.65250  0.07107  Biso   1.000  H
  H121     1.0000 0.85800  0.20500  0.23340  Biso   1.000  H
  O31      1.0000 0.13654  0.46110  0.39656  Biso   1.000  O
  O32      1.0000 0.00898  0.52067  0.36987  Biso   1.000  O
  O33      1.0000 0.94690  0.24020  0.23391  Biso   1.000  O
  N11      1.0000 0.83420  0.27040  0.41388  Biso   1.000  N
  C171     1.0000 0.20660  0.44570  0.29074  Biso   1.000  C
  C172     1.0000 0.00400  0.30450  0.26043  Biso   1.000  C
  C173     1.0000 0.35230  0.52440  0.29416  Biso   1.000  C
  H122     1.0000 0.40870  0.53410  0.27780  Biso   1.000  H
  C174     1.0000 0.18660  0.50060  0.34376  Biso   1.000  C
  C175     1.0000 0.12130  0.43590  0.31585  Biso   1.000  C
  C176     1.0000 0.14530  0.37710  0.26298  Biso   1.000  C
  C177     1.0000 0.97670  0.35850  0.31224  Biso   1.000  C
  H123     1.0000 0.91980  0.35090  0.32840  Biso   1.000  H
  C178     1.0000 0.91870  0.29450  0.28537  Biso   1.000  C
  H124     1.0000 0.82330  0.24430  0.28340  Biso   1.000  H
  C179     1.0000 0.75900  0.21330  0.38878  Biso   1.000  C
  H125     1.0000 0.76180  0.27100  0.37330  Biso   1.000  H
  C180     1.0000 0.10500  0.49280  0.37145  Biso   1.000  C
  C181     1.0000 0.66760  0.98420  0.40818  Biso   1.000  C
  C182     1.0000 0.74670  0.04280  0.43386  Biso   1.000  C
  H126     1.0000 0.74510  0.98730  0.44970  Biso   1.000  H
  C183     1.0000 0.82890  0.18550  0.43572  Biso   1.000  C
  H127     1.0000 0.88250  0.22340  0.45300  Biso   1.000  H
  C184     1.0000 0.32710  0.57060  0.34638  Biso   1.000  C
  H128     1.0000 0.36780  0.60840  0.36500  Biso   1.000  H
  C185     1.0000 0.67790  0.07310  0.38502  Biso   1.000  C
  H129     1.0000 0.63000  0.03770  0.36700  Biso   1.000  H
  C186     1.0000 0.41070  0.58580  0.32102  Biso   1.000  C
  H130     1.0000 0.50620  0.63800  0.32270  Biso   1.000  H
  C187     1.0000 0.56480  0.83180  0.40480  Biso   1.000  C
  H131     1.0000 0.58020  0.80270  0.38520  Biso   1.000  H
  H132     1.0000 0.47330  0.82080  0.40440  Biso   1.000  H
  H133     1.0000 0.34700  0.14200  0.56673  Biso   1.000  H
  O34      1.0000 0.32456  0.86346  0.72989  Biso   1.000  O
  O35      1.0000 0.51169  0.99102  0.70320  Biso   1.000  O
  O36      1.0000 0.29330  0.05310  0.56724  Biso   1.000  O
  N12      1.0000 0.43620  0.16580  0.74721  Biso   1.000  N
  C188     1.0000 0.23910  0.79340  0.62407  Biso   1.000  C
  C189     1.0000 0.30050  0.99600  0.59376  Biso   1.000  C
  C190     1.0000 0.17210  0.64770  0.62749  Biso   1.000  C
  H134     1.0000 0.12540  0.59130  0.61113  Biso   1.000  H
  C191     1.0000 0.31400  0.81340  0.67709  Biso   1.000  C
  C192     1.0000 0.31460  0.87870  0.64918  Biso   1.000  C
  C193     1.0000 0.23180  0.85470  0.59631  Biso   1.000  C
  C194     1.0000 0.38180  0.02330  0.64557  Biso   1.000  C
  H135     1.0000 0.43110  0.08020  0.66173  Biso   1.000  H
  C195     1.0000 0.37580  0.08130  0.61870  Biso   1.000  C
  H136     1.0000 0.42100  0.17670  0.61673  Biso   1.000  H
  C196     1.0000 0.45430  0.24100  0.72211  Biso   1.000  C
  H137     1.0000 0.50920  0.23820  0.70663  Biso   1.000  H
  C197     1.0000 0.38780  0.89500  0.70478  Biso   1.000  C
  C198     1.0000 0.31660  0.33240  0.74151  Biso   1.000  C
  C199     1.0000 0.29610  0.25330  0.76719  Biso   1.000  C
  H138     1.0000 0.24220  0.25490  0.78303  Biso   1.000  H
  C200     1.0000 0.35660  0.17110  0.76905  Biso   1.000  C
  H139     1.0000 0.34090  0.11750  0.78633  Biso   1.000  H
  C201     1.0000 0.24350  0.67290  0.67971  Biso   1.000  C
  H140     1.0000 0.24060  0.63220  0.69833  Biso   1.000  H
  C202     1.0000 0.39520  0.32210  0.71835  Biso   1.000  C
  H141     1.0000 0.40770  0.37000  0.70033  Biso   1.000  H
  C203     1.0000 0.17510  0.58930  0.65435  Biso   1.000  C
  H142     1.0000 0.13180  0.49380  0.65603  Biso   1.000  H
  C204     1.0000 0.26700  0.43520  0.73813  Biso   1.000  C
  H143     1.0000 0.22250  0.41980  0.71853  Biso   1.000  H
  H144     1.0000 0.34750  0.52670  0.73773  Biso   1.000  H
  Zn4      1.0000 0.51845  0.48155  0.08333  Biso   1.000  Zn
  Zn5      1.0000 0.51845  0.03690  0.75000  Biso   1.000  Zn
  Zn6      1.0000 0.96310  0.48155  0.41667  Biso   1.000  Zn
