data_image0
_cell_length_a       31.281
_cell_length_b       10.5676
_cell_length_c       19.875
_cell_angle_alpha    90
_cell_angle_beta     94.444
_cell_angle_gamma    90

_symmetry_space_group_name_H-M    "P 1"
_symmetry_int_tables_number       1

loop_
  _symmetry_equiv_pos_as_xyz
  'x, y, z'

loop_
  _atom_site_label
  _atom_site_occupancy
  _atom_site_fract_x
  _atom_site_fract_y
  _atom_site_fract_z
  _atom_site_thermal_displace_type
  _atom_site_B_iso_or_equiv
  _atom_site_type_symbol
  Co1      1.0000 0.32813  0.84107  0.25700  Biso   1.000  Co
  O1       1.0000 0.26669  0.85700  0.20796  Biso   1.000  O
  O2       1.0000 0.39024  0.79600  0.30321  Biso   1.000  O
  H1       1.0000 0.40130  0.86000  0.32020  Biso   1.000  H
  O3       1.0000 0.05165  0.96110  0.07344  Biso   1.000  O
  O4       1.0000 0.09579  0.12570  0.09058  Biso   1.000  O
  O5       1.0000 0.25040  0.04620  0.16497  Biso   1.000  O
  C1       1.0000 0.12206  0.92250  0.12262  Biso   1.000  C
  C2       1.0000 0.16317  0.96790  0.13757  Biso   1.000  C
  H2       1.0000 0.16930  0.05230  0.12910  Biso   1.000  H
  N1       1.0000 0.32832  0.65660  0.21517  Biso   1.000  N
  O6       1.0000 0.29424  0.77200  0.34025  Biso   1.000  O
  H3       1.0000 0.28280  0.70430  0.32980  Biso   1.000  H
  N2       1.0000 0.98896  0.18780  0.03346  Biso   1.000  N
  N3       1.0000 0.02060  0.25860  0.06297  Biso   1.000  N
  H4       1.0000 0.04620  0.23150  0.07310  Biso   1.000  H
  C3       1.0000 0.19543  0.88900  0.16515  Biso   1.000  C
  C4       1.0000 0.24083  0.93560  0.18016  Biso   1.000  C
  C5       1.0000 0.14496  0.71370  0.16040  Biso   1.000  C
  C6       1.0000 0.08715  0.01030  0.09315  Biso   1.000  C
  C7       1.0000 0.95540  0.26520  0.02687  Biso   1.000  C
  H5       1.0000 0.92850  0.24160  0.00780  Biso   1.000  H
  C8       1.0000 0.96510  0.38500  0.05161  Biso   1.000  C
  C9       1.0000 0.11292  0.79480  0.13277  Biso   1.000  C
  H6       1.0000 0.08550  0.76380  0.12120  Biso   1.000  H
  C10      1.0000 0.18546  0.76380  0.17768  Biso   1.000  C
  H7       1.0000 0.20650  0.71160  0.19830  Biso   1.000  H
  C11      1.0000 0.00749  0.37720  0.07483  Biso   1.000  C
  H8       1.0000 0.02410  0.44190  0.09500  Biso   1.000  H
  C12      1.0000 0.33992  0.46130  0.17501  Biso   1.000  C
  C13      1.0000 0.35774  0.57140  0.20400  Biso   1.000  C
  H9       1.0000 0.38700  0.58330  0.21430  Biso   1.000  H
  N4       1.0000 0.29123  0.60090  0.19306  Biso   1.000  N
  H10      1.0000 0.26660  0.63650  0.19390  Biso   1.000  H
  C14      1.0000 0.93663  0.49970  0.05220  Biso   1.000  C
  H11      1.0000 0.95360  0.57100  0.06960  Biso   1.000  H
  H12      1.0000 0.92630  0.51940  0.00620  Biso   1.000  H
  C15      1.0000 0.36199  0.34130  0.15800  Biso   1.000  C
  H13      1.0000 0.34420  0.29670  0.12360  Biso   1.000  H
  H14      1.0000 0.36480  0.28800  0.19780  Biso   1.000  H
  C16      1.0000 0.29692  0.48440  0.16960  Biso   1.000  C
  H15      1.0000 0.27550  0.42920  0.15270  Biso   1.000  H
  C17      1.0000 0.40563  0.36090  0.13310  Biso   1.000  C
  C18      1.0000 0.41708  0.42940  0.07840  Biso   1.000  C
  H16      1.0000 0.39760  0.47420  0.04990  Biso   1.000  H
  C19      1.0000 0.44290  0.30880  0.15670  Biso   1.000  C
  H17      1.0000 0.44650  0.25430  0.19350  Biso   1.000  H
  N5       1.0000 0.45881  0.42510  0.07059  Biso   1.000  N
  N6       1.0000 0.47363  0.34720  0.11960  Biso   1.000  N
  H18      1.0000 0.50000  0.32460  0.12620  Biso   1.000  H
  N7       1.0000 0.85746  0.42430  0.17675  Biso   1.000  N
  C20      1.0000 0.89888  0.48430  0.09360  Biso   1.000  C
  N8       1.0000 0.83619  0.50690  0.13462  Biso   1.000  N
  H19      1.0000 0.81050  0.53270  0.13890  Biso   1.000  H
  C21      1.0000 0.85993  0.54350  0.08590  Biso   1.000  C
  H20      1.0000 0.85150  0.60040  0.05170  Biso   1.000  H
  C22      1.0000 0.89545  0.41090  0.15140  Biso   1.000  C
  H21      1.0000 0.91720  0.35880  0.17010  Biso   1.000  H
  O7       1.0000 0.16939  0.51173  0.19252  Biso   1.000  O
  O8       1.0000 0.09985  0.53350  0.16018  Biso   1.000  O
  C23      1.0000 0.13745  0.57750  0.17260  Biso   1.000  C
  Co2      1.0000 0.82813  0.34107  0.25700  Biso   1.000  Co
  O9       1.0000 0.76669  0.35700  0.20796  Biso   1.000  O
  O10      1.0000 0.89024  0.29600  0.30321  Biso   1.000  O
  H22      1.0000 0.90130  0.36000  0.32020  Biso   1.000  H
  O11      1.0000 0.55165  0.46110  0.07344  Biso   1.000  O
  O12      1.0000 0.59579  0.62570  0.09058  Biso   1.000  O
  O13      1.0000 0.75040  0.54620  0.16497  Biso   1.000  O
  C24      1.0000 0.62206  0.42250  0.12262  Biso   1.000  C
  C25      1.0000 0.66317  0.46790  0.13757  Biso   1.000  C
  H23      1.0000 0.66930  0.55230  0.12910  Biso   1.000  H
  N9       1.0000 0.82832  0.15660  0.21517  Biso   1.000  N
  O14      1.0000 0.79424  0.27200  0.34025  Biso   1.000  O
  H24      1.0000 0.78280  0.20430  0.32980  Biso   1.000  H
  N10      1.0000 0.48896  0.68780  0.03346  Biso   1.000  N
  N11      1.0000 0.52060  0.75860  0.06297  Biso   1.000  N
  H25      1.0000 0.54620  0.73150  0.07310  Biso   1.000  H
  C26      1.0000 0.69543  0.38900  0.16515  Biso   1.000  C
  C27      1.0000 0.74083  0.43560  0.18016  Biso   1.000  C
  C28      1.0000 0.64496  0.21370  0.16040  Biso   1.000  C
  C29      1.0000 0.58715  0.51030  0.09315  Biso   1.000  C
  C30      1.0000 0.45540  0.76520  0.02687  Biso   1.000  C
  H26      1.0000 0.42850  0.74160  0.00780  Biso   1.000  H
  C31      1.0000 0.46510  0.88500  0.05161  Biso   1.000  C
  C32      1.0000 0.61292  0.29480  0.13277  Biso   1.000  C
  H27      1.0000 0.58550  0.26380  0.12120  Biso   1.000  H
  C33      1.0000 0.68546  0.26380  0.17768  Biso   1.000  C
  H28      1.0000 0.70650  0.21160  0.19830  Biso   1.000  H
  C34      1.0000 0.50749  0.87720  0.07483  Biso   1.000  C
  H29      1.0000 0.52410  0.94190  0.09500  Biso   1.000  H
  C35      1.0000 0.83992  0.96130  0.17501  Biso   1.000  C
  C36      1.0000 0.85774  0.07140  0.20400  Biso   1.000  C
  H30      1.0000 0.88700  0.08330  0.21430  Biso   1.000  H
  N12      1.0000 0.79123  0.10090  0.19306  Biso   1.000  N
  H31      1.0000 0.76660  0.13650  0.19390  Biso   1.000  H
  C37      1.0000 0.43663  0.99970  0.05220  Biso   1.000  C
  H32      1.0000 0.45360  0.07100  0.06960  Biso   1.000  H
  H33      1.0000 0.42630  0.01940  0.00620  Biso   1.000  H
  C38      1.0000 0.86199  0.84130  0.15800  Biso   1.000  C
  H34      1.0000 0.84420  0.79670  0.12360  Biso   1.000  H
  H35      1.0000 0.86480  0.78800  0.19780  Biso   1.000  H
  C39      1.0000 0.79692  0.98440  0.16960  Biso   1.000  C
  H36      1.0000 0.77550  0.92920  0.15270  Biso   1.000  H
  C40      1.0000 0.90563  0.86090  0.13310  Biso   1.000  C
  C41      1.0000 0.91708  0.92940  0.07840  Biso   1.000  C
  H37      1.0000 0.89760  0.97420  0.04990  Biso   1.000  H
  C42      1.0000 0.94290  0.80880  0.15670  Biso   1.000  C
  H38      1.0000 0.94650  0.75430  0.19350  Biso   1.000  H
  N13      1.0000 0.95881  0.92510  0.07059  Biso   1.000  N
  N14      1.0000 0.97363  0.84720  0.11960  Biso   1.000  N
  H39      1.0000 0.00000  0.82460  0.12620  Biso   1.000  H
  N15      1.0000 0.35746  0.92430  0.17675  Biso   1.000  N
  C43      1.0000 0.39888  0.98430  0.09360  Biso   1.000  C
  N16      1.0000 0.33619  0.00690  0.13462  Biso   1.000  N
  H40      1.0000 0.31050  0.03270  0.13890  Biso   1.000  H
  C44      1.0000 0.35993  0.04350  0.08590  Biso   1.000  C
  H41      1.0000 0.35150  0.10040  0.05170  Biso   1.000  H
  C45      1.0000 0.39545  0.91090  0.15140  Biso   1.000  C
  H42      1.0000 0.41720  0.85880  0.17010  Biso   1.000  H
  O15      1.0000 0.66939  0.01173  0.19252  Biso   1.000  O
  O16      1.0000 0.59985  0.03350  0.16018  Biso   1.000  O
  C46      1.0000 0.63745  0.07750  0.17260  Biso   1.000  C
  Co3      1.0000 0.67187  0.84107  0.24300  Biso   1.000  Co
  O17      1.0000 0.73331  0.85700  0.29204  Biso   1.000  O
  O18      1.0000 0.60976  0.79600  0.19679  Biso   1.000  O
  H43      1.0000 0.59870  0.86000  0.17980  Biso   1.000  H
  O19      1.0000 0.94835  0.96110  0.42656  Biso   1.000  O
  O20      1.0000 0.90421  0.12570  0.40942  Biso   1.000  O
  O21      1.0000 0.74960  0.04620  0.33503  Biso   1.000  O
  C47      1.0000 0.87794  0.92250  0.37738  Biso   1.000  C
  C48      1.0000 0.83683  0.96790  0.36243  Biso   1.000  C
  H44      1.0000 0.83070  0.05230  0.37090  Biso   1.000  H
  N17      1.0000 0.67168  0.65660  0.28483  Biso   1.000  N
  O22      1.0000 0.70576  0.77200  0.15975  Biso   1.000  O
  H45      1.0000 0.71720  0.70430  0.17020  Biso   1.000  H
  N18      1.0000 0.01104  0.18780  0.46654  Biso   1.000  N
  N19      1.0000 0.97940  0.25860  0.43703  Biso   1.000  N
  H46      1.0000 0.95380  0.23150  0.42690  Biso   1.000  H
  C49      1.0000 0.80457  0.88900  0.33485  Biso   1.000  C
  C50      1.0000 0.75917  0.93560  0.31984  Biso   1.000  C
  C51      1.0000 0.85504  0.71370  0.33960  Biso   1.000  C
  C52      1.0000 0.91285  0.01030  0.40685  Biso   1.000  C
  C53      1.0000 0.04460  0.26520  0.47313  Biso   1.000  C
  H47      1.0000 0.07150  0.24160  0.49220  Biso   1.000  H
  C54      1.0000 0.03490  0.38500  0.44839  Biso   1.000  C
  C55      1.0000 0.88708  0.79480  0.36723  Biso   1.000  C
  H48      1.0000 0.91450  0.76380  0.37880  Biso   1.000  H
  C56      1.0000 0.81454  0.76380  0.32232  Biso   1.000  C
  H49      1.0000 0.79350  0.71160  0.30170  Biso   1.000  H
  C57      1.0000 0.99251  0.37720  0.42517  Biso   1.000  C
  H50      1.0000 0.97590  0.44190  0.40500  Biso   1.000  H
  C58      1.0000 0.66008  0.46130  0.32499  Biso   1.000  C
  C59      1.0000 0.64226  0.57140  0.29600  Biso   1.000  C
  H51      1.0000 0.61300  0.58330  0.28570  Biso   1.000  H
  N20      1.0000 0.70877  0.60090  0.30694  Biso   1.000  N
  H52      1.0000 0.73340  0.63650  0.30610  Biso   1.000  H
  C60      1.0000 0.06337  0.49970  0.44780  Biso   1.000  C
  H53      1.0000 0.04640  0.57100  0.43040  Biso   1.000  H
  H54      1.0000 0.07370  0.51940  0.49380  Biso   1.000  H
  C61      1.0000 0.63801  0.34130  0.34200  Biso   1.000  C
  H55      1.0000 0.65580  0.29670  0.37640  Biso   1.000  H
  H56      1.0000 0.63520  0.28800  0.30220  Biso   1.000  H
  C62      1.0000 0.70308  0.48440  0.33040  Biso   1.000  C
  H57      1.0000 0.72450  0.42920  0.34730  Biso   1.000  H
  C63      1.0000 0.59437  0.36090  0.36690  Biso   1.000  C
  C64      1.0000 0.58292  0.42940  0.42160  Biso   1.000  C
  H58      1.0000 0.60240  0.47420  0.45010  Biso   1.000  H
  C65      1.0000 0.55710  0.30880  0.34330  Biso   1.000  C
  H59      1.0000 0.55350  0.25430  0.30650  Biso   1.000  H
  N21      1.0000 0.54119  0.42510  0.42941  Biso   1.000  N
  N22      1.0000 0.52637  0.34720  0.38040  Biso   1.000  N
  H60      1.0000 0.50000  0.32460  0.37380  Biso   1.000  H
  N23      1.0000 0.14254  0.42430  0.32325  Biso   1.000  N
  C66      1.0000 0.10112  0.48430  0.40640  Biso   1.000  C
  N24      1.0000 0.16381  0.50690  0.36538  Biso   1.000  N
  H61      1.0000 0.18950  0.53270  0.36110  Biso   1.000  H
  C67      1.0000 0.14007  0.54350  0.41410  Biso   1.000  C
  H62      1.0000 0.14850  0.60040  0.44830  Biso   1.000  H
  C68      1.0000 0.10455  0.41090  0.34860  Biso   1.000  C
  H63      1.0000 0.08280  0.35880  0.32990  Biso   1.000  H
  O23      1.0000 0.83061  0.51173  0.30748  Biso   1.000  O
  O24      1.0000 0.90015  0.53350  0.33982  Biso   1.000  O
  C69      1.0000 0.86255  0.57750  0.32740  Biso   1.000  C
  Co4      1.0000 0.17187  0.34107  0.24300  Biso   1.000  Co
  O25      1.0000 0.23331  0.35700  0.29204  Biso   1.000  O
  O26      1.0000 0.10976  0.29600  0.19679  Biso   1.000  O
  H64      1.0000 0.09870  0.36000  0.17980  Biso   1.000  H
  O27      1.0000 0.44835  0.46110  0.42656  Biso   1.000  O
  O28      1.0000 0.40421  0.62570  0.40942  Biso   1.000  O
  O29      1.0000 0.24960  0.54620  0.33503  Biso   1.000  O
  C70      1.0000 0.37794  0.42250  0.37738  Biso   1.000  C
  C71      1.0000 0.33683  0.46790  0.36243  Biso   1.000  C
  H65      1.0000 0.33070  0.55230  0.37090  Biso   1.000  H
  N25      1.0000 0.17168  0.15660  0.28483  Biso   1.000  N
  O30      1.0000 0.20576  0.27200  0.15975  Biso   1.000  O
  H66      1.0000 0.21720  0.20430  0.17020  Biso   1.000  H
  N26      1.0000 0.51104  0.68780  0.46654  Biso   1.000  N
  N27      1.0000 0.47940  0.75860  0.43703  Biso   1.000  N
  H67      1.0000 0.45380  0.73150  0.42690  Biso   1.000  H
  C72      1.0000 0.30457  0.38900  0.33485  Biso   1.000  C
  C73      1.0000 0.25917  0.43560  0.31984  Biso   1.000  C
  C74      1.0000 0.35504  0.21370  0.33960  Biso   1.000  C
  C75      1.0000 0.41285  0.51030  0.40685  Biso   1.000  C
  C76      1.0000 0.54460  0.76520  0.47313  Biso   1.000  C
  H68      1.0000 0.57150  0.74160  0.49220  Biso   1.000  H
  C77      1.0000 0.53490  0.88500  0.44839  Biso   1.000  C
  C78      1.0000 0.38708  0.29480  0.36723  Biso   1.000  C
  H69      1.0000 0.41450  0.26380  0.37880  Biso   1.000  H
  C79      1.0000 0.31454  0.26380  0.32232  Biso   1.000  C
  H70      1.0000 0.29350  0.21160  0.30170  Biso   1.000  H
  C80      1.0000 0.49251  0.87720  0.42517  Biso   1.000  C
  H71      1.0000 0.47590  0.94190  0.40500  Biso   1.000  H
  C81      1.0000 0.16008  0.96130  0.32499  Biso   1.000  C
  C82      1.0000 0.14226  0.07140  0.29600  Biso   1.000  C
  H72      1.0000 0.11300  0.08330  0.28570  Biso   1.000  H
  N28      1.0000 0.20877  0.10090  0.30694  Biso   1.000  N
  H73      1.0000 0.23340  0.13650  0.30610  Biso   1.000  H
  C83      1.0000 0.56337  0.99970  0.44780  Biso   1.000  C
  H74      1.0000 0.54640  0.07100  0.43040  Biso   1.000  H
  H75      1.0000 0.57370  0.01940  0.49380  Biso   1.000  H
  C84      1.0000 0.13801  0.84130  0.34200  Biso   1.000  C
  H76      1.0000 0.15580  0.79670  0.37640  Biso   1.000  H
  H77      1.0000 0.13520  0.78800  0.30220  Biso   1.000  H
  C85      1.0000 0.20308  0.98440  0.33040  Biso   1.000  C
  H78      1.0000 0.22450  0.92920  0.34730  Biso   1.000  H
  C86      1.0000 0.09437  0.86090  0.36690  Biso   1.000  C
  C87      1.0000 0.08292  0.92940  0.42160  Biso   1.000  C
  H79      1.0000 0.10240  0.97420  0.45010  Biso   1.000  H
  C88      1.0000 0.05710  0.80880  0.34330  Biso   1.000  C
  H80      1.0000 0.05350  0.75430  0.30650  Biso   1.000  H
  N29      1.0000 0.04119  0.92510  0.42941  Biso   1.000  N
  N30      1.0000 0.02637  0.84720  0.38040  Biso   1.000  N
  H81      1.0000 0.00000  0.82460  0.37380  Biso   1.000  H
  N31      1.0000 0.64254  0.92430  0.32325  Biso   1.000  N
  C89      1.0000 0.60112  0.98430  0.40640  Biso   1.000  C
  N32      1.0000 0.66381  0.00690  0.36538  Biso   1.000  N
  H82      1.0000 0.68950  0.03270  0.36110  Biso   1.000  H
  C90      1.0000 0.64007  0.04350  0.41410  Biso   1.000  C
  H83      1.0000 0.64850  0.10040  0.44830  Biso   1.000  H
  C91      1.0000 0.60455  0.91090  0.34860  Biso   1.000  C
  H84      1.0000 0.58280  0.85880  0.32990  Biso   1.000  H
  O31      1.0000 0.33061  0.01173  0.30748  Biso   1.000  O
  O32      1.0000 0.40015  0.03350  0.33982  Biso   1.000  O
  C92      1.0000 0.36255  0.07750  0.32740  Biso   1.000  C
  Co5      1.0000 0.67187  0.15893  0.74300  Biso   1.000  Co
  O33      1.0000 0.73331  0.14300  0.79204  Biso   1.000  O
  O34      1.0000 0.60976  0.20400  0.69679  Biso   1.000  O
  H85      1.0000 0.59870  0.14000  0.67980  Biso   1.000  H
  O35      1.0000 0.94835  0.03890  0.92656  Biso   1.000  O
  O36      1.0000 0.90421  0.87430  0.90942  Biso   1.000  O
  O37      1.0000 0.74960  0.95380  0.83503  Biso   1.000  O
  C93      1.0000 0.87794  0.07750  0.87738  Biso   1.000  C
  C94      1.0000 0.83683  0.03210  0.86243  Biso   1.000  C
  H86      1.0000 0.83070  0.94770  0.87090  Biso   1.000  H
  N33      1.0000 0.67168  0.34340  0.78483  Biso   1.000  N
  O38      1.0000 0.70576  0.22800  0.65975  Biso   1.000  O
  H87      1.0000 0.71720  0.29570  0.67020  Biso   1.000  H
  N34      1.0000 0.01104  0.81220  0.96654  Biso   1.000  N
  N35      1.0000 0.97940  0.74140  0.93703  Biso   1.000  N
  H88      1.0000 0.95380  0.76850  0.92690  Biso   1.000  H
  C95      1.0000 0.80457  0.11100  0.83485  Biso   1.000  C
  C96      1.0000 0.75917  0.06440  0.81984  Biso   1.000  C
  C97      1.0000 0.85504  0.28630  0.83960  Biso   1.000  C
  C98      1.0000 0.91285  0.98970  0.90685  Biso   1.000  C
  C99      1.0000 0.04460  0.73480  0.97313  Biso   1.000  C
  H89      1.0000 0.07150  0.75840  0.99220  Biso   1.000  H
  C100     1.0000 0.03490  0.61500  0.94839  Biso   1.000  C
  C101     1.0000 0.88708  0.20520  0.86723  Biso   1.000  C
  H90      1.0000 0.91450  0.23620  0.87880  Biso   1.000  H
  C102     1.0000 0.81454  0.23620  0.82232  Biso   1.000  C
  H91      1.0000 0.79350  0.28840  0.80170  Biso   1.000  H
  C103     1.0000 0.99251  0.62280  0.92517  Biso   1.000  C
  H92      1.0000 0.97590  0.55810  0.90500  Biso   1.000  H
  C104     1.0000 0.66008  0.53870  0.82499  Biso   1.000  C
  C105     1.0000 0.64226  0.42860  0.79600  Biso   1.000  C
  H93      1.0000 0.61300  0.41670  0.78570  Biso   1.000  H
  N36      1.0000 0.70877  0.39910  0.80694  Biso   1.000  N
  H94      1.0000 0.73340  0.36350  0.80610  Biso   1.000  H
  C106     1.0000 0.06337  0.50030  0.94780  Biso   1.000  C
  H95      1.0000 0.04640  0.42900  0.93040  Biso   1.000  H
  H96      1.0000 0.07370  0.48060  0.99380  Biso   1.000  H
  C107     1.0000 0.63801  0.65870  0.84200  Biso   1.000  C
  H97      1.0000 0.65580  0.70330  0.87640  Biso   1.000  H
  H98      1.0000 0.63520  0.71200  0.80220  Biso   1.000  H
  C108     1.0000 0.70308  0.51560  0.83040  Biso   1.000  C
  H99      1.0000 0.72450  0.57080  0.84730  Biso   1.000  H
  C109     1.0000 0.59437  0.63910  0.86690  Biso   1.000  C
  C110     1.0000 0.58292  0.57060  0.92160  Biso   1.000  C
  H100     1.0000 0.60240  0.52580  0.95010  Biso   1.000  H
  C111     1.0000 0.55710  0.69120  0.84330  Biso   1.000  C
  H101     1.0000 0.55350  0.74570  0.80650  Biso   1.000  H
  N37      1.0000 0.54119  0.57490  0.92941  Biso   1.000  N
  N38      1.0000 0.52637  0.65280  0.88040  Biso   1.000  N
  H102     1.0000 0.50000  0.67540  0.87380  Biso   1.000  H
  N39      1.0000 0.14254  0.57570  0.82325  Biso   1.000  N
  C112     1.0000 0.10112  0.51570  0.90640  Biso   1.000  C
  N40      1.0000 0.16381  0.49310  0.86538  Biso   1.000  N
  H103     1.0000 0.18950  0.46730  0.86110  Biso   1.000  H
  C113     1.0000 0.14007  0.45650  0.91410  Biso   1.000  C
  H104     1.0000 0.14850  0.39960  0.94830  Biso   1.000  H
  C114     1.0000 0.10455  0.58910  0.84860  Biso   1.000  C
  H105     1.0000 0.08280  0.64120  0.82990  Biso   1.000  H
  O39      1.0000 0.83061  0.48827  0.80748  Biso   1.000  O
  O40      1.0000 0.90015  0.46650  0.83982  Biso   1.000  O
  C115     1.0000 0.86255  0.42250  0.82740  Biso   1.000  C
  Co6      1.0000 0.17187  0.65893  0.74300  Biso   1.000  Co
  O41      1.0000 0.23331  0.64300  0.79204  Biso   1.000  O
  O42      1.0000 0.10976  0.70400  0.69679  Biso   1.000  O
  H106     1.0000 0.09870  0.64000  0.67980  Biso   1.000  H
  O43      1.0000 0.44835  0.53890  0.92656  Biso   1.000  O
  O44      1.0000 0.40421  0.37430  0.90942  Biso   1.000  O
  O45      1.0000 0.24960  0.45380  0.83503  Biso   1.000  O
  C116     1.0000 0.37794  0.57750  0.87738  Biso   1.000  C
  C117     1.0000 0.33683  0.53210  0.86243  Biso   1.000  C
  H107     1.0000 0.33070  0.44770  0.87090  Biso   1.000  H
  N41      1.0000 0.17168  0.84340  0.78483  Biso   1.000  N
  O46      1.0000 0.20576  0.72800  0.65975  Biso   1.000  O
  H108     1.0000 0.21720  0.79570  0.67020  Biso   1.000  H
  N42      1.0000 0.51104  0.31220  0.96654  Biso   1.000  N
  N43      1.0000 0.47940  0.24140  0.93703  Biso   1.000  N
  H109     1.0000 0.45380  0.26850  0.92690  Biso   1.000  H
  C118     1.0000 0.30457  0.61100  0.83485  Biso   1.000  C
  C119     1.0000 0.25917  0.56440  0.81984  Biso   1.000  C
  C120     1.0000 0.35504  0.78630  0.83960  Biso   1.000  C
  C121     1.0000 0.41285  0.48970  0.90685  Biso   1.000  C
  C122     1.0000 0.54460  0.23480  0.97313  Biso   1.000  C
  H110     1.0000 0.57150  0.25840  0.99220  Biso   1.000  H
  C123     1.0000 0.53490  0.11500  0.94839  Biso   1.000  C
  C124     1.0000 0.38708  0.70520  0.86723  Biso   1.000  C
  H111     1.0000 0.41450  0.73620  0.87880  Biso   1.000  H
  C125     1.0000 0.31454  0.73620  0.82232  Biso   1.000  C
  H112     1.0000 0.29350  0.78840  0.80170  Biso   1.000  H
  C126     1.0000 0.49251  0.12280  0.92517  Biso   1.000  C
  H113     1.0000 0.47590  0.05810  0.90500  Biso   1.000  H
  C127     1.0000 0.16008  0.03870  0.82499  Biso   1.000  C
  C128     1.0000 0.14226  0.92860  0.79600  Biso   1.000  C
  H114     1.0000 0.11300  0.91670  0.78570  Biso   1.000  H
  N44      1.0000 0.20877  0.89910  0.80694  Biso   1.000  N
  H115     1.0000 0.23340  0.86350  0.80610  Biso   1.000  H
  C129     1.0000 0.56337  0.00030  0.94780  Biso   1.000  C
  H116     1.0000 0.54640  0.92900  0.93040  Biso   1.000  H
  H117     1.0000 0.57370  0.98060  0.99380  Biso   1.000  H
  C130     1.0000 0.13801  0.15870  0.84200  Biso   1.000  C
  H118     1.0000 0.15580  0.20330  0.87640  Biso   1.000  H
  H119     1.0000 0.13520  0.21200  0.80220  Biso   1.000  H
  C131     1.0000 0.20308  0.01560  0.83040  Biso   1.000  C
  H120     1.0000 0.22450  0.07080  0.84730  Biso   1.000  H
  C132     1.0000 0.09437  0.13910  0.86690  Biso   1.000  C
  C133     1.0000 0.08292  0.07060  0.92160  Biso   1.000  C
  H121     1.0000 0.10240  0.02580  0.95010  Biso   1.000  H
  C134     1.0000 0.05710  0.19120  0.84330  Biso   1.000  C
  H122     1.0000 0.05350  0.24570  0.80650  Biso   1.000  H
  N45      1.0000 0.04119  0.07490  0.92941  Biso   1.000  N
  N46      1.0000 0.02637  0.15280  0.88040  Biso   1.000  N
  H123     1.0000 0.00000  0.17540  0.87380  Biso   1.000  H
  N47      1.0000 0.64254  0.07570  0.82325  Biso   1.000  N
  C135     1.0000 0.60112  0.01570  0.90640  Biso   1.000  C
  N48      1.0000 0.66381  0.99310  0.86538  Biso   1.000  N
  H124     1.0000 0.68950  0.96730  0.86110  Biso   1.000  H
  C136     1.0000 0.64007  0.95650  0.91410  Biso   1.000  C
  H125     1.0000 0.64850  0.89960  0.94830  Biso   1.000  H
  C137     1.0000 0.60455  0.08910  0.84860  Biso   1.000  C
  H126     1.0000 0.58280  0.14120  0.82990  Biso   1.000  H
  O47      1.0000 0.33061  0.98827  0.80748  Biso   1.000  O
  O48      1.0000 0.40015  0.96650  0.83982  Biso   1.000  O
  C138     1.0000 0.36255  0.92250  0.82740  Biso   1.000  C
  Co7      1.0000 0.32813  0.15893  0.75700  Biso   1.000  Co
  O49      1.0000 0.26669  0.14300  0.70796  Biso   1.000  O
  O50      1.0000 0.39024  0.20400  0.80321  Biso   1.000  O
  H127     1.0000 0.40130  0.14000  0.82020  Biso   1.000  H
  O51      1.0000 0.05165  0.03890  0.57344  Biso   1.000  O
  O52      1.0000 0.09579  0.87430  0.59058  Biso   1.000  O
  O53      1.0000 0.25040  0.95380  0.66497  Biso   1.000  O
  C139     1.0000 0.12206  0.07750  0.62262  Biso   1.000  C
  C140     1.0000 0.16317  0.03210  0.63757  Biso   1.000  C
  H128     1.0000 0.16930  0.94770  0.62910  Biso   1.000  H
  N49      1.0000 0.32832  0.34340  0.71517  Biso   1.000  N
  O54      1.0000 0.29424  0.22800  0.84025  Biso   1.000  O
  H129     1.0000 0.28280  0.29570  0.82980  Biso   1.000  H
  N50      1.0000 0.98896  0.81220  0.53346  Biso   1.000  N
  N51      1.0000 0.02060  0.74140  0.56297  Biso   1.000  N
  H130     1.0000 0.04620  0.76850  0.57310  Biso   1.000  H
  C141     1.0000 0.19543  0.11100  0.66515  Biso   1.000  C
  C142     1.0000 0.24083  0.06440  0.68016  Biso   1.000  C
  C143     1.0000 0.14496  0.28630  0.66040  Biso   1.000  C
  C144     1.0000 0.08715  0.98970  0.59315  Biso   1.000  C
  C145     1.0000 0.95540  0.73480  0.52687  Biso   1.000  C
  H131     1.0000 0.92850  0.75840  0.50780  Biso   1.000  H
  C146     1.0000 0.96510  0.61500  0.55161  Biso   1.000  C
  C147     1.0000 0.11292  0.20520  0.63277  Biso   1.000  C
  H132     1.0000 0.08550  0.23620  0.62120  Biso   1.000  H
  C148     1.0000 0.18546  0.23620  0.67768  Biso   1.000  C
  H133     1.0000 0.20650  0.28840  0.69830  Biso   1.000  H
  C149     1.0000 0.00749  0.62280  0.57483  Biso   1.000  C
  H134     1.0000 0.02410  0.55810  0.59500  Biso   1.000  H
  C150     1.0000 0.33992  0.53870  0.67501  Biso   1.000  C
  C151     1.0000 0.35774  0.42860  0.70400  Biso   1.000  C
  H135     1.0000 0.38700  0.41670  0.71430  Biso   1.000  H
  N52      1.0000 0.29123  0.39910  0.69306  Biso   1.000  N
  H136     1.0000 0.26660  0.36350  0.69390  Biso   1.000  H
  C152     1.0000 0.93663  0.50030  0.55220  Biso   1.000  C
  H137     1.0000 0.95360  0.42900  0.56960  Biso   1.000  H
  H138     1.0000 0.92630  0.48060  0.50620  Biso   1.000  H
  C153     1.0000 0.36199  0.65870  0.65800  Biso   1.000  C
  H139     1.0000 0.34420  0.70330  0.62360  Biso   1.000  H
  H140     1.0000 0.36480  0.71200  0.69780  Biso   1.000  H
  C154     1.0000 0.29692  0.51560  0.66960  Biso   1.000  C
  H141     1.0000 0.27550  0.57080  0.65270  Biso   1.000  H
  C155     1.0000 0.40563  0.63910  0.63310  Biso   1.000  C
  C156     1.0000 0.41708  0.57060  0.57840  Biso   1.000  C
  H142     1.0000 0.39760  0.52580  0.54990  Biso   1.000  H
  C157     1.0000 0.44290  0.69120  0.65670  Biso   1.000  C
  H143     1.0000 0.44650  0.74570  0.69350  Biso   1.000  H
  N53      1.0000 0.45881  0.57490  0.57059  Biso   1.000  N
  N54      1.0000 0.47363  0.65280  0.61960  Biso   1.000  N
  H144     1.0000 0.50000  0.67540  0.62620  Biso   1.000  H
  N55      1.0000 0.85746  0.57570  0.67675  Biso   1.000  N
  C158     1.0000 0.89888  0.51570  0.59360  Biso   1.000  C
  N56      1.0000 0.83619  0.49310  0.63462  Biso   1.000  N
  H145     1.0000 0.81050  0.46730  0.63890  Biso   1.000  H
  C159     1.0000 0.85993  0.45650  0.58590  Biso   1.000  C
  H146     1.0000 0.85150  0.39960  0.55170  Biso   1.000  H
  C160     1.0000 0.89545  0.58910  0.65140  Biso   1.000  C
  H147     1.0000 0.91720  0.64120  0.67010  Biso   1.000  H
  O55      1.0000 0.16939  0.48827  0.69252  Biso   1.000  O
  O56      1.0000 0.09985  0.46650  0.66018  Biso   1.000  O
  C161     1.0000 0.13745  0.42250  0.67260  Biso   1.000  C
  Co8      1.0000 0.82813  0.65893  0.75700  Biso   1.000  Co
  O57      1.0000 0.76669  0.64300  0.70796  Biso   1.000  O
  O58      1.0000 0.89024  0.70400  0.80321  Biso   1.000  O
  H148     1.0000 0.90130  0.64000  0.82020  Biso   1.000  H
  O59      1.0000 0.55165  0.53890  0.57344  Biso   1.000  O
  O60      1.0000 0.59579  0.37430  0.59058  Biso   1.000  O
  O61      1.0000 0.75040  0.45380  0.66497  Biso   1.000  O
  C162     1.0000 0.62206  0.57750  0.62262  Biso   1.000  C
  C163     1.0000 0.66317  0.53210  0.63757  Biso   1.000  C
  H149     1.0000 0.66930  0.44770  0.62910  Biso   1.000  H
  N57      1.0000 0.82832  0.84340  0.71517  Biso   1.000  N
  O62      1.0000 0.79424  0.72800  0.84025  Biso   1.000  O
  H150     1.0000 0.78280  0.79570  0.82980  Biso   1.000  H
  N58      1.0000 0.48896  0.31220  0.53346  Biso   1.000  N
  N59      1.0000 0.52060  0.24140  0.56297  Biso   1.000  N
  H151     1.0000 0.54620  0.26850  0.57310  Biso   1.000  H
  C164     1.0000 0.69543  0.61100  0.66515  Biso   1.000  C
  C165     1.0000 0.74083  0.56440  0.68016  Biso   1.000  C
  C166     1.0000 0.64496  0.78630  0.66040  Biso   1.000  C
  C167     1.0000 0.58715  0.48970  0.59315  Biso   1.000  C
  C168     1.0000 0.45540  0.23480  0.52687  Biso   1.000  C
  H152     1.0000 0.42850  0.25840  0.50780  Biso   1.000  H
  C169     1.0000 0.46510  0.11500  0.55161  Biso   1.000  C
  C170     1.0000 0.61292  0.70520  0.63277  Biso   1.000  C
  H153     1.0000 0.58550  0.73620  0.62120  Biso   1.000  H
  C171     1.0000 0.68546  0.73620  0.67768  Biso   1.000  C
  H154     1.0000 0.70650  0.78840  0.69830  Biso   1.000  H
  C172     1.0000 0.50749  0.12280  0.57483  Biso   1.000  C
  H155     1.0000 0.52410  0.05810  0.59500  Biso   1.000  H
  C173     1.0000 0.83992  0.03870  0.67501  Biso   1.000  C
  C174     1.0000 0.85774  0.92860  0.70400  Biso   1.000  C
  H156     1.0000 0.88700  0.91670  0.71430  Biso   1.000  H
  N60      1.0000 0.79123  0.89910  0.69306  Biso   1.000  N
  H157     1.0000 0.76660  0.86350  0.69390  Biso   1.000  H
  C175     1.0000 0.43663  0.00030  0.55220  Biso   1.000  C
  H158     1.0000 0.45360  0.92900  0.56960  Biso   1.000  H
  H159     1.0000 0.42630  0.98060  0.50620  Biso   1.000  H
  C176     1.0000 0.86199  0.15870  0.65800  Biso   1.000  C
  H160     1.0000 0.84420  0.20330  0.62360  Biso   1.000  H
  H161     1.0000 0.86480  0.21200  0.69780  Biso   1.000  H
  C177     1.0000 0.79692  0.01560  0.66960  Biso   1.000  C
  H162     1.0000 0.77550  0.07080  0.65270  Biso   1.000  H
  C178     1.0000 0.90563  0.13910  0.63310  Biso   1.000  C
  C179     1.0000 0.91708  0.07060  0.57840  Biso   1.000  C
  H163     1.0000 0.89760  0.02580  0.54990  Biso   1.000  H
  C180     1.0000 0.94290  0.19120  0.65670  Biso   1.000  C
  H164     1.0000 0.94650  0.24570  0.69350  Biso   1.000  H
  N61      1.0000 0.95881  0.07490  0.57059  Biso   1.000  N
  N62      1.0000 0.97363  0.15280  0.61960  Biso   1.000  N
  H165     1.0000 0.00000  0.17540  0.62620  Biso   1.000  H
  N63      1.0000 0.35746  0.07570  0.67675  Biso   1.000  N
  C181     1.0000 0.39888  0.01570  0.59360  Biso   1.000  C
  N64      1.0000 0.33619  0.99310  0.63462  Biso   1.000  N
  H166     1.0000 0.31050  0.96730  0.63890  Biso   1.000  H
  C182     1.0000 0.35993  0.95650  0.58590  Biso   1.000  C
  H167     1.0000 0.35150  0.89960  0.55170  Biso   1.000  H
  C183     1.0000 0.39545  0.08910  0.65140  Biso   1.000  C
  H168     1.0000 0.41720  0.14120  0.67010  Biso   1.000  H
  O63      1.0000 0.66939  0.98827  0.69252  Biso   1.000  O
  O64      1.0000 0.59985  0.96650  0.66018  Biso   1.000  O
  C184     1.0000 0.63745  0.92250  0.67260  Biso   1.000  C
  Co9      1.0000 0.00000  0.00000  0.00000  Biso   1.000  Co
  Co10     1.0000 0.50000  0.50000  0.00000  Biso   1.000  Co
  Co11     1.0000 0.00000  0.00000  0.50000  Biso   1.000  Co
  Co12     1.0000 0.50000  0.50000  0.50000  Biso   1.000  Co
