data_image0
_cell_length_a       10.2409
_cell_length_b       19.6102
_cell_length_c       37.787
_cell_angle_alpha    89.025
_cell_angle_beta     89.263
_cell_angle_gamma    76.471

_symmetry_space_group_name_H-M    "P 1"
_symmetry_int_tables_number       1

loop_
  _symmetry_equiv_pos_as_xyz
  'x, y, z'

loop_
  _atom_site_label
  _atom_site_occupancy
  _atom_site_fract_x
  _atom_site_fract_y
  _atom_site_fract_z
  _atom_site_thermal_displace_type
  _atom_site_B_iso_or_equiv
  _atom_site_type_symbol
  Cd1      1.0000 0.85826  0.68939  0.60924  Biso   1.000  Cd
  Cd2      1.0000 0.18560  0.69537  0.61133  Biso   1.000  Cd
  Cd3      1.0000 0.35713  0.16910  0.89654  Biso   1.000  Cd
  Cd4      1.0000 0.68971  0.17787  0.89286  Biso   1.000  Cd
  Cd5      1.0000 0.20180  0.76985  0.84117  Biso   1.000  Cd
  Cd6      1.0000 0.51058  0.63324  0.81921  Biso   1.000  Cd
  Cd7      1.0000 0.78302  0.59030  0.88956  Biso   1.000  Cd
  Cd8      1.0000 0.00094  0.71024  0.91118  Biso   1.000  Cd
  Cd9      1.0000 0.55603  0.16154  0.58978  Biso   1.000  Cd
  Cd10     1.0000 0.72134  0.29192  0.62796  Biso   1.000  Cd
  Cd11     1.0000 0.01294  0.23097  0.68483  Biso   1.000  Cd
  Cd12     1.0000 0.32963  0.10111  0.65567  Biso   1.000  Cd
  O1       1.0000 0.86090  0.66870  0.66730  Biso   1.000  O
  O2       1.0000 0.07740  0.67060  0.66150  Biso   1.000  O
  O3       1.0000 0.37490  0.63470  0.76640  Biso   1.000  O
  O4       1.0000 0.27820  0.66060  0.81880  Biso   1.000  O
  O5       1.0000 0.81020  0.62050  0.83280  Biso   1.000  O
  O6       1.0000 0.68250  0.63680  0.78510  Biso   1.000  O
  C1       1.0000 0.99520  0.65770  0.71920  Biso   1.000  C
  C2       1.0000 0.12020  0.65460  0.73400  Biso   1.000  C
  H1       1.0000 0.19440  0.65710  0.71910  Biso   1.000  H
  C3       1.0000 0.13700  0.64800  0.77030  Biso   1.000  C
  C4       1.0000 0.02950  0.64250  0.79250  Biso   1.000  C
  H2       1.0000 0.04070  0.63930  0.81740  Biso   1.000  H
  C5       1.0000 0.90630  0.64190  0.77780  Biso   1.000  C
  C6       1.0000 0.88960  0.65050  0.74150  Biso   1.000  C
  H3       1.0000 0.80430  0.65160  0.73170  Biso   1.000  H
  C7       1.0000 0.97830  0.66660  0.68000  Biso   1.000  C
  C8       1.0000 0.27320  0.64680  0.78550  Biso   1.000  C
  C9       1.0000 0.79150  0.63250  0.80070  Biso   1.000  C
  O7       1.0000 0.88050  0.79750  0.61950  Biso   1.000  O
  O8       1.0000 0.09290  0.80870  0.62030  Biso   1.000  O
  O9       1.0000 0.19330  0.03140  0.64820  Biso   1.000  O
  O10      1.0000 0.03240  0.12190  0.66440  Biso   1.000  O
  O11      1.0000 0.55160  0.10500  0.64270  Biso   1.000  O
  O12      1.0000 0.51530  0.99960  0.64990  Biso   1.000  O
  C10      1.0000 0.92130  0.90690  0.63200  Biso   1.000  C
  C11      1.0000 0.01010  0.95010  0.63710  Biso   1.000  C
  H4       1.0000 0.10350  0.93030  0.63420  Biso   1.000  H
  C12      1.0000 0.97060  0.01900  0.64570  Biso   1.000  C
  C13      1.0000 0.83200  0.04950  0.64810  Biso   1.000  C
  H5       1.0000 0.80080  0.09790  0.65300  Biso   1.000  H
  C14      1.0000 0.74330  0.00870  0.64310  Biso   1.000  C
  C15      1.0000 0.78530  0.93850  0.63570  Biso   1.000  C
  H6       1.0000 0.72070  0.91130  0.63300  Biso   1.000  H
  C16      1.0000 0.96810  0.83050  0.62390  Biso   1.000  C
  C17      1.0000 0.07180  0.06280  0.65350  Biso   1.000  C
  C18      1.0000 0.59330  0.03880  0.64530  Biso   1.000  C
  O13      1.0000 0.43070  0.17920  0.83980  Biso   1.000  O
  O14      1.0000 0.65280  0.17930  0.83620  Biso   1.000  O
  O15      1.0000 0.85050  0.22390  0.72400  Biso   1.000  O
  O16      1.0000 0.74140  0.22080  0.67320  Biso   1.000  O
  O17      1.0000 0.25290  0.20660  0.68050  Biso   1.000  O
  O18      1.0000 0.15420  0.22600  0.73300  Biso   1.000  O
  C19      1.0000 0.52410  0.19480  0.78440  Biso   1.000  C
  C20      1.0000 0.63560  0.20070  0.76360  Biso   1.000  C
  H7       1.0000 0.71970  0.19720  0.77470  Biso   1.000  H
  C21      1.0000 0.62610  0.21160  0.72750  Biso   1.000  C
  C22      1.0000 0.50410  0.21440  0.71070  Biso   1.000  C
  H8       1.0000 0.49730  0.21930  0.68570  Biso   1.000  H
  C23      1.0000 0.39220  0.20980  0.73140  Biso   1.000  C
  C24      1.0000 0.40430  0.19960  0.76720  Biso   1.000  C
  H9       1.0000 0.32740  0.19580  0.78070  Biso   1.000  H
  C25      1.0000 0.53460  0.18270  0.82360  Biso   1.000  C
  C26      1.0000 0.74500  0.22060  0.70640  Biso   1.000  C
  C27      1.0000 0.26000  0.21370  0.71380  Biso   1.000  C
  O19      1.0000 0.43440  0.05590  0.89010  Biso   1.000  O
  O20      1.0000 0.64460  0.06690  0.89330  Biso   1.000  O
  O21      1.0000 0.01880  0.87250  0.85290  Biso   1.000  O
  O22      1.0000 0.98350  0.76520  0.85640  Biso   1.000  O
  O23      1.0000 0.51010  0.74480  0.83490  Biso   1.000  O
  O24      1.0000 0.34380  0.83700  0.84790  Biso   1.000  O
  C28      1.0000 0.60510  0.95830  0.87470  Biso   1.000  C
  C29      1.0000 0.74460  0.93060  0.87070  Biso   1.000  C
  H10      1.0000 0.80600  0.95880  0.87550  Biso   1.000  H
  C30      1.0000 0.79060  0.86360  0.85990  Biso   1.000  C
  C31      1.0000 0.70080  0.82080  0.85080  Biso   1.000  C
  H11      1.0000 0.73380  0.77410  0.84310  Biso   1.000  H
  C32      1.0000 0.56510  0.84960  0.85370  Biso   1.000  C
  C33      1.0000 0.51870  0.91770  0.86610  Biso   1.000  C
  H12      1.0000 0.42470  0.93630  0.86860  Biso   1.000  H
  C34      1.0000 0.55890  0.03360  0.88690  Biso   1.000  C
  C35      1.0000 0.94040  0.83240  0.85560  Biso   1.000  C
  C36      1.0000 0.46650  0.80540  0.84450  Biso   1.000  C
  O25      1.0000 0.76940  0.70190  0.90580  Biso   1.000  O
  O26      1.0000 0.82060  0.77380  0.94430  Biso   1.000  O
  O27      1.0000 0.53650  0.83060  0.04980  Biso   1.000  O
  O28      1.0000 0.31800  0.82290  0.04900  Biso   1.000  O
  O29      1.0000 0.12990  0.77260  0.93740  Biso   1.000  O
  O30      1.0000 0.26360  0.71870  0.89510  Biso   1.000  O
  C37      1.0000 0.59860  0.75980  0.94640  Biso   1.000  C
  C38      1.0000 0.57880  0.78590  0.98140  Biso   1.000  C
  H13      1.0000 0.65300  0.79390  0.99410  Biso   1.000  H
  C39      1.0000 0.45190  0.79980  0.99730  Biso   1.000  C
  C40      1.0000 0.34430  0.78900  0.97750  Biso   1.000  C
  H14      1.0000 0.25680  0.79870  0.98780  Biso   1.000  H
  C41      1.0000 0.36330  0.76380  0.94260  Biso   1.000  C
  C42      1.0000 0.49060  0.74740  0.92790  Biso   1.000  C
  H15      1.0000 0.50440  0.72760  0.90500  Biso   1.000  H
  C43      1.0000 0.73800  0.74360  0.93090  Biso   1.000  C
  C44      1.0000 0.43440  0.81880  0.03490  Biso   1.000  C
  C45      1.0000 0.24280  0.75020  0.92400  Biso   1.000  C
  O31      1.0000 0.98440  0.51710  0.89430  Biso   1.000  O
  O32      1.0000 0.05880  0.61270  0.88250  Biso   1.000  O
  O33      1.0000 0.55420  0.59320  0.87560  Biso   1.000  O
  O34      1.0000 0.68650  0.49090  0.89250  Biso   1.000  O
  O35      1.0000 0.51860  0.27780  0.89500  Biso   1.000  O
  O36      1.0000 0.29600  0.28490  0.89730  Biso   1.000  O
  C46      1.0000 0.21810  0.50440  0.88840  Biso   1.000  C
  C47      1.0000 0.32650  0.53630  0.88660  Biso   1.000  C
  H16      1.0000 0.31180  0.58600  0.88550  Biso   1.000  H
  C48      1.0000 0.45580  0.49430  0.88630  Biso   1.000  C
  C49      1.0000 0.47960  0.42250  0.89010  Biso   1.000  C
  H17      1.0000 0.56870  0.39460  0.89180  Biso   1.000  H
  C50      1.0000 0.36760  0.39080  0.89140  Biso   1.000  C
  C51      1.0000 0.23820  0.42990  0.89170  Biso   1.000  C
  H18      1.0000 0.16440  0.40840  0.89400  Biso   1.000  H
  C52      1.0000 0.07470  0.54920  0.88850  Biso   1.000  C
  C53      1.0000 0.57310  0.52940  0.88470  Biso   1.000  C
  C54      1.0000 0.39610  0.31190  0.89500  Biso   1.000  C
  O37      1.0000 0.23430  0.80850  0.40620  Biso   1.000  O
  O38      1.0000 0.31770  0.80660  0.45980  Biso   1.000  O
  O39      1.0000 0.07470  0.71430  0.55720  Biso   1.000  O
  O40      1.0000 0.85540  0.71800  0.55200  Biso   1.000  O
  O41      1.0000 0.62470  0.81320  0.44360  Biso   1.000  O
  O42      1.0000 0.73110  0.85350  0.39930  Biso   1.000  O
  C55      1.0000 0.09610  0.79110  0.45450  Biso   1.000  C
  C56      1.0000 0.09240  0.76410  0.48830  Biso   1.000  C
  H19      1.0000 0.17250  0.75190  0.50170  Biso   1.000  H
  C57      1.0000 0.97110  0.75440  0.50320  Biso   1.000  C
  C58      1.0000 0.85470  0.77310  0.48260  Biso   1.000  C
  H20      1.0000 0.77280  0.76520  0.49190  Biso   1.000  H
  C59      1.0000 0.85550  0.80230  0.44970  Biso   1.000  C
  C60      1.0000 0.97770  0.81110  0.43480  Biso   1.000  C
  H21      1.0000 0.97970  0.83050  0.41160  Biso   1.000  H
  C61      1.0000 0.22470  0.80260  0.43940  Biso   1.000  C
  C62      1.0000 0.96880  0.72650  0.54040  Biso   1.000  C
  C63      1.0000 0.72860  0.82570  0.42910  Biso   1.000  C
  O43      1.0000 0.96470  0.27720  0.63070  Biso   1.000  O
  O44      1.0000 0.83730  0.37130  0.60640  Biso   1.000  O
  O45      1.0000 0.00200  0.58590  0.59910  Biso   1.000  O
  O46      1.0000 0.22170  0.58040  0.60080  Biso   1.000  O
  O47      1.0000 0.53970  0.34930  0.59950  Biso   1.000  O
  O48      1.0000 0.46820  0.26060  0.62180  Biso   1.000  O
  C64      1.0000 0.06680  0.37100  0.61160  Biso   1.000  C
  C65      1.0000 0.04230  0.44280  0.60680  Biso   1.000  C
  H22      1.0000 0.95240  0.46990  0.60640  Biso   1.000  H
  C66      1.0000 0.14770  0.47580  0.60270  Biso   1.000  C
  C67      1.0000 0.27950  0.43360  0.60270  Biso   1.000  C
  H23      1.0000 0.35270  0.45510  0.59900  Biso   1.000  H
  C68      1.0000 0.30500  0.36310  0.60780  Biso   1.000  C
  C69      1.0000 0.19920  0.33070  0.61290  Biso   1.000  C
  H24      1.0000 0.21650  0.28150  0.61730  Biso   1.000  H
  C70      1.0000 0.95160  0.33820  0.61620  Biso   1.000  C
  C71      1.0000 0.12140  0.55440  0.60000  Biso   1.000  C
  C72      1.0000 0.44700  0.32100  0.60970  Biso   1.000  C
  Cd13     1.0000 0.14174  0.31061  0.39076  Biso   1.000  Cd
  Cd14     1.0000 0.81440  0.30463  0.38867  Biso   1.000  Cd
  Cd15     1.0000 0.64287  0.83090  0.10346  Biso   1.000  Cd
  Cd16     1.0000 0.31029  0.82213  0.10714  Biso   1.000  Cd
  Cd17     1.0000 0.79820  0.23015  0.15883  Biso   1.000  Cd
  Cd18     1.0000 0.48942  0.36676  0.18079  Biso   1.000  Cd
  Cd19     1.0000 0.21698  0.40970  0.11044  Biso   1.000  Cd
  Cd20     1.0000 0.99906  0.28976  0.08882  Biso   1.000  Cd
  Cd21     1.0000 0.44397  0.83846  0.41022  Biso   1.000  Cd
  Cd22     1.0000 0.27866  0.70808  0.37204  Biso   1.000  Cd
  Cd23     1.0000 0.98706  0.76903  0.31517  Biso   1.000  Cd
  Cd24     1.0000 0.67037  0.89889  0.34433  Biso   1.000  Cd
  O49      1.0000 0.13910  0.33130  0.33270  Biso   1.000  O
  O50      1.0000 0.92260  0.32940  0.33850  Biso   1.000  O
  O51      1.0000 0.62510  0.36530  0.23360  Biso   1.000  O
  O52      1.0000 0.72180  0.33940  0.18120  Biso   1.000  O
  O53      1.0000 0.18980  0.37950  0.16720  Biso   1.000  O
  O54      1.0000 0.31750  0.36320  0.21490  Biso   1.000  O
  C73      1.0000 0.00480  0.34230  0.28080  Biso   1.000  C
  C74      1.0000 0.87980  0.34540  0.26600  Biso   1.000  C
  H25      1.0000 0.80560  0.34290  0.28090  Biso   1.000  H
  C75      1.0000 0.86300  0.35200  0.22970  Biso   1.000  C
  C76      1.0000 0.97050  0.35750  0.20750  Biso   1.000  C
  H26      1.0000 0.95930  0.36070  0.18260  Biso   1.000  H
  C77      1.0000 0.09370  0.35810  0.22220  Biso   1.000  C
  C78      1.0000 0.11040  0.34950  0.25850  Biso   1.000  C
  H27      1.0000 0.19570  0.34840  0.26830  Biso   1.000  H
  C79      1.0000 0.02170  0.33340  0.32000  Biso   1.000  C
  C80      1.0000 0.72680  0.35320  0.21450  Biso   1.000  C
  C81      1.0000 0.20850  0.36750  0.19930  Biso   1.000  C
  O55      1.0000 0.11950  0.20250  0.38050  Biso   1.000  O
  O56      1.0000 0.90710  0.19130  0.37970  Biso   1.000  O
  O57      1.0000 0.80670  0.96860  0.35180  Biso   1.000  O
  O58      1.0000 0.96760  0.87810  0.33560  Biso   1.000  O
  O59      1.0000 0.44840  0.89500  0.35730  Biso   1.000  O
  O60      1.0000 0.48470  0.00040  0.35010  Biso   1.000  O
  C82      1.0000 0.07870  0.09310  0.36800  Biso   1.000  C
  C83      1.0000 0.98990  0.04990  0.36290  Biso   1.000  C
  H28      1.0000 0.89650  0.06970  0.36580  Biso   1.000  H
  C84      1.0000 0.02940  0.98100  0.35430  Biso   1.000  C
  C85      1.0000 0.16800  0.95050  0.35190  Biso   1.000  C
  H29      1.0000 0.19920  0.90210  0.34700  Biso   1.000  H
  C86      1.0000 0.25670  0.99130  0.35690  Biso   1.000  C
  C87      1.0000 0.21470  0.06150  0.36430  Biso   1.000  C
  H30      1.0000 0.27930  0.08870  0.36700  Biso   1.000  H
  C88      1.0000 0.03190  0.16950  0.37610  Biso   1.000  C
  C89      1.0000 0.92820  0.93720  0.34650  Biso   1.000  C
  C90      1.0000 0.40670  0.96120  0.35470  Biso   1.000  C
  O61      1.0000 0.56930  0.82080  0.16020  Biso   1.000  O
  O62      1.0000 0.34720  0.82070  0.16380  Biso   1.000  O
  O63      1.0000 0.14950  0.77610  0.27600  Biso   1.000  O
  O64      1.0000 0.25860  0.77920  0.32680  Biso   1.000  O
  O65      1.0000 0.74710  0.79340  0.31950  Biso   1.000  O
  O66      1.0000 0.84580  0.77400  0.26700  Biso   1.000  O
  C91      1.0000 0.47590  0.80520  0.21560  Biso   1.000  C
  C92      1.0000 0.36440  0.79930  0.23640  Biso   1.000  C
  H31      1.0000 0.28030  0.80280  0.22530  Biso   1.000  H
  C93      1.0000 0.37390  0.78840  0.27250  Biso   1.000  C
  C94      1.0000 0.49590  0.78560  0.28930  Biso   1.000  C
  H32      1.0000 0.50270  0.78070  0.31430  Biso   1.000  H
  C95      1.0000 0.60780  0.79020  0.26860  Biso   1.000  C
  C96      1.0000 0.59570  0.80040  0.23280  Biso   1.000  C
  H33      1.0000 0.67260  0.80420  0.21930  Biso   1.000  H
  C97      1.0000 0.46540  0.81730  0.17640  Biso   1.000  C
  C98      1.0000 0.25500  0.77940  0.29360  Biso   1.000  C
  C99      1.0000 0.74000  0.78630  0.28620  Biso   1.000  C
  O67      1.0000 0.56560  0.94410  0.10990  Biso   1.000  O
  O68      1.0000 0.35540  0.93310  0.10670  Biso   1.000  O
  O69      1.0000 0.98120  0.12750  0.14710  Biso   1.000  O
  O70      1.0000 0.01650  0.23480  0.14360  Biso   1.000  O
  O71      1.0000 0.48990  0.25520  0.16510  Biso   1.000  O
  O72      1.0000 0.65620  0.16300  0.15210  Biso   1.000  O
  C100     1.0000 0.39490  0.04170  0.12530  Biso   1.000  C
  C101     1.0000 0.25540  0.06940  0.12930  Biso   1.000  C
  H34      1.0000 0.19400  0.04120  0.12450  Biso   1.000  H
  C102     1.0000 0.20940  0.13640  0.14010  Biso   1.000  C
  C103     1.0000 0.29920  0.17920  0.14920  Biso   1.000  C
  H35      1.0000 0.26620  0.22590  0.15690  Biso   1.000  H
  C104     1.0000 0.43490  0.15040  0.14630  Biso   1.000  C
  C105     1.0000 0.48130  0.08230  0.13390  Biso   1.000  C
  H36      1.0000 0.57530  0.06370  0.13140  Biso   1.000  H
  C106     1.0000 0.44110  0.96640  0.11310  Biso   1.000  C
  C107     1.0000 0.05960  0.16760  0.14440  Biso   1.000  C
  C108     1.0000 0.53350  0.19460  0.15550  Biso   1.000  C
  O73      1.0000 0.23060  0.29810  0.09420  Biso   1.000  O
  O74      1.0000 0.17940  0.22620  0.05570  Biso   1.000  O
  O75      1.0000 0.46350  0.16940  0.95020  Biso   1.000  O
  O76      1.0000 0.68200  0.17710  0.95100  Biso   1.000  O
  O77      1.0000 0.87010  0.22740  0.06260  Biso   1.000  O
  O78      1.0000 0.73640  0.28130  0.10490  Biso   1.000  O
  C109     1.0000 0.40140  0.24020  0.05360  Biso   1.000  C
  C110     1.0000 0.42120  0.21410  0.01860  Biso   1.000  C
  H37      1.0000 0.34700  0.20610  0.00590  Biso   1.000  H
  C111     1.0000 0.54810  0.20020  0.00270  Biso   1.000  C
  C112     1.0000 0.65570  0.21100  0.02250  Biso   1.000  C
  H38      1.0000 0.74320  0.20130  0.01220  Biso   1.000  H
  C113     1.0000 0.63670  0.23620  0.05740  Biso   1.000  C
  C114     1.0000 0.50940  0.25260  0.07210  Biso   1.000  C
  H39      1.0000 0.49560  0.27240  0.09500  Biso   1.000  H
  C115     1.0000 0.26200  0.25640  0.06910  Biso   1.000  C
  C116     1.0000 0.56560  0.18120  0.96510  Biso   1.000  C
  C117     1.0000 0.75720  0.24980  0.07600  Biso   1.000  C
  O79      1.0000 0.01560  0.48290  0.10570  Biso   1.000  O
  O80      1.0000 0.94120  0.38730  0.11750  Biso   1.000  O
  O81      1.0000 0.44580  0.40680  0.12440  Biso   1.000  O
  O82      1.0000 0.31350  0.50910  0.10750  Biso   1.000  O
  O83      1.0000 0.48140  0.72220  0.10500  Biso   1.000  O
  O84      1.0000 0.70400  0.71510  0.10270  Biso   1.000  O
  C118     1.0000 0.78190  0.49560  0.11160  Biso   1.000  C
  C119     1.0000 0.67350  0.46370  0.11340  Biso   1.000  C
  H40      1.0000 0.68820  0.41400  0.11450  Biso   1.000  H
  C120     1.0000 0.54420  0.50570  0.11370  Biso   1.000  C
  C121     1.0000 0.52040  0.57750  0.10990  Biso   1.000  C
  H41      1.0000 0.43130  0.60540  0.10820  Biso   1.000  H
  C122     1.0000 0.63240  0.60920  0.10860  Biso   1.000  C
  C123     1.0000 0.76180  0.57010  0.10830  Biso   1.000  C
  H42      1.0000 0.83560  0.59160  0.10600  Biso   1.000  H
  C124     1.0000 0.92530  0.45080  0.11150  Biso   1.000  C
  C125     1.0000 0.42690  0.47060  0.11530  Biso   1.000  C
  C126     1.0000 0.60390  0.68810  0.10500  Biso   1.000  C
  O85      1.0000 0.76570  0.19150  0.59380  Biso   1.000  O
  O86      1.0000 0.68230  0.19340  0.54020  Biso   1.000  O
  O87      1.0000 0.92530  0.28570  0.44280  Biso   1.000  O
  O88      1.0000 0.14460  0.28200  0.44800  Biso   1.000  O
  O89      1.0000 0.37530  0.18680  0.55640  Biso   1.000  O
  O90      1.0000 0.26890  0.14650  0.60070  Biso   1.000  O
  C127     1.0000 0.90390  0.20890  0.54550  Biso   1.000  C
  C128     1.0000 0.90760  0.23590  0.51170  Biso   1.000  C
  H43      1.0000 0.82750  0.24810  0.49830  Biso   1.000  H
  C129     1.0000 0.02890  0.24560  0.49680  Biso   1.000  C
  C130     1.0000 0.14530  0.22690  0.51740  Biso   1.000  C
  H44      1.0000 0.22720  0.23480  0.50810  Biso   1.000  H
  C131     1.0000 0.14450  0.19770  0.55030  Biso   1.000  C
  C132     1.0000 0.02230  0.18890  0.56520  Biso   1.000  C
  H45      1.0000 0.02030  0.16950  0.58840  Biso   1.000  H
  C133     1.0000 0.77530  0.19740  0.56060  Biso   1.000  C
  C134     1.0000 0.03120  0.27350  0.45960  Biso   1.000  C
  C135     1.0000 0.27140  0.17430  0.57090  Biso   1.000  C
  O91      1.0000 0.03530  0.72280  0.36930  Biso   1.000  O
  O92      1.0000 0.16270  0.62870  0.39360  Biso   1.000  O
  O93      1.0000 0.99800  0.41410  0.40090  Biso   1.000  O
  O94      1.0000 0.77830  0.41960  0.39920  Biso   1.000  O
  O95      1.0000 0.46030  0.65070  0.40050  Biso   1.000  O
  O96      1.0000 0.53180  0.73940  0.37820  Biso   1.000  O
  C136     1.0000 0.93320  0.62900  0.38840  Biso   1.000  C
  C137     1.0000 0.95770  0.55720  0.39320  Biso   1.000  C
  H46      1.0000 0.04760  0.53010  0.39360  Biso   1.000  H
  C138     1.0000 0.85230  0.52420  0.39730  Biso   1.000  C
  C139     1.0000 0.72050  0.56640  0.39730  Biso   1.000  C
  H47      1.0000 0.64730  0.54490  0.40100  Biso   1.000  H
  C140     1.0000 0.69500  0.63690  0.39220  Biso   1.000  C
  C141     1.0000 0.80080  0.66930  0.38710  Biso   1.000  C
  H48      1.0000 0.78350  0.71850  0.38270  Biso   1.000  H
  C142     1.0000 0.04840  0.66180  0.38380  Biso   1.000  C
  C143     1.0000 0.87860  0.44560  0.40000  Biso   1.000  C
  C144     1.0000 0.55300  0.67900  0.39030  Biso   1.000  C
