data_ULOGIL_clean
_audit_creation_date              2014-07-02
_audit_creation_method            'Materials Studio'
_symmetry_space_group_name_H-M    'P1'
_symmetry_Int_Tables_number       1
_symmetry_cell_setting            triclinic
loop_
_symmetry_equiv_pos_as_xyz
  x,y,z
_cell_length_a                    7.6819
_cell_length_b                    8.8715
_cell_length_c                    10.3205
_cell_angle_alpha                 105.8520
_cell_angle_beta                  93.0550
_cell_angle_gamma                 105.7050
loop_
_atom_site_label
_atom_site_type_symbol
_atom_site_fract_x
_atom_site_fract_y
_atom_site_fract_z
_atom_site_U_iso_or_equiv
_atom_site_adp_type
_atom_site_occupancy
Cd1    Cd    0.84092   0.61598   0.66792   0.01267  Uiso   1.00
Cd2    Cd    0.15908   0.38402   0.33208   0.01267  Uiso   1.00
Cd3    Cd    0.50000   0.00000   0.50000   0.01267  Uiso   1.00
H1     H     0.12520   0.42470   0.86450   0.01267  Uiso   1.00
H2     H     0.53050   0.77690   0.13880   0.01267  Uiso   1.00
H3     H     0.63490   0.89010   0.96720   0.01267  Uiso   1.00
H4     H     0.87480   0.57530   0.13550   0.01267  Uiso   1.00
H5     H     0.46950   0.22310   0.86120   0.01267  Uiso   1.00
H6     H     0.36510   0.10990   0.03280   0.01267  Uiso   1.00
C1     C     0.44420   0.72230   0.81240   0.01267  Uiso   1.00
C2     C     0.29060   0.58560   0.78270   0.01267  Uiso   1.00
C3     C     0.22990   0.51790   0.88500   0.01267  Uiso   1.00
C4     C     0.32170   0.58600   0.01700   0.01267  Uiso   1.00
C5     C     0.47090   0.72700   0.04790   0.01267  Uiso   1.00
C6     C     0.53260   0.79460   0.94600   0.01267  Uiso   1.00
C7     C     0.51540   0.80000   0.70490   0.01267  Uiso   1.00
C8     C     0.19410   0.50210   0.64020   0.01267  Uiso   1.00
C9     C     0.26220   0.50530   0.12370   0.01267  Uiso   1.00
C10    C     0.55580   0.27770   0.18760   0.01267  Uiso   1.00
C11    C     0.70940   0.41440   0.21730   0.01267  Uiso   1.00
C12    C     0.77010   0.48210   0.11500   0.01267  Uiso   1.00
C13    C     0.67830   0.41400   0.98300   0.01267  Uiso   1.00
C14    C     0.52910   0.27300   0.95210   0.01267  Uiso   1.00
C15    C     0.46740   0.20540   0.05400   0.01267  Uiso   1.00
C16    C     0.48460   0.20000   0.29510   0.01267  Uiso   1.00
C17    C     0.80590   0.49790   0.35980   0.01267  Uiso   1.00
C18    C     0.73780   0.49470   0.87630   0.01267  Uiso   1.00
O1     O     0.66720   0.79410   0.67056   0.01267  Uiso   1.00
O2     O     0.41680   0.87260   0.65947   0.01267  Uiso   1.00
O3     O     0.29260   0.49620   0.54644   0.01267  Uiso   1.00
O4     O     0.02310   0.44000   0.62302   0.01267  Uiso   1.00
O5     O     0.13070   0.37620   0.09533   0.01267  Uiso   1.00
O6     O     0.34620   0.56950   0.24416   0.01267  Uiso   1.00
O7     O     0.33280   0.20590   0.32944   0.01267  Uiso   1.00
O8     O     0.58320   0.12740   0.34053   0.01267  Uiso   1.00
O9     O     0.70740   0.50380   0.45356   0.01267  Uiso   1.00
O10    O     0.97690   0.56000   0.37698   0.01267  Uiso   1.00
O11    O     0.86930   0.62380   0.90467   0.01267  Uiso   1.00
O12    O     0.65380   0.43050   0.75584   0.01267  Uiso   1.00
