data_image0
_cell_length_a       5.9953
_cell_length_b       11.9355
_cell_length_c       23.368
_cell_angle_alpha    90
_cell_angle_beta     97.076
_cell_angle_gamma    90

_symmetry_space_group_name_H-M    "P 1"
_symmetry_int_tables_number       1

loop_
  _symmetry_equiv_pos_as_xyz
  'x, y, z'

loop_
  _atom_site_label
  _atom_site_occupancy
  _atom_site_fract_x
  _atom_site_fract_y
  _atom_site_fract_z
  _atom_site_thermal_displace_type
  _atom_site_B_iso_or_equiv
  _atom_site_type_symbol
  Gd1      1.0000 0.61423  0.14572  0.04399  Biso   1.000  Gd
  O1       1.0000 0.50800  0.83490  0.15480  Biso   1.000  O
  O2       1.0000 0.62100  0.93270  0.03550  Biso   1.000  O
  O3       1.0000 0.84500  0.00700  0.10680  Biso   1.000  O
  O4       1.0000 0.29500  0.72020  0.02930  Biso   1.000  O
  O5       1.0000 0.12300  0.88310  0.02800  Biso   1.000  O
  O6       1.0000 0.53900  0.74430  0.41190  Biso   1.000  O
  O7       1.0000 0.82700  0.73280  0.36140  Biso   1.000  O
  C1       1.0000 0.68400  0.76440  0.14390  Biso   1.000  C
  C2       1.0000 0.82400  0.80970  0.10520  Biso   1.000  C
  C3       1.0000 0.99900  0.74160  0.09080  Biso   1.000  C
  C4       1.0000 0.04400  0.63900  0.11520  Biso   1.000  C
  H1       1.0000 0.17260  0.59790  0.10800  Biso   1.000  H
  C5       1.0000 0.89600  0.59690  0.15090  Biso   1.000  C
  H2       1.0000 0.92060  0.52400  0.16680  Biso   1.000  H
  C6       1.0000 0.71600  0.65800  0.16390  Biso   1.000  C
  H3       1.0000 0.61220  0.62550  0.18690  Biso   1.000  H
  C7       1.0000 0.76200  0.92160  0.08050  Biso   1.000  C
  C8       1.0000 0.15200  0.78450  0.04820  Biso   1.000  C
  C9       1.0000 0.44200  0.83720  0.20950  Biso   1.000  C
  C10      1.0000 0.57400  0.79630  0.25980  Biso   1.000  C
  H4       1.0000 0.71880  0.76470  0.25830  Biso   1.000  H
  C11      1.0000 0.48100  0.80480  0.31150  Biso   1.000  C
  C12      1.0000 0.27200  0.85000  0.31420  Biso   1.000  C
  H5       1.0000 0.20850  0.85150  0.34940  Biso   1.000  H
  C13      1.0000 0.15500  0.89360  0.26310  Biso   1.000  C
  H6       1.0000 0.01390  0.92890  0.26500  Biso   1.000  H
  C14      1.0000 0.23500  0.88760  0.21200  Biso   1.000  C
  H7       1.0000 0.15100  0.91710  0.17820  Biso   1.000  H
  C15      1.0000 0.61500  0.75910  0.36240  Biso   1.000  C
  Gd2      1.0000 0.88577  0.64572  0.45601  Biso   1.000  Gd
  O8       1.0000 0.99200  0.33490  0.34520  Biso   1.000  O
  O9       1.0000 0.87900  0.43270  0.46450  Biso   1.000  O
  O10      1.0000 0.65500  0.50700  0.39320  Biso   1.000  O
  O11      1.0000 0.20500  0.22020  0.47070  Biso   1.000  O
  O12      1.0000 0.37700  0.38310  0.47200  Biso   1.000  O
  O13      1.0000 0.96100  0.24430  0.08810  Biso   1.000  O
  O14      1.0000 0.67300  0.23280  0.13860  Biso   1.000  O
  C16      1.0000 0.81600  0.26440  0.35610  Biso   1.000  C
  C17      1.0000 0.67600  0.30970  0.39480  Biso   1.000  C
  C18      1.0000 0.50100  0.24160  0.40920  Biso   1.000  C
  C19      1.0000 0.45600  0.13900  0.38480  Biso   1.000  C
  H8       1.0000 0.32740  0.09790  0.39200  Biso   1.000  H
  C20      1.0000 0.60400  0.09690  0.34910  Biso   1.000  C
  H9       1.0000 0.57940  0.02400  0.33320  Biso   1.000  H
  C21      1.0000 0.78400  0.15800  0.33610  Biso   1.000  C
  H10      1.0000 0.88780  0.12550  0.31310  Biso   1.000  H
  C22      1.0000 0.73800  0.42160  0.41950  Biso   1.000  C
  C23      1.0000 0.34800  0.28450  0.45180  Biso   1.000  C
  C24      1.0000 0.05800  0.33720  0.29050  Biso   1.000  C
  C25      1.0000 0.92600  0.29630  0.24020  Biso   1.000  C
  H11      1.0000 0.78120  0.26470  0.24170  Biso   1.000  H
  C26      1.0000 0.01900  0.30480  0.18850  Biso   1.000  C
  C27      1.0000 0.22800  0.35000  0.18580  Biso   1.000  C
  H12      1.0000 0.29150  0.35150  0.15060  Biso   1.000  H
  C28      1.0000 0.34500  0.39360  0.23690  Biso   1.000  C
  H13      1.0000 0.48610  0.42890  0.23500  Biso   1.000  H
  C29      1.0000 0.26500  0.38760  0.28800  Biso   1.000  C
  H14      1.0000 0.34900  0.41710  0.32180  Biso   1.000  H
  C30      1.0000 0.88500  0.25910  0.13760  Biso   1.000  C
  Gd3      1.0000 0.38577  0.85428  0.95601  Biso   1.000  Gd
  O15      1.0000 0.49200  0.16510  0.84520  Biso   1.000  O
  O16      1.0000 0.37900  0.06730  0.96450  Biso   1.000  O
  O17      1.0000 0.15500  0.99300  0.89320  Biso   1.000  O
  O18      1.0000 0.70500  0.27980  0.97070  Biso   1.000  O
  O19      1.0000 0.87700  0.11690  0.97200  Biso   1.000  O
  O20      1.0000 0.46100  0.25570  0.58810  Biso   1.000  O
  O21      1.0000 0.17300  0.26720  0.63860  Biso   1.000  O
  C31      1.0000 0.31600  0.23560  0.85610  Biso   1.000  C
  C32      1.0000 0.17600  0.19030  0.89480  Biso   1.000  C
  C33      1.0000 0.00100  0.25840  0.90920  Biso   1.000  C
  C34      1.0000 0.95600  0.36100  0.88480  Biso   1.000  C
  H15      1.0000 0.82740  0.40210  0.89200  Biso   1.000  H
  C35      1.0000 0.10400  0.40310  0.84910  Biso   1.000  C
  H16      1.0000 0.07940  0.47600  0.83320  Biso   1.000  H
  C36      1.0000 0.28400  0.34200  0.83610  Biso   1.000  C
  H17      1.0000 0.38780  0.37450  0.81310  Biso   1.000  H
  C37      1.0000 0.23800  0.07840  0.91950  Biso   1.000  C
  C38      1.0000 0.84800  0.21550  0.95180  Biso   1.000  C
  C39      1.0000 0.55800  0.16280  0.79050  Biso   1.000  C
  C40      1.0000 0.42600  0.20370  0.74020  Biso   1.000  C
  H18      1.0000 0.28120  0.23530  0.74170  Biso   1.000  H
  C41      1.0000 0.51900  0.19520  0.68850  Biso   1.000  C
  C42      1.0000 0.72800  0.15000  0.68580  Biso   1.000  C
  H19      1.0000 0.79150  0.14850  0.65060  Biso   1.000  H
  C43      1.0000 0.84500  0.10640  0.73690  Biso   1.000  C
  H20      1.0000 0.98610  0.07110  0.73500  Biso   1.000  H
  C44      1.0000 0.76500  0.11240  0.78800  Biso   1.000  C
  H21      1.0000 0.84900  0.08290  0.82180  Biso   1.000  H
  C45      1.0000 0.38500  0.24090  0.63760  Biso   1.000  C
  Gd4      1.0000 0.11423  0.35428  0.54399  Biso   1.000  Gd
  O22      1.0000 0.00800  0.66510  0.65480  Biso   1.000  O
  O23      1.0000 0.12100  0.56730  0.53550  Biso   1.000  O
  O24      1.0000 0.34500  0.49300  0.60680  Biso   1.000  O
  O25      1.0000 0.79500  0.77980  0.52930  Biso   1.000  O
  O26      1.0000 0.62300  0.61690  0.52800  Biso   1.000  O
  O27      1.0000 0.03900  0.75570  0.91190  Biso   1.000  O
  O28      1.0000 0.32700  0.76720  0.86140  Biso   1.000  O
  C46      1.0000 0.18400  0.73560  0.64390  Biso   1.000  C
  C47      1.0000 0.32400  0.69030  0.60520  Biso   1.000  C
  C48      1.0000 0.49900  0.75840  0.59080  Biso   1.000  C
  C49      1.0000 0.54400  0.86100  0.61520  Biso   1.000  C
  H22      1.0000 0.67260  0.90210  0.60800  Biso   1.000  H
  C50      1.0000 0.39600  0.90310  0.65090  Biso   1.000  C
  H23      1.0000 0.42060  0.97600  0.66680  Biso   1.000  H
  C51      1.0000 0.21600  0.84200  0.66390  Biso   1.000  C
  H24      1.0000 0.11220  0.87450  0.68690  Biso   1.000  H
  C52      1.0000 0.26200  0.57840  0.58050  Biso   1.000  C
  C53      1.0000 0.65200  0.71550  0.54820  Biso   1.000  C
  C54      1.0000 0.94200  0.66280  0.70950  Biso   1.000  C
  C55      1.0000 0.07400  0.70370  0.75980  Biso   1.000  C
  H25      1.0000 0.21880  0.73530  0.75830  Biso   1.000  H
  C56      1.0000 0.98100  0.69520  0.81150  Biso   1.000  C
  C57      1.0000 0.77200  0.65000  0.81420  Biso   1.000  C
  H26      1.0000 0.70850  0.64850  0.84940  Biso   1.000  H
  C58      1.0000 0.65500  0.60640  0.76310  Biso   1.000  C
  H27      1.0000 0.51390  0.57110  0.76500  Biso   1.000  H
  C59      1.0000 0.73500  0.61240  0.71200  Biso   1.000  C
  H28      1.0000 0.65100  0.58290  0.67820  Biso   1.000  H
  C60      1.0000 0.11500  0.74090  0.86240  Biso   1.000  C
