data_ULUVUT_clean
_audit_creation_date              2014-07-02
_audit_creation_method            'Materials Studio'
_symmetry_space_group_name_H-M    'P1'
_symmetry_Int_Tables_number       1
_symmetry_cell_setting            triclinic
loop_
_symmetry_equiv_pos_as_xyz
  x,y,z
_cell_length_a                    8.7796
_cell_length_b                    10.0297
_cell_length_c                    10.1561
_cell_angle_alpha                 119.5870
_cell_angle_beta                  115.6070
_cell_angle_gamma                 90.0045
loop_
_atom_site_label
_atom_site_type_symbol
_atom_site_fract_x
_atom_site_fract_y
_atom_site_fract_z
_atom_site_U_iso_or_equiv
_atom_site_adp_type
_atom_site_occupancy
Zn1    Zn    0.70419   0.88772   0.72458   0.01267  Uiso   1.00
Zn2    Zn    0.47961   0.16314   0.27542   0.01267  Uiso   1.00
H1     H     0.60300   0.60660   0.75400   0.01267  Uiso   1.00
H2     H     0.53450   0.42790   0.65920   0.01267  Uiso   1.00
H3     H     0.12460   0.30590   0.12200   0.01267  Uiso   1.00
H4     H     0.98750   0.21940   0.94380   0.01267  Uiso   1.00
H5     H     0.34900   0.85260   0.24600   0.01267  Uiso   1.00
H6     H     0.37530   0.76870   0.34080   0.01267  Uiso   1.00
H7     H     0.50260   0.18390   0.87800   0.01267  Uiso   1.00
H8     H     0.54370   0.27560   0.05620   0.01267  Uiso   1.00
C1     C     0.57360   0.52490   0.54400   0.01267  Uiso   1.00
C2     C     0.09220   0.07550   0.99620   0.01267  Uiso   1.00
C3     C     0.52960   0.98090   0.45600   0.01267  Uiso   1.00
C4     C     0.59600   0.07930   0.00380   0.01267  Uiso   1.00
N1     N     0.61120   0.65700   0.54720   0.01267  Uiso   1.00
N2     N     0.59070   0.60440   0.38720   0.01267  Uiso   1.00
N3     N     0.57010   0.52210   0.67260   0.01267  Uiso   1.00
N4     N     0.53250   0.39690   0.38940   0.01267  Uiso   1.00
N5     N     0.54380   0.45340   0.29440   0.01267  Uiso   1.00
N6     N     0.02920   0.82440   0.89360   0.01267  Uiso   1.00
N7     N     0.18280   0.88800   0.02560   0.01267  Uiso   1.00
N8     N     0.96420   0.94010   0.86880   0.01267  Uiso   1.00
N9     N     0.22840   0.04780   0.09500   0.01267  Uiso   1.00
N10    N     0.08040   0.21760   0.01780   0.01267  Uiso   1.00
N11    N     0.56400   0.10980   0.45280   0.01267  Uiso   1.00
N12    N     0.70350   0.21720   0.61280   0.01267  Uiso   1.00
N13    N     0.39750   0.84950   0.32740   0.01267  Uiso   1.00
N14    N     0.64310   0.00750   0.61060   0.01267  Uiso   1.00
N15    N     0.74940   0.15900   0.70560   0.01267  Uiso   1.00
N16    N     0.63560   0.93080   0.10640   0.01267  Uiso   1.00
N17    N     0.65720   0.86240   0.97440   0.01267  Uiso   1.00
N18    N     0.59540   0.07130   0.13120   0.01267  Uiso   1.00
N19    N     0.63340   0.95280   0.90500   0.01267  Uiso   1.00
N20    N     0.56260   0.19980   0.98220   0.01267  Uiso   1.00
