data_image0
_cell_length_a       17.388
_cell_length_b       12.418
_cell_length_c       19.7091
_cell_angle_alpha    90
_cell_angle_beta     90.854
_cell_angle_gamma    90

_symmetry_space_group_name_H-M    "P 1"
_symmetry_int_tables_number       1

loop_
  _symmetry_equiv_pos_as_xyz
  'x, y, z'

loop_
  _atom_site_label
  _atom_site_occupancy
  _atom_site_fract_x
  _atom_site_fract_y
  _atom_site_fract_z
  _atom_site_thermal_displace_type
  _atom_site_B_iso_or_equiv
  _atom_site_type_symbol
  Mn1      1.0000 0.66884  0.00370  0.83619  Biso   1.000  Mn
  Mn2      1.0000 0.65730  0.26640  0.74232  Biso   1.000  Mn
  Mn3      1.0000 0.66135  0.00130  0.65645  Biso   1.000  Mn
  O1       1.0000 0.63140  0.09400  0.74710  Biso   1.000  O
  O2       1.0000 0.69860  0.13580  0.90240  Biso   1.000  O
  O3       1.0000 0.67020  0.29130  0.85060  Biso   1.000  O
  C1       1.0000 0.69810  0.23470  0.89860  Biso   1.000  C
  C2       1.0000 0.73360  0.29660  0.95770  Biso   1.000  C
  C3       1.0000 0.79760  0.26070  0.99080  Biso   1.000  C
  H1       1.0000 0.82170  0.19570  0.97730  Biso   1.000  H
  C4       1.0000 0.82800  0.32090  0.04540  Biso   1.000  C
  H2       1.0000 0.87430  0.29750  0.06700  Biso   1.000  H
  N1       1.0000 0.79370  0.40940  0.06770  Biso   1.000  N
  C5       1.0000 0.72950  0.44190  0.03580  Biso   1.000  C
  H3       1.0000 0.70370  0.50340  0.05290  Biso   1.000  H
  C6       1.0000 0.69890  0.39130  0.97980  Biso   1.000  C
  H4       1.0000 0.65520  0.42000  0.95660  Biso   1.000  H
  O4       1.0000 0.64980  0.84370  0.79840  Biso   1.000  O
  O5       1.0000 0.61250  0.84760  0.68980  Biso   1.000  O
  C7       1.0000 0.63700  0.80100  0.74240  Biso   1.000  C
  C8       1.0000 0.64840  0.68070  0.73850  Biso   1.000  C
  C9       1.0000 0.62970  0.62110  0.68170  Biso   1.000  C
  H5       1.0000 0.61120  0.65560  0.64160  Biso   1.000  H
  C10      1.0000 0.63830  0.51010  0.68380  Biso   1.000  C
  H6       1.0000 0.62320  0.47000  0.64480  Biso   1.000  H
  N2       1.0000 0.66620  0.45660  0.73700  Biso   1.000  N
  C11      1.0000 0.68670  0.51490  0.79210  Biso   1.000  C
  H7       1.0000 0.70790  0.47850  0.83040  Biso   1.000  H
  C12      1.0000 0.67780  0.62800  0.79520  Biso   1.000  C
  H8       1.0000 0.69150  0.66680  0.83510  Biso   1.000  H
  O6       1.0000 0.78710  0.99820  0.80730  Biso   1.000  O
  O7       1.0000 0.76970  0.95270  0.69790  Biso   1.000  O
  C13      1.0000 0.80760  0.95690  0.75270  Biso   1.000  C
  C14      1.0000 0.88530  0.90450  0.75200  Biso   1.000  C
  C15      1.0000 0.93180  0.89920  0.81050  Biso   1.000  C
  H9       1.0000 0.91450  0.92910  0.85190  Biso   1.000  H
  C16      1.0000 0.00280  0.85030  0.80790  Biso   1.000  C
  H10      1.0000 0.03320  0.84600  0.84830  Biso   1.000  H
  N3       1.0000 0.03090  0.80840  0.75040  Biso   1.000  N
  C17      1.0000 0.98590  0.81130  0.69520  Biso   1.000  C
  H11      1.0000 0.00430  0.78010  0.65450  Biso   1.000  H
  C18      1.0000 0.91390  0.85760  0.69420  Biso   1.000  C
  H12      1.0000 0.88380  0.85710  0.65360  Biso   1.000  H
  O8       1.0000 0.64850  0.27690  0.63430  Biso   1.000  O
  O9       1.0000 0.71160  0.13030  0.60300  Biso   1.000  O
  C19      1.0000 0.69350  0.22620  0.59660  Biso   1.000  C
  C20      1.0000 0.72980  0.28830  0.53970  Biso   1.000  C
  C21      1.0000 0.80090  0.26120  0.51540  Biso   1.000  C
  H13      1.0000 0.82810  0.20110  0.53350  Biso   1.000  H
  C22      1.0000 0.83240  0.32300  0.46410  Biso   1.000  C
  H14      1.0000 0.88190  0.30410  0.44810  Biso   1.000  H
  N4       1.0000 0.79690  0.40700  0.43640  Biso   1.000  N
  C23      1.0000 0.72680  0.43290  0.45890  Biso   1.000  C
  H15      1.0000 0.70030  0.49150  0.43830  Biso   1.000  H
  C24      1.0000 0.69130  0.37720  0.51140  Biso   1.000  C
  H16      1.0000 0.64240  0.39890  0.52750  Biso   1.000  H
  Mn4      1.0000 0.16884  0.50370  0.83619  Biso   1.000  Mn
  Mn5      1.0000 0.15730  0.76640  0.74232  Biso   1.000  Mn
  Mn6      1.0000 0.16135  0.50130  0.65645  Biso   1.000  Mn
  O10      1.0000 0.13140  0.59400  0.74710  Biso   1.000  O
  O11      1.0000 0.19860  0.63580  0.90240  Biso   1.000  O
  O12      1.0000 0.17020  0.79130  0.85060  Biso   1.000  O
  C25      1.0000 0.19810  0.73470  0.89860  Biso   1.000  C
  C26      1.0000 0.23360  0.79660  0.95770  Biso   1.000  C
  C27      1.0000 0.29760  0.76070  0.99080  Biso   1.000  C
  H17      1.0000 0.32170  0.69570  0.97730  Biso   1.000  H
  C28      1.0000 0.32800  0.82090  0.04540  Biso   1.000  C
  H18      1.0000 0.37430  0.79750  0.06700  Biso   1.000  H
  N5       1.0000 0.29370  0.90940  0.06770  Biso   1.000  N
  C29      1.0000 0.22950  0.94190  0.03580  Biso   1.000  C
  H19      1.0000 0.20370  0.00340  0.05290  Biso   1.000  H
  C30      1.0000 0.19890  0.89130  0.97980  Biso   1.000  C
  H20      1.0000 0.15520  0.92000  0.95660  Biso   1.000  H
  O13      1.0000 0.14980  0.34370  0.79840  Biso   1.000  O
  O14      1.0000 0.11250  0.34760  0.68980  Biso   1.000  O
  C31      1.0000 0.13700  0.30100  0.74240  Biso   1.000  C
  C32      1.0000 0.14840  0.18070  0.73850  Biso   1.000  C
  C33      1.0000 0.12970  0.12110  0.68170  Biso   1.000  C
  H21      1.0000 0.11120  0.15560  0.64160  Biso   1.000  H
  C34      1.0000 0.13830  0.01010  0.68380  Biso   1.000  C
  H22      1.0000 0.12320  0.97000  0.64480  Biso   1.000  H
  N6       1.0000 0.16620  0.95660  0.73700  Biso   1.000  N
  C35      1.0000 0.18670  0.01490  0.79210  Biso   1.000  C
  H23      1.0000 0.20790  0.97850  0.83040  Biso   1.000  H
  C36      1.0000 0.17780  0.12800  0.79520  Biso   1.000  C
  H24      1.0000 0.19150  0.16680  0.83510  Biso   1.000  H
  O15      1.0000 0.28710  0.49820  0.80730  Biso   1.000  O
  O16      1.0000 0.26970  0.45270  0.69790  Biso   1.000  O
  C37      1.0000 0.30760  0.45690  0.75270  Biso   1.000  C
  C38      1.0000 0.38530  0.40450  0.75200  Biso   1.000  C
  C39      1.0000 0.43180  0.39920  0.81050  Biso   1.000  C
  H25      1.0000 0.41450  0.42910  0.85190  Biso   1.000  H
  C40      1.0000 0.50280  0.35030  0.80790  Biso   1.000  C
  H26      1.0000 0.53320  0.34600  0.84830  Biso   1.000  H
  N7       1.0000 0.53090  0.30840  0.75040  Biso   1.000  N
  C41      1.0000 0.48590  0.31130  0.69520  Biso   1.000  C
  H27      1.0000 0.50430  0.28010  0.65450  Biso   1.000  H
  C42      1.0000 0.41390  0.35760  0.69420  Biso   1.000  C
  H28      1.0000 0.38380  0.35710  0.65360  Biso   1.000  H
  O17      1.0000 0.14850  0.77690  0.63430  Biso   1.000  O
  O18      1.0000 0.21160  0.63030  0.60300  Biso   1.000  O
  C43      1.0000 0.19350  0.72620  0.59660  Biso   1.000  C
  C44      1.0000 0.22980  0.78830  0.53970  Biso   1.000  C
  C45      1.0000 0.30090  0.76120  0.51540  Biso   1.000  C
  H29      1.0000 0.32810  0.70110  0.53350  Biso   1.000  H
  C46      1.0000 0.33240  0.82300  0.46410  Biso   1.000  C
  H30      1.0000 0.38190  0.80410  0.44810  Biso   1.000  H
  N8       1.0000 0.29690  0.90700  0.43640  Biso   1.000  N
  C47      1.0000 0.22680  0.93290  0.45890  Biso   1.000  C
  H31      1.0000 0.20030  0.99150  0.43830  Biso   1.000  H
  C48      1.0000 0.19130  0.87720  0.51140  Biso   1.000  C
  H32      1.0000 0.14240  0.89890  0.52750  Biso   1.000  H
  Mn7      1.0000 0.33116  0.00370  0.16381  Biso   1.000  Mn
  Mn8      1.0000 0.34270  0.26640  0.25768  Biso   1.000  Mn
  Mn9      1.0000 0.33865  0.00130  0.34355  Biso   1.000  Mn
  O19      1.0000 0.36860  0.09400  0.25290  Biso   1.000  O
  O20      1.0000 0.30140  0.13580  0.09760  Biso   1.000  O
  O21      1.0000 0.32980  0.29130  0.14940  Biso   1.000  O
  C49      1.0000 0.30190  0.23470  0.10140  Biso   1.000  C
  C50      1.0000 0.26640  0.29660  0.04230  Biso   1.000  C
  C51      1.0000 0.20240  0.26070  0.00920  Biso   1.000  C
  H33      1.0000 0.17830  0.19570  0.02270  Biso   1.000  H
  C52      1.0000 0.17200  0.32090  0.95460  Biso   1.000  C
  H34      1.0000 0.12570  0.29750  0.93300  Biso   1.000  H
  N9       1.0000 0.20630  0.40940  0.93230  Biso   1.000  N
  C53      1.0000 0.27050  0.44190  0.96420  Biso   1.000  C
  H35      1.0000 0.29630  0.50340  0.94710  Biso   1.000  H
  C54      1.0000 0.30110  0.39130  0.02020  Biso   1.000  C
  H36      1.0000 0.34480  0.42000  0.04340  Biso   1.000  H
  O22      1.0000 0.35020  0.84370  0.20160  Biso   1.000  O
  O23      1.0000 0.38750  0.84760  0.31020  Biso   1.000  O
  C55      1.0000 0.36300  0.80100  0.25760  Biso   1.000  C
  C56      1.0000 0.35160  0.68070  0.26150  Biso   1.000  C
  C57      1.0000 0.37030  0.62110  0.31830  Biso   1.000  C
  H37      1.0000 0.38880  0.65560  0.35840  Biso   1.000  H
  C58      1.0000 0.36170  0.51010  0.31620  Biso   1.000  C
  H38      1.0000 0.37680  0.47000  0.35520  Biso   1.000  H
  N10      1.0000 0.33380  0.45660  0.26300  Biso   1.000  N
  C59      1.0000 0.31330  0.51490  0.20790  Biso   1.000  C
  H39      1.0000 0.29210  0.47850  0.16960  Biso   1.000  H
  C60      1.0000 0.32220  0.62800  0.20480  Biso   1.000  C
  H40      1.0000 0.30850  0.66680  0.16490  Biso   1.000  H
  O24      1.0000 0.21290  0.99820  0.19270  Biso   1.000  O
  O25      1.0000 0.23030  0.95270  0.30210  Biso   1.000  O
  C61      1.0000 0.19240  0.95690  0.24730  Biso   1.000  C
  C62      1.0000 0.11470  0.90450  0.24800  Biso   1.000  C
  C63      1.0000 0.06820  0.89920  0.18950  Biso   1.000  C
  H41      1.0000 0.08550  0.92910  0.14810  Biso   1.000  H
  C64      1.0000 0.99720  0.85030  0.19210  Biso   1.000  C
  H42      1.0000 0.96680  0.84600  0.15170  Biso   1.000  H
  N11      1.0000 0.96910  0.80840  0.24960  Biso   1.000  N
  C65      1.0000 0.01410  0.81130  0.30480  Biso   1.000  C
  H43      1.0000 0.99570  0.78010  0.34550  Biso   1.000  H
  C66      1.0000 0.08610  0.85760  0.30580  Biso   1.000  C
  H44      1.0000 0.11620  0.85710  0.34640  Biso   1.000  H
  O26      1.0000 0.35150  0.27690  0.36570  Biso   1.000  O
  O27      1.0000 0.28840  0.13030  0.39700  Biso   1.000  O
  C67      1.0000 0.30650  0.22620  0.40340  Biso   1.000  C
  C68      1.0000 0.27020  0.28830  0.46030  Biso   1.000  C
  C69      1.0000 0.19910  0.26120  0.48460  Biso   1.000  C
  H45      1.0000 0.17190  0.20110  0.46650  Biso   1.000  H
  C70      1.0000 0.16760  0.32300  0.53590  Biso   1.000  C
  H46      1.0000 0.11810  0.30410  0.55190  Biso   1.000  H
  N12      1.0000 0.20310  0.40700  0.56360  Biso   1.000  N
  C71      1.0000 0.27320  0.43290  0.54110  Biso   1.000  C
  H47      1.0000 0.29970  0.49150  0.56170  Biso   1.000  H
  C72      1.0000 0.30870  0.37720  0.48860  Biso   1.000  C
  H48      1.0000 0.35760  0.39890  0.47250  Biso   1.000  H
  Mn10     1.0000 0.83116  0.50370  0.16381  Biso   1.000  Mn
  Mn11     1.0000 0.84270  0.76640  0.25768  Biso   1.000  Mn
  Mn12     1.0000 0.83865  0.50130  0.34355  Biso   1.000  Mn
  O28      1.0000 0.86860  0.59400  0.25290  Biso   1.000  O
  O29      1.0000 0.80140  0.63580  0.09760  Biso   1.000  O
  O30      1.0000 0.82980  0.79130  0.14940  Biso   1.000  O
  C73      1.0000 0.80190  0.73470  0.10140  Biso   1.000  C
  C74      1.0000 0.76640  0.79660  0.04230  Biso   1.000  C
  C75      1.0000 0.70240  0.76070  0.00920  Biso   1.000  C
  H49      1.0000 0.67830  0.69570  0.02270  Biso   1.000  H
  C76      1.0000 0.67200  0.82090  0.95460  Biso   1.000  C
  H50      1.0000 0.62570  0.79750  0.93300  Biso   1.000  H
  N13      1.0000 0.70630  0.90940  0.93230  Biso   1.000  N
  C77      1.0000 0.77050  0.94190  0.96420  Biso   1.000  C
  H51      1.0000 0.79630  0.00340  0.94710  Biso   1.000  H
  C78      1.0000 0.80110  0.89130  0.02020  Biso   1.000  C
  H52      1.0000 0.84480  0.92000  0.04340  Biso   1.000  H
  O31      1.0000 0.85020  0.34370  0.20160  Biso   1.000  O
  O32      1.0000 0.88750  0.34760  0.31020  Biso   1.000  O
  C79      1.0000 0.86300  0.30100  0.25760  Biso   1.000  C
  C80      1.0000 0.85160  0.18070  0.26150  Biso   1.000  C
  C81      1.0000 0.87030  0.12110  0.31830  Biso   1.000  C
  H53      1.0000 0.88880  0.15560  0.35840  Biso   1.000  H
  C82      1.0000 0.86170  0.01010  0.31620  Biso   1.000  C
  H54      1.0000 0.87680  0.97000  0.35520  Biso   1.000  H
  N14      1.0000 0.83380  0.95660  0.26300  Biso   1.000  N
  C83      1.0000 0.81330  0.01490  0.20790  Biso   1.000  C
  H55      1.0000 0.79210  0.97850  0.16960  Biso   1.000  H
  C84      1.0000 0.82220  0.12800  0.20480  Biso   1.000  C
  H56      1.0000 0.80850  0.16680  0.16490  Biso   1.000  H
  O33      1.0000 0.71290  0.49820  0.19270  Biso   1.000  O
  O34      1.0000 0.73030  0.45270  0.30210  Biso   1.000  O
  C85      1.0000 0.69240  0.45690  0.24730  Biso   1.000  C
  C86      1.0000 0.61470  0.40450  0.24800  Biso   1.000  C
  C87      1.0000 0.56820  0.39920  0.18950  Biso   1.000  C
  H57      1.0000 0.58550  0.42910  0.14810  Biso   1.000  H
  C88      1.0000 0.49720  0.35030  0.19210  Biso   1.000  C
  H58      1.0000 0.46680  0.34600  0.15170  Biso   1.000  H
  N15      1.0000 0.46910  0.30840  0.24960  Biso   1.000  N
  C89      1.0000 0.51410  0.31130  0.30480  Biso   1.000  C
  H59      1.0000 0.49570  0.28010  0.34550  Biso   1.000  H
  C90      1.0000 0.58610  0.35760  0.30580  Biso   1.000  C
  H60      1.0000 0.61620  0.35710  0.34640  Biso   1.000  H
  O35      1.0000 0.85150  0.77690  0.36570  Biso   1.000  O
  O36      1.0000 0.78840  0.63030  0.39700  Biso   1.000  O
  C91      1.0000 0.80650  0.72620  0.40340  Biso   1.000  C
  C92      1.0000 0.77020  0.78830  0.46030  Biso   1.000  C
  C93      1.0000 0.69910  0.76120  0.48460  Biso   1.000  C
  H61      1.0000 0.67190  0.70110  0.46650  Biso   1.000  H
  C94      1.0000 0.66760  0.82300  0.53590  Biso   1.000  C
  H62      1.0000 0.61810  0.80410  0.55190  Biso   1.000  H
  N16      1.0000 0.70310  0.90700  0.56360  Biso   1.000  N
  C95      1.0000 0.77320  0.93290  0.54110  Biso   1.000  C
  H63      1.0000 0.79970  0.99150  0.56170  Biso   1.000  H
  C96      1.0000 0.80870  0.87720  0.48860  Biso   1.000  C
  H64      1.0000 0.85760  0.89890  0.47250  Biso   1.000  H
