data_image0
_cell_length_a       19.707
_cell_length_b       18.1754
_cell_length_c       12.6085
_cell_angle_alpha    90
_cell_angle_beta     90
_cell_angle_gamma    90

_symmetry_space_group_name_H-M    "P 1"
_symmetry_int_tables_number       1

loop_
  _symmetry_equiv_pos_as_xyz
  'x, y, z'

loop_
  _atom_site_label
  _atom_site_occupancy
  _atom_site_fract_x
  _atom_site_fract_y
  _atom_site_fract_z
  _atom_site_thermal_displace_type
  _atom_site_B_iso_or_equiv
  _atom_site_type_symbol
  Cd1      1.0000 0.15888  0.16339  0.21163  Biso   1.000  Cd
  O1       1.0000 0.13360  0.14660  0.93150  Biso   1.000  O
  O2       1.0000 0.10580  0.21430  0.07180  Biso   1.000  O
  C1       1.0000 0.09770  0.19290  0.97860  Biso   1.000  C
  C2       1.0000 0.03950  0.22460  0.91560  Biso   1.000  C
  C3       1.0000 0.01470  0.19230  0.82640  Biso   1.000  C
  H1       1.0000 0.03320  0.14720  0.80200  Biso   1.000  H
  C4       1.0000 0.96280  0.22550  0.77210  Biso   1.000  C
  H2       1.0000 0.94550  0.20180  0.71050  Biso   1.000  H
  N1       1.0000 0.93480  0.29080  0.80220  Biso   1.000  N
  C5       1.0000 0.96030  0.32400  0.88950  Biso   1.000  C
  H3       1.0000 0.94240  0.37020  0.91080  Biso   1.000  H
  C6       1.0000 0.01190  0.29200  0.94880  Biso   1.000  C
  H4       1.0000 0.02830  0.31550  0.01110  Biso   1.000  H
  C7       1.0000 0.19350  0.14320  0.70230  Biso   1.000  C
  H5       1.0000 0.15190  0.14770  0.73980  Biso   1.000  H
  C8       1.0000 0.19100  0.13070  0.59290  Biso   1.000  C
  H6       1.0000 0.14840  0.12340  0.55900  Biso   1.000  H
  O3       1.0000 0.19360  0.11620  0.37150  Biso   1.000  O
  C9       1.0000 0.30560  0.98560  0.88360  Biso   1.000  C
  H7       1.0000 0.34730  0.00960  0.89850  Biso   1.000  H
  C10      1.0000 0.30840  0.91550  0.84120  Biso   1.000  C
  H8       1.0000 0.35070  0.89210  0.82880  Biso   1.000  H
  O4       1.0000 0.30440  0.77840  0.74900  Biso   1.000  O
  Cd2      1.0000 0.15888  0.66339  0.71163  Biso   1.000  Cd
  O5       1.0000 0.13360  0.64660  0.43150  Biso   1.000  O
  O6       1.0000 0.10580  0.71430  0.57180  Biso   1.000  O
  C11      1.0000 0.09770  0.69290  0.47860  Biso   1.000  C
  C12      1.0000 0.03950  0.72460  0.41560  Biso   1.000  C
  C13      1.0000 0.01470  0.69230  0.32640  Biso   1.000  C
  H9       1.0000 0.03320  0.64720  0.30200  Biso   1.000  H
  C14      1.0000 0.96280  0.72550  0.27210  Biso   1.000  C
  H10      1.0000 0.94550  0.70180  0.21050  Biso   1.000  H
  N2       1.0000 0.93480  0.79080  0.30220  Biso   1.000  N
  C15      1.0000 0.96030  0.82400  0.38950  Biso   1.000  C
  H11      1.0000 0.94240  0.87020  0.41080  Biso   1.000  H
  C16      1.0000 0.01190  0.79200  0.44880  Biso   1.000  C
  H12      1.0000 0.02830  0.81550  0.51110  Biso   1.000  H
  C17      1.0000 0.19350  0.64320  0.20230  Biso   1.000  C
  H13      1.0000 0.15190  0.64770  0.23980  Biso   1.000  H
  C18      1.0000 0.19100  0.63070  0.09290  Biso   1.000  C
  H14      1.0000 0.14840  0.62340  0.05900  Biso   1.000  H
  O7       1.0000 0.19360  0.61620  0.87150  Biso   1.000  O
  C19      1.0000 0.30560  0.48560  0.38360  Biso   1.000  C
  H15      1.0000 0.34730  0.50960  0.39850  Biso   1.000  H
  C20      1.0000 0.30840  0.41550  0.34120  Biso   1.000  C
  H16      1.0000 0.35070  0.39210  0.32880  Biso   1.000  H
  O8       1.0000 0.30440  0.27840  0.24900  Biso   1.000  O
  Cd3      1.0000 0.84112  0.83661  0.21163  Biso   1.000  Cd
  O9       1.0000 0.86640  0.85340  0.93150  Biso   1.000  O
  O10      1.0000 0.89420  0.78570  0.07180  Biso   1.000  O
  C21      1.0000 0.90230  0.80710  0.97860  Biso   1.000  C
  C22      1.0000 0.96050  0.77540  0.91560  Biso   1.000  C
  C23      1.0000 0.98530  0.80770  0.82640  Biso   1.000  C
  H17      1.0000 0.96680  0.85280  0.80200  Biso   1.000  H
  C24      1.0000 0.03720  0.77450  0.77210  Biso   1.000  C
  H18      1.0000 0.05450  0.79820  0.71050  Biso   1.000  H
  N3       1.0000 0.06520  0.70920  0.80220  Biso   1.000  N
  C25      1.0000 0.03970  0.67600  0.88950  Biso   1.000  C
  H19      1.0000 0.05760  0.62980  0.91080  Biso   1.000  H
  C26      1.0000 0.98810  0.70800  0.94880  Biso   1.000  C
  H20      1.0000 0.97170  0.68450  0.01110  Biso   1.000  H
  C27      1.0000 0.80650  0.85680  0.70230  Biso   1.000  C
  H21      1.0000 0.84810  0.85230  0.73980  Biso   1.000  H
  C28      1.0000 0.80900  0.86930  0.59290  Biso   1.000  C
  H22      1.0000 0.85160  0.87660  0.55900  Biso   1.000  H
  O11      1.0000 0.80640  0.88380  0.37150  Biso   1.000  O
  C29      1.0000 0.69440  0.01440  0.88360  Biso   1.000  C
  H23      1.0000 0.65270  0.99040  0.89850  Biso   1.000  H
  C30      1.0000 0.69160  0.08450  0.84120  Biso   1.000  C
  H24      1.0000 0.64930  0.10790  0.82880  Biso   1.000  H
  O12      1.0000 0.69560  0.22160  0.74900  Biso   1.000  O
  Cd4      1.0000 0.84112  0.33661  0.71163  Biso   1.000  Cd
  O13      1.0000 0.86640  0.35340  0.43150  Biso   1.000  O
  O14      1.0000 0.89420  0.28570  0.57180  Biso   1.000  O
  C31      1.0000 0.90230  0.30710  0.47860  Biso   1.000  C
  C32      1.0000 0.96050  0.27540  0.41560  Biso   1.000  C
  C33      1.0000 0.98530  0.30770  0.32640  Biso   1.000  C
  H25      1.0000 0.96680  0.35280  0.30200  Biso   1.000  H
  C34      1.0000 0.03720  0.27450  0.27210  Biso   1.000  C
  H26      1.0000 0.05450  0.29820  0.21050  Biso   1.000  H
  N4       1.0000 0.06520  0.20920  0.30220  Biso   1.000  N
  C35      1.0000 0.03970  0.17600  0.38950  Biso   1.000  C
  H27      1.0000 0.05760  0.12980  0.41080  Biso   1.000  H
  C36      1.0000 0.98810  0.20800  0.44880  Biso   1.000  C
  H28      1.0000 0.97170  0.18450  0.51110  Biso   1.000  H
  C37      1.0000 0.80650  0.35680  0.20230  Biso   1.000  C
  H29      1.0000 0.84810  0.35230  0.23980  Biso   1.000  H
  C38      1.0000 0.80900  0.36930  0.09290  Biso   1.000  C
  H30      1.0000 0.85160  0.37660  0.05900  Biso   1.000  H
  O15      1.0000 0.80640  0.38380  0.87150  Biso   1.000  O
  C39      1.0000 0.69440  0.51440  0.38360  Biso   1.000  C
  H31      1.0000 0.65270  0.49040  0.39850  Biso   1.000  H
  C40      1.0000 0.69160  0.58450  0.34120  Biso   1.000  C
  H32      1.0000 0.64930  0.60790  0.32880  Biso   1.000  H
  O16      1.0000 0.69560  0.72160  0.24900  Biso   1.000  O
  Cd5      1.0000 0.65888  0.83661  0.21163  Biso   1.000  Cd
  O17      1.0000 0.63360  0.85340  0.93150  Biso   1.000  O
  O18      1.0000 0.60580  0.78570  0.07180  Biso   1.000  O
  C41      1.0000 0.59770  0.80710  0.97860  Biso   1.000  C
  C42      1.0000 0.53950  0.77540  0.91560  Biso   1.000  C
  C43      1.0000 0.51470  0.80770  0.82640  Biso   1.000  C
  H33      1.0000 0.53320  0.85280  0.80200  Biso   1.000  H
  C44      1.0000 0.46280  0.77450  0.77210  Biso   1.000  C
  H34      1.0000 0.44550  0.79820  0.71050  Biso   1.000  H
  N5       1.0000 0.43480  0.70920  0.80220  Biso   1.000  N
  C45      1.0000 0.46030  0.67600  0.88950  Biso   1.000  C
  H35      1.0000 0.44240  0.62980  0.91080  Biso   1.000  H
  C46      1.0000 0.51190  0.70800  0.94880  Biso   1.000  C
  H36      1.0000 0.52830  0.68450  0.01110  Biso   1.000  H
  C47      1.0000 0.69350  0.85680  0.70230  Biso   1.000  C
  H37      1.0000 0.65190  0.85230  0.73980  Biso   1.000  H
  C48      1.0000 0.69100  0.86930  0.59290  Biso   1.000  C
  H38      1.0000 0.64840  0.87660  0.55900  Biso   1.000  H
  O19      1.0000 0.69360  0.88380  0.37150  Biso   1.000  O
  C49      1.0000 0.80560  0.01440  0.88360  Biso   1.000  C
  H39      1.0000 0.84730  0.99040  0.89850  Biso   1.000  H
  C50      1.0000 0.80840  0.08450  0.84120  Biso   1.000  C
  H40      1.0000 0.85070  0.10790  0.82880  Biso   1.000  H
  O20      1.0000 0.80440  0.22160  0.74900  Biso   1.000  O
  Cd6      1.0000 0.65888  0.33661  0.71163  Biso   1.000  Cd
  O21      1.0000 0.63360  0.35340  0.43150  Biso   1.000  O
  O22      1.0000 0.60580  0.28570  0.57180  Biso   1.000  O
  C51      1.0000 0.59770  0.30710  0.47860  Biso   1.000  C
  C52      1.0000 0.53950  0.27540  0.41560  Biso   1.000  C
  C53      1.0000 0.51470  0.30770  0.32640  Biso   1.000  C
  H41      1.0000 0.53320  0.35280  0.30200  Biso   1.000  H
  C54      1.0000 0.46280  0.27450  0.27210  Biso   1.000  C
  H42      1.0000 0.44550  0.29820  0.21050  Biso   1.000  H
  N6       1.0000 0.43480  0.20920  0.30220  Biso   1.000  N
  C55      1.0000 0.46030  0.17600  0.38950  Biso   1.000  C
  H43      1.0000 0.44240  0.12980  0.41080  Biso   1.000  H
  C56      1.0000 0.51190  0.20800  0.44880  Biso   1.000  C
  H44      1.0000 0.52830  0.18450  0.51110  Biso   1.000  H
  C57      1.0000 0.69350  0.35680  0.20230  Biso   1.000  C
  H45      1.0000 0.65190  0.35230  0.23980  Biso   1.000  H
  C58      1.0000 0.69100  0.36930  0.09290  Biso   1.000  C
  H46      1.0000 0.64840  0.37660  0.05900  Biso   1.000  H
  O23      1.0000 0.69360  0.38380  0.87150  Biso   1.000  O
  C59      1.0000 0.80560  0.51440  0.38360  Biso   1.000  C
  H47      1.0000 0.84730  0.49040  0.39850  Biso   1.000  H
  C60      1.0000 0.80840  0.58450  0.34120  Biso   1.000  C
  H48      1.0000 0.85070  0.60790  0.32880  Biso   1.000  H
  O24      1.0000 0.80440  0.72160  0.24900  Biso   1.000  O
  Cd7      1.0000 0.34112  0.16339  0.21163  Biso   1.000  Cd
  O25      1.0000 0.36640  0.14660  0.93150  Biso   1.000  O
  O26      1.0000 0.39420  0.21430  0.07180  Biso   1.000  O
  C61      1.0000 0.40230  0.19290  0.97860  Biso   1.000  C
  C62      1.0000 0.46050  0.22460  0.91560  Biso   1.000  C
  C63      1.0000 0.48530  0.19230  0.82640  Biso   1.000  C
  H49      1.0000 0.46680  0.14720  0.80200  Biso   1.000  H
  C64      1.0000 0.53720  0.22550  0.77210  Biso   1.000  C
  H50      1.0000 0.55450  0.20180  0.71050  Biso   1.000  H
  N7       1.0000 0.56520  0.29080  0.80220  Biso   1.000  N
  C65      1.0000 0.53970  0.32400  0.88950  Biso   1.000  C
  H51      1.0000 0.55760  0.37020  0.91080  Biso   1.000  H
  C66      1.0000 0.48810  0.29200  0.94880  Biso   1.000  C
  H52      1.0000 0.47170  0.31550  0.01110  Biso   1.000  H
  C67      1.0000 0.30650  0.14320  0.70230  Biso   1.000  C
  H53      1.0000 0.34810  0.14770  0.73980  Biso   1.000  H
  C68      1.0000 0.30900  0.13070  0.59290  Biso   1.000  C
  H54      1.0000 0.35160  0.12340  0.55900  Biso   1.000  H
  O27      1.0000 0.30640  0.11620  0.37150  Biso   1.000  O
  C69      1.0000 0.19440  0.98560  0.88360  Biso   1.000  C
  H55      1.0000 0.15270  0.00960  0.89850  Biso   1.000  H
  C70      1.0000 0.19160  0.91550  0.84120  Biso   1.000  C
  H56      1.0000 0.14930  0.89210  0.82880  Biso   1.000  H
  O28      1.0000 0.19560  0.77840  0.74900  Biso   1.000  O
  Cd8      1.0000 0.34112  0.66339  0.71163  Biso   1.000  Cd
  O29      1.0000 0.36640  0.64660  0.43150  Biso   1.000  O
  O30      1.0000 0.39420  0.71430  0.57180  Biso   1.000  O
  C71      1.0000 0.40230  0.69290  0.47860  Biso   1.000  C
  C72      1.0000 0.46050  0.72460  0.41560  Biso   1.000  C
  C73      1.0000 0.48530  0.69230  0.32640  Biso   1.000  C
  H57      1.0000 0.46680  0.64720  0.30200  Biso   1.000  H
  C74      1.0000 0.53720  0.72550  0.27210  Biso   1.000  C
  H58      1.0000 0.55450  0.70180  0.21050  Biso   1.000  H
  N8       1.0000 0.56520  0.79080  0.30220  Biso   1.000  N
  C75      1.0000 0.53970  0.82400  0.38950  Biso   1.000  C
  H59      1.0000 0.55760  0.87020  0.41080  Biso   1.000  H
  C76      1.0000 0.48810  0.79200  0.44880  Biso   1.000  C
  H60      1.0000 0.47170  0.81550  0.51110  Biso   1.000  H
  C77      1.0000 0.30650  0.64320  0.20230  Biso   1.000  C
  H61      1.0000 0.34810  0.64770  0.23980  Biso   1.000  H
  C78      1.0000 0.30900  0.63070  0.09290  Biso   1.000  C
  H62      1.0000 0.35160  0.62340  0.05900  Biso   1.000  H
  O31      1.0000 0.30640  0.61620  0.87150  Biso   1.000  O
  C79      1.0000 0.19440  0.48560  0.38360  Biso   1.000  C
  H63      1.0000 0.15270  0.50960  0.39850  Biso   1.000  H
  C80      1.0000 0.19160  0.41550  0.34120  Biso   1.000  C
  H64      1.0000 0.14930  0.39210  0.32880  Biso   1.000  H
  O32      1.0000 0.19560  0.27840  0.24900  Biso   1.000  O
  Cd9      1.0000 0.25000  0.14500  0.94683  Biso   1.000  Cd
  N9       1.0000 0.25000  0.14900  0.75550  Biso   1.000  N
  C81      1.0000 0.25000  0.12890  0.53390  Biso   1.000  C
  C82      1.0000 0.25000  0.12150  0.41520  Biso   1.000  C
  N10      1.0000 0.25000  0.02050  0.90430  Biso   1.000  N
  C83      1.0000 0.25000  0.88110  0.81790  Biso   1.000  C
  C84      1.0000 0.25000  0.80590  0.76660  Biso   1.000  C
  O33      1.0000 0.25000  0.12340  0.12250  Biso   1.000  O
  H65      1.0000 0.25000  0.06870  0.13040  Biso   1.000  H
  Cd10     1.0000 0.25000  0.64500  0.44683  Biso   1.000  Cd
  N11      1.0000 0.25000  0.64900  0.25550  Biso   1.000  N
  C85      1.0000 0.25000  0.62890  0.03390  Biso   1.000  C
  C86      1.0000 0.25000  0.62150  0.91520  Biso   1.000  C
  N12      1.0000 0.25000  0.52050  0.40430  Biso   1.000  N
  C87      1.0000 0.25000  0.38110  0.31790  Biso   1.000  C
  C88      1.0000 0.25000  0.30590  0.26660  Biso   1.000  C
  O34      1.0000 0.25000  0.62340  0.62250  Biso   1.000  O
  H66      1.0000 0.25000  0.56870  0.63040  Biso   1.000  H
  Cd11     1.0000 0.75000  0.85500  0.94683  Biso   1.000  Cd
  N13      1.0000 0.75000  0.85100  0.75550  Biso   1.000  N
  C89      1.0000 0.75000  0.87110  0.53390  Biso   1.000  C
  C90      1.0000 0.75000  0.87850  0.41520  Biso   1.000  C
  N14      1.0000 0.75000  0.97950  0.90430  Biso   1.000  N
  C91      1.0000 0.75000  0.11890  0.81790  Biso   1.000  C
  C92      1.0000 0.75000  0.19410  0.76660  Biso   1.000  C
  O35      1.0000 0.75000  0.87660  0.12250  Biso   1.000  O
  H67      1.0000 0.75000  0.93130  0.13040  Biso   1.000  H
  Cd12     1.0000 0.75000  0.35500  0.44683  Biso   1.000  Cd
  N15      1.0000 0.75000  0.35100  0.25550  Biso   1.000  N
  C93      1.0000 0.75000  0.37110  0.03390  Biso   1.000  C
  C94      1.0000 0.75000  0.37850  0.91520  Biso   1.000  C
  N16      1.0000 0.75000  0.47950  0.40430  Biso   1.000  N
  C95      1.0000 0.75000  0.61890  0.31790  Biso   1.000  C
  C96      1.0000 0.75000  0.69410  0.26660  Biso   1.000  C
  O36      1.0000 0.75000  0.37660  0.62250  Biso   1.000  O
  H68      1.0000 0.75000  0.43130  0.63040  Biso   1.000  H
