data_image0
_cell_length_a       36.4616
_cell_length_b       19.2841
_cell_length_c       16.0675
_cell_angle_alpha    90
_cell_angle_beta     95.679
_cell_angle_gamma    90

_symmetry_space_group_name_H-M    "P 1"
_symmetry_int_tables_number       1

loop_
  _symmetry_equiv_pos_as_xyz
  'x, y, z'

loop_
  _atom_site_label
  _atom_site_occupancy
  _atom_site_fract_x
  _atom_site_fract_y
  _atom_site_fract_z
  _atom_site_thermal_displace_type
  _atom_site_B_iso_or_equiv
  _atom_site_type_symbol
  N1       1.0000 0.28881  0.13820  0.07110  Biso   1.000  N
  N2       1.0000 0.29700  0.81510  0.39990  Biso   1.000  N
  C1       1.0000 0.44740  0.93700  0.91900  Biso   1.000  C
  H1       1.0000 0.43840  0.89550  0.93830  Biso   1.000  H
  C2       1.0000 0.47330  0.93750  0.86260  Biso   1.000  C
  H2       1.0000 0.48230  0.89600  0.84310  Biso   1.000  H
  C3       1.0000 0.30560  0.09140  0.09600  Biso   1.000  C
  C4       1.0000 0.31500  0.84540  0.35990  Biso   1.000  C
  B1       1.0000 0.43660  0.84160  0.11220  Biso   1.000  B
  H3       1.0000 0.44750  0.89110  0.09120  Biso   1.000  H
  C5       1.0000 0.23170  0.20040  0.04300  Biso   1.000  C
  H4       1.0000 0.21990  0.16670  0.07210  Biso   1.000  H
  C6       1.0000 0.26920  0.19590  0.03550  Biso   1.000  C
  B2       1.0000 0.38900  0.81100  0.07620  Biso   1.000  B
  H5       1.0000 0.36970  0.84050  0.03250  Biso   1.000  H
  C7       1.0000 0.28780  0.24460  0.99320  Biso   1.000  C
  H6       1.0000 0.31300  0.24040  0.98930  Biso   1.000  H
  C8       1.0000 0.27330  0.78190  0.45150  Biso   1.000  C
  C9       1.0000 0.28590  0.76410  0.53130  Biso   1.000  C
  H7       1.0000 0.31010  0.77370  0.55170  Biso   1.000  H
  B3       1.0000 0.37340  0.75420  0.16020  Biso   1.000  B
  H8       1.0000 0.34420  0.74760  0.17010  Biso   1.000  H
  B4       1.0000 0.41160  0.74900  0.24640  Biso   1.000  B
  H9       1.0000 0.40670  0.73860  0.31170  Biso   1.000  H
  C10      1.0000 0.23750  0.76830  0.41830  Biso   1.000  C
  H10      1.0000 0.22940  0.78060  0.36360  Biso   1.000  H
  B5       1.0000 0.42870  0.77140  0.04210  Biso   1.000  B
  H11      1.0000 0.43440  0.77690  0.97650  Biso   1.000  H
  B6       1.0000 0.45090  0.80390  0.21770  Biso   1.000  B
  H12      1.0000 0.47080  0.82850  0.26450  Biso   1.000  H
  B7       1.0000 0.39140  0.72060  0.07100  Biso   1.000  B
  H13      1.0000 0.37290  0.69310  0.02390  Biso   1.000  H
  B8       1.0000 0.46500  0.76790  0.12470  Biso   1.000  B
  H14      1.0000 0.49410  0.77170  0.11300  Biso   1.000  H
  B9       1.0000 0.40420  0.68390  0.17120  Biso   1.000  B
  H15      1.0000 0.39410  0.63300  0.18980  Biso   1.000  H
  B10      1.0000 0.43770  0.69300  0.09680  Biso   1.000  B
  H16      1.0000 0.44920  0.64760  0.06690  Biso   1.000  H
  B11      1.0000 0.23040  0.95190  0.35040  Biso   1.000  B
  H17      1.0000 0.24340  0.92150  0.40320  Biso   1.000  H
  B12      1.0000 0.22760  0.92020  0.23930  Biso   1.000  B
  H18      1.0000 0.23870  0.86980  0.22170  Biso   1.000  H
  B13      1.0000 0.45030  0.71290  0.20220  Biso   1.000  B
  H19      1.0000 0.47020  0.68030  0.24030  Biso   1.000  H
  B14      1.0000 0.34720  0.95150  0.55120  Biso   1.000  B
  H20      1.0000 0.32320  0.92110  0.52560  Biso   1.000  H
  B15      1.0000 0.18820  0.92580  0.29460  Biso   1.000  B
  H21      1.0000 0.17510  0.87730  0.31190  Biso   1.000  H
  B16      1.0000 0.39610  0.92150  0.55010  Biso   1.000  B
  H22      1.0000 0.40310  0.87130  0.52320  Biso   1.000  H
  B17      1.0000 0.42140  0.95390  0.64180  Biso   1.000  B
  H23      1.0000 0.44490  0.92420  0.67200  Biso   1.000  H
  B18      1.0000 0.18490  0.95470  0.18850  Biso   1.000  B
  H24      1.0000 0.16970  0.92560  0.13730  Biso   1.000  H
  B19      1.0000 0.37520  0.92440  0.64350  Biso   1.000  B
  H25      1.0000 0.36890  0.87560  0.67460  Biso   1.000  H
  Sn1      1.0000 0.39452  0.86230  0.20930  Biso   1.000  Sn
  Ag1      1.0000 0.34202  0.92640  0.29706  Biso   1.000  Ag
  N3       1.0000 0.78881  0.63820  0.07110  Biso   1.000  N
  N4       1.0000 0.79700  0.31510  0.39990  Biso   1.000  N
  C11      1.0000 0.94740  0.43700  0.91900  Biso   1.000  C
  H26      1.0000 0.93840  0.39550  0.93830  Biso   1.000  H
  C12      1.0000 0.97330  0.43750  0.86260  Biso   1.000  C
  H27      1.0000 0.98230  0.39600  0.84310  Biso   1.000  H
  C13      1.0000 0.80560  0.59140  0.09600  Biso   1.000  C
  C14      1.0000 0.81500  0.34540  0.35990  Biso   1.000  C
  B20      1.0000 0.93660  0.34160  0.11220  Biso   1.000  B
  H28      1.0000 0.94750  0.39110  0.09120  Biso   1.000  H
  C15      1.0000 0.73170  0.70040  0.04300  Biso   1.000  C
  H29      1.0000 0.71990  0.66670  0.07210  Biso   1.000  H
  C16      1.0000 0.76920  0.69590  0.03550  Biso   1.000  C
  B21      1.0000 0.88900  0.31100  0.07620  Biso   1.000  B
  H30      1.0000 0.86970  0.34050  0.03250  Biso   1.000  H
  C17      1.0000 0.78780  0.74460  0.99320  Biso   1.000  C
  H31      1.0000 0.81300  0.74040  0.98930  Biso   1.000  H
  C18      1.0000 0.77330  0.28190  0.45150  Biso   1.000  C
  C19      1.0000 0.78590  0.26410  0.53130  Biso   1.000  C
  H32      1.0000 0.81010  0.27370  0.55170  Biso   1.000  H
  B22      1.0000 0.87340  0.25420  0.16020  Biso   1.000  B
  H33      1.0000 0.84420  0.24760  0.17010  Biso   1.000  H
  B23      1.0000 0.91160  0.24900  0.24640  Biso   1.000  B
  H34      1.0000 0.90670  0.23860  0.31170  Biso   1.000  H
  C20      1.0000 0.73750  0.26830  0.41830  Biso   1.000  C
  H35      1.0000 0.72940  0.28060  0.36360  Biso   1.000  H
  B24      1.0000 0.92870  0.27140  0.04210  Biso   1.000  B
  H36      1.0000 0.93440  0.27690  0.97650  Biso   1.000  H
  B25      1.0000 0.95090  0.30390  0.21770  Biso   1.000  B
  H37      1.0000 0.97080  0.32850  0.26450  Biso   1.000  H
  B26      1.0000 0.89140  0.22060  0.07100  Biso   1.000  B
  H38      1.0000 0.87290  0.19310  0.02390  Biso   1.000  H
  B27      1.0000 0.96500  0.26790  0.12470  Biso   1.000  B
  H39      1.0000 0.99410  0.27170  0.11300  Biso   1.000  H
  B28      1.0000 0.90420  0.18390  0.17120  Biso   1.000  B
  H40      1.0000 0.89410  0.13300  0.18980  Biso   1.000  H
  B29      1.0000 0.93770  0.19300  0.09680  Biso   1.000  B
  H41      1.0000 0.94920  0.14760  0.06690  Biso   1.000  H
  B30      1.0000 0.73040  0.45190  0.35040  Biso   1.000  B
  H42      1.0000 0.74340  0.42150  0.40320  Biso   1.000  H
  B31      1.0000 0.72760  0.42020  0.23930  Biso   1.000  B
  H43      1.0000 0.73870  0.36980  0.22170  Biso   1.000  H
  B32      1.0000 0.95030  0.21290  0.20220  Biso   1.000  B
  H44      1.0000 0.97020  0.18030  0.24030  Biso   1.000  H
  B33      1.0000 0.84720  0.45150  0.55120  Biso   1.000  B
  H45      1.0000 0.82320  0.42110  0.52560  Biso   1.000  H
  B34      1.0000 0.68820  0.42580  0.29460  Biso   1.000  B
  H46      1.0000 0.67510  0.37730  0.31190  Biso   1.000  H
  B35      1.0000 0.89610  0.42150  0.55010  Biso   1.000  B
  H47      1.0000 0.90310  0.37130  0.52320  Biso   1.000  H
  B36      1.0000 0.92140  0.45390  0.64180  Biso   1.000  B
  H48      1.0000 0.94490  0.42420  0.67200  Biso   1.000  H
  B37      1.0000 0.68490  0.45470  0.18850  Biso   1.000  B
  H49      1.0000 0.66970  0.42560  0.13730  Biso   1.000  H
  B38      1.0000 0.87520  0.42440  0.64350  Biso   1.000  B
  H50      1.0000 0.86890  0.37560  0.67460  Biso   1.000  H
  Sn2      1.0000 0.89452  0.36230  0.20930  Biso   1.000  Sn
  Ag2      1.0000 0.84202  0.42640  0.29706  Biso   1.000  Ag
  N5       1.0000 0.71119  0.13820  0.92890  Biso   1.000  N
  N6       1.0000 0.70300  0.81510  0.60010  Biso   1.000  N
  C21      1.0000 0.55260  0.93700  0.08100  Biso   1.000  C
  H51      1.0000 0.56160  0.89550  0.06170  Biso   1.000  H
  C22      1.0000 0.52670  0.93750  0.13740  Biso   1.000  C
  H52      1.0000 0.51770  0.89600  0.15690  Biso   1.000  H
  C23      1.0000 0.69440  0.09140  0.90400  Biso   1.000  C
  C24      1.0000 0.68500  0.84540  0.64010  Biso   1.000  C
  B39      1.0000 0.56340  0.84160  0.88780  Biso   1.000  B
  H53      1.0000 0.55250  0.89110  0.90880  Biso   1.000  H
  C25      1.0000 0.76830  0.20040  0.95700  Biso   1.000  C
  H54      1.0000 0.78010  0.16670  0.92790  Biso   1.000  H
  C26      1.0000 0.73080  0.19590  0.96450  Biso   1.000  C
  B40      1.0000 0.61100  0.81100  0.92380  Biso   1.000  B
  H55      1.0000 0.63030  0.84050  0.96750  Biso   1.000  H
  C27      1.0000 0.71220  0.24460  0.00680  Biso   1.000  C
  H56      1.0000 0.68700  0.24040  0.01070  Biso   1.000  H
  C28      1.0000 0.72670  0.78190  0.54850  Biso   1.000  C
  C29      1.0000 0.71410  0.76410  0.46870  Biso   1.000  C
  H57      1.0000 0.68990  0.77370  0.44830  Biso   1.000  H
  B41      1.0000 0.62660  0.75420  0.83980  Biso   1.000  B
  H58      1.0000 0.65580  0.74760  0.82990  Biso   1.000  H
  B42      1.0000 0.58840  0.74900  0.75360  Biso   1.000  B
  H59      1.0000 0.59330  0.73860  0.68830  Biso   1.000  H
  C30      1.0000 0.76250  0.76830  0.58170  Biso   1.000  C
  H60      1.0000 0.77060  0.78060  0.63640  Biso   1.000  H
  B43      1.0000 0.57130  0.77140  0.95790  Biso   1.000  B
  H61      1.0000 0.56560  0.77690  0.02350  Biso   1.000  H
  B44      1.0000 0.54910  0.80390  0.78230  Biso   1.000  B
  H62      1.0000 0.52920  0.82850  0.73550  Biso   1.000  H
  B45      1.0000 0.60860  0.72060  0.92900  Biso   1.000  B
  H63      1.0000 0.62710  0.69310  0.97610  Biso   1.000  H
  B46      1.0000 0.53500  0.76790  0.87530  Biso   1.000  B
  H64      1.0000 0.50590  0.77170  0.88700  Biso   1.000  H
  B47      1.0000 0.59580  0.68390  0.82880  Biso   1.000  B
  H65      1.0000 0.60590  0.63300  0.81020  Biso   1.000  H
  B48      1.0000 0.56230  0.69300  0.90320  Biso   1.000  B
  H66      1.0000 0.55080  0.64760  0.93310  Biso   1.000  H
  B49      1.0000 0.76960  0.95190  0.64960  Biso   1.000  B
  H67      1.0000 0.75660  0.92150  0.59680  Biso   1.000  H
  B50      1.0000 0.77240  0.92020  0.76070  Biso   1.000  B
  H68      1.0000 0.76130  0.86980  0.77830  Biso   1.000  H
  B51      1.0000 0.54970  0.71290  0.79780  Biso   1.000  B
  H69      1.0000 0.52980  0.68030  0.75970  Biso   1.000  H
  B52      1.0000 0.65280  0.95150  0.44880  Biso   1.000  B
  H70      1.0000 0.67680  0.92110  0.47440  Biso   1.000  H
  B53      1.0000 0.81180  0.92580  0.70540  Biso   1.000  B
  H71      1.0000 0.82490  0.87730  0.68810  Biso   1.000  H
  B54      1.0000 0.60390  0.92150  0.44990  Biso   1.000  B
  H72      1.0000 0.59690  0.87130  0.47680  Biso   1.000  H
  B55      1.0000 0.57860  0.95390  0.35820  Biso   1.000  B
  H73      1.0000 0.55510  0.92420  0.32800  Biso   1.000  H
  B56      1.0000 0.81510  0.95470  0.81150  Biso   1.000  B
  H74      1.0000 0.83030  0.92560  0.86270  Biso   1.000  H
  B57      1.0000 0.62480  0.92440  0.35650  Biso   1.000  B
  H75      1.0000 0.63110  0.87560  0.32540  Biso   1.000  H
  Sn3      1.0000 0.60548  0.86230  0.79070  Biso   1.000  Sn
  Ag3      1.0000 0.65798  0.92640  0.70294  Biso   1.000  Ag
  N7       1.0000 0.21119  0.63820  0.92890  Biso   1.000  N
  N8       1.0000 0.20300  0.31510  0.60010  Biso   1.000  N
  C31      1.0000 0.05260  0.43700  0.08100  Biso   1.000  C
  H76      1.0000 0.06160  0.39550  0.06170  Biso   1.000  H
  C32      1.0000 0.02670  0.43750  0.13740  Biso   1.000  C
  H77      1.0000 0.01770  0.39600  0.15690  Biso   1.000  H
  C33      1.0000 0.19440  0.59140  0.90400  Biso   1.000  C
  C34      1.0000 0.18500  0.34540  0.64010  Biso   1.000  C
  B58      1.0000 0.06340  0.34160  0.88780  Biso   1.000  B
  H78      1.0000 0.05250  0.39110  0.90880  Biso   1.000  H
  C35      1.0000 0.26830  0.70040  0.95700  Biso   1.000  C
  H79      1.0000 0.28010  0.66670  0.92790  Biso   1.000  H
  C36      1.0000 0.23080  0.69590  0.96450  Biso   1.000  C
  B59      1.0000 0.11100  0.31100  0.92380  Biso   1.000  B
  H80      1.0000 0.13030  0.34050  0.96750  Biso   1.000  H
  C37      1.0000 0.21220  0.74460  0.00680  Biso   1.000  C
  H81      1.0000 0.18700  0.74040  0.01070  Biso   1.000  H
  C38      1.0000 0.22670  0.28190  0.54850  Biso   1.000  C
  C39      1.0000 0.21410  0.26410  0.46870  Biso   1.000  C
  H82      1.0000 0.18990  0.27370  0.44830  Biso   1.000  H
  B60      1.0000 0.12660  0.25420  0.83980  Biso   1.000  B
  H83      1.0000 0.15580  0.24760  0.82990  Biso   1.000  H
  B61      1.0000 0.08840  0.24900  0.75360  Biso   1.000  B
  H84      1.0000 0.09330  0.23860  0.68830  Biso   1.000  H
  C40      1.0000 0.26250  0.26830  0.58170  Biso   1.000  C
  H85      1.0000 0.27060  0.28060  0.63640  Biso   1.000  H
  B62      1.0000 0.07130  0.27140  0.95790  Biso   1.000  B
  H86      1.0000 0.06560  0.27690  0.02350  Biso   1.000  H
  B63      1.0000 0.04910  0.30390  0.78230  Biso   1.000  B
  H87      1.0000 0.02920  0.32850  0.73550  Biso   1.000  H
  B64      1.0000 0.10860  0.22060  0.92900  Biso   1.000  B
  H88      1.0000 0.12710  0.19310  0.97610  Biso   1.000  H
  B65      1.0000 0.03500  0.26790  0.87530  Biso   1.000  B
  H89      1.0000 0.00590  0.27170  0.88700  Biso   1.000  H
  B66      1.0000 0.09580  0.18390  0.82880  Biso   1.000  B
  H90      1.0000 0.10590  0.13300  0.81020  Biso   1.000  H
  B67      1.0000 0.06230  0.19300  0.90320  Biso   1.000  B
  H91      1.0000 0.05080  0.14760  0.93310  Biso   1.000  H
  B68      1.0000 0.26960  0.45190  0.64960  Biso   1.000  B
  H92      1.0000 0.25660  0.42150  0.59680  Biso   1.000  H
  B69      1.0000 0.27240  0.42020  0.76070  Biso   1.000  B
  H93      1.0000 0.26130  0.36980  0.77830  Biso   1.000  H
  B70      1.0000 0.04970  0.21290  0.79780  Biso   1.000  B
  H94      1.0000 0.02980  0.18030  0.75970  Biso   1.000  H
  B71      1.0000 0.15280  0.45150  0.44880  Biso   1.000  B
  H95      1.0000 0.17680  0.42110  0.47440  Biso   1.000  H
  B72      1.0000 0.31180  0.42580  0.70540  Biso   1.000  B
  H96      1.0000 0.32490  0.37730  0.68810  Biso   1.000  H
  B73      1.0000 0.10390  0.42150  0.44990  Biso   1.000  B
  H97      1.0000 0.09690  0.37130  0.47680  Biso   1.000  H
  B74      1.0000 0.07860  0.45390  0.35820  Biso   1.000  B
  H98      1.0000 0.05510  0.42420  0.32800  Biso   1.000  H
  B75      1.0000 0.31510  0.45470  0.81150  Biso   1.000  B
  H99      1.0000 0.33030  0.42560  0.86270  Biso   1.000  H
  B76      1.0000 0.12480  0.42440  0.35650  Biso   1.000  B
  H100     1.0000 0.13110  0.37560  0.32540  Biso   1.000  H
  Sn4      1.0000 0.10548  0.36230  0.79070  Biso   1.000  Sn
  Ag4      1.0000 0.15798  0.42640  0.70294  Biso   1.000  Ag
  N9       1.0000 0.71119  0.86180  0.92890  Biso   1.000  N
  N10      1.0000 0.70300  0.18490  0.60010  Biso   1.000  N
  C41      1.0000 0.55260  0.06300  0.08100  Biso   1.000  C
  H101     1.0000 0.56160  0.10450  0.06170  Biso   1.000  H
  C42      1.0000 0.52670  0.06250  0.13740  Biso   1.000  C
  H102     1.0000 0.51770  0.10400  0.15690  Biso   1.000  H
  C43      1.0000 0.69440  0.90860  0.90400  Biso   1.000  C
  C44      1.0000 0.68500  0.15460  0.64010  Biso   1.000  C
  B77      1.0000 0.56340  0.15840  0.88780  Biso   1.000  B
  H103     1.0000 0.55250  0.10890  0.90880  Biso   1.000  H
  C45      1.0000 0.76830  0.79960  0.95700  Biso   1.000  C
  H104     1.0000 0.78010  0.83330  0.92790  Biso   1.000  H
  C46      1.0000 0.73080  0.80410  0.96450  Biso   1.000  C
  B78      1.0000 0.61100  0.18900  0.92380  Biso   1.000  B
  H105     1.0000 0.63030  0.15950  0.96750  Biso   1.000  H
  C47      1.0000 0.71220  0.75540  0.00680  Biso   1.000  C
  H106     1.0000 0.68700  0.75960  0.01070  Biso   1.000  H
  C48      1.0000 0.72670  0.21810  0.54850  Biso   1.000  C
  C49      1.0000 0.71410  0.23590  0.46870  Biso   1.000  C
  H107     1.0000 0.68990  0.22630  0.44830  Biso   1.000  H
  B79      1.0000 0.62660  0.24580  0.83980  Biso   1.000  B
  H108     1.0000 0.65580  0.25240  0.82990  Biso   1.000  H
  B80      1.0000 0.58840  0.25100  0.75360  Biso   1.000  B
  H109     1.0000 0.59330  0.26140  0.68830  Biso   1.000  H
  C50      1.0000 0.76250  0.23170  0.58170  Biso   1.000  C
  H110     1.0000 0.77060  0.21940  0.63640  Biso   1.000  H
  B81      1.0000 0.57130  0.22860  0.95790  Biso   1.000  B
  H111     1.0000 0.56560  0.22310  0.02350  Biso   1.000  H
  B82      1.0000 0.54910  0.19610  0.78230  Biso   1.000  B
  H112     1.0000 0.52920  0.17150  0.73550  Biso   1.000  H
  B83      1.0000 0.60860  0.27940  0.92900  Biso   1.000  B
  H113     1.0000 0.62710  0.30690  0.97610  Biso   1.000  H
  B84      1.0000 0.53500  0.23210  0.87530  Biso   1.000  B
  H114     1.0000 0.50590  0.22830  0.88700  Biso   1.000  H
  B85      1.0000 0.59580  0.31610  0.82880  Biso   1.000  B
  H115     1.0000 0.60590  0.36700  0.81020  Biso   1.000  H
  B86      1.0000 0.56230  0.30700  0.90320  Biso   1.000  B
  H116     1.0000 0.55080  0.35240  0.93310  Biso   1.000  H
  B87      1.0000 0.76960  0.04810  0.64960  Biso   1.000  B
  H117     1.0000 0.75660  0.07850  0.59680  Biso   1.000  H
  B88      1.0000 0.77240  0.07980  0.76070  Biso   1.000  B
  H118     1.0000 0.76130  0.13020  0.77830  Biso   1.000  H
  B89      1.0000 0.54970  0.28710  0.79780  Biso   1.000  B
  H119     1.0000 0.52980  0.31970  0.75970  Biso   1.000  H
  B90      1.0000 0.65280  0.04850  0.44880  Biso   1.000  B
  H120     1.0000 0.67680  0.07890  0.47440  Biso   1.000  H
  B91      1.0000 0.81180  0.07420  0.70540  Biso   1.000  B
  H121     1.0000 0.82490  0.12270  0.68810  Biso   1.000  H
  B92      1.0000 0.60390  0.07850  0.44990  Biso   1.000  B
  H122     1.0000 0.59690  0.12870  0.47680  Biso   1.000  H
  B93      1.0000 0.57860  0.04610  0.35820  Biso   1.000  B
  H123     1.0000 0.55510  0.07580  0.32800  Biso   1.000  H
  B94      1.0000 0.81510  0.04530  0.81150  Biso   1.000  B
  H124     1.0000 0.83030  0.07440  0.86270  Biso   1.000  H
  B95      1.0000 0.62480  0.07560  0.35650  Biso   1.000  B
  H125     1.0000 0.63110  0.12440  0.32540  Biso   1.000  H
  Sn5      1.0000 0.60548  0.13770  0.79070  Biso   1.000  Sn
  Ag5      1.0000 0.65798  0.07360  0.70294  Biso   1.000  Ag
  N11      1.0000 0.21119  0.36180  0.92890  Biso   1.000  N
  N12      1.0000 0.20300  0.68490  0.60010  Biso   1.000  N
  C51      1.0000 0.05260  0.56300  0.08100  Biso   1.000  C
  H126     1.0000 0.06160  0.60450  0.06170  Biso   1.000  H
  C52      1.0000 0.02670  0.56250  0.13740  Biso   1.000  C
  H127     1.0000 0.01770  0.60400  0.15690  Biso   1.000  H
  C53      1.0000 0.19440  0.40860  0.90400  Biso   1.000  C
  C54      1.0000 0.18500  0.65460  0.64010  Biso   1.000  C
  B96      1.0000 0.06340  0.65840  0.88780  Biso   1.000  B
  H128     1.0000 0.05250  0.60890  0.90880  Biso   1.000  H
  C55      1.0000 0.26830  0.29960  0.95700  Biso   1.000  C
  H129     1.0000 0.28010  0.33330  0.92790  Biso   1.000  H
  C56      1.0000 0.23080  0.30410  0.96450  Biso   1.000  C
  B97      1.0000 0.11100  0.68900  0.92380  Biso   1.000  B
  H130     1.0000 0.13030  0.65950  0.96750  Biso   1.000  H
  C57      1.0000 0.21220  0.25540  0.00680  Biso   1.000  C
  H131     1.0000 0.18700  0.25960  0.01070  Biso   1.000  H
  C58      1.0000 0.22670  0.71810  0.54850  Biso   1.000  C
  C59      1.0000 0.21410  0.73590  0.46870  Biso   1.000  C
  H132     1.0000 0.18990  0.72630  0.44830  Biso   1.000  H
  B98      1.0000 0.12660  0.74580  0.83980  Biso   1.000  B
  H133     1.0000 0.15580  0.75240  0.82990  Biso   1.000  H
  B99      1.0000 0.08840  0.75100  0.75360  Biso   1.000  B
  H134     1.0000 0.09330  0.76140  0.68830  Biso   1.000  H
  C60      1.0000 0.26250  0.73170  0.58170  Biso   1.000  C
  H135     1.0000 0.27060  0.71940  0.63640  Biso   1.000  H
  B100     1.0000 0.07130  0.72860  0.95790  Biso   1.000  B
  H136     1.0000 0.06560  0.72310  0.02350  Biso   1.000  H
  B101     1.0000 0.04910  0.69610  0.78230  Biso   1.000  B
  H137     1.0000 0.02920  0.67150  0.73550  Biso   1.000  H
  B102     1.0000 0.10860  0.77940  0.92900  Biso   1.000  B
  H138     1.0000 0.12710  0.80690  0.97610  Biso   1.000  H
  B103     1.0000 0.03500  0.73210  0.87530  Biso   1.000  B
  H139     1.0000 0.00590  0.72830  0.88700  Biso   1.000  H
  B104     1.0000 0.09580  0.81610  0.82880  Biso   1.000  B
  H140     1.0000 0.10590  0.86700  0.81020  Biso   1.000  H
  B105     1.0000 0.06230  0.80700  0.90320  Biso   1.000  B
  H141     1.0000 0.05080  0.85240  0.93310  Biso   1.000  H
  B106     1.0000 0.26960  0.54810  0.64960  Biso   1.000  B
  H142     1.0000 0.25660  0.57850  0.59680  Biso   1.000  H
  B107     1.0000 0.27240  0.57980  0.76070  Biso   1.000  B
  H143     1.0000 0.26130  0.63020  0.77830  Biso   1.000  H
  B108     1.0000 0.04970  0.78710  0.79780  Biso   1.000  B
  H144     1.0000 0.02980  0.81970  0.75970  Biso   1.000  H
  B109     1.0000 0.15280  0.54850  0.44880  Biso   1.000  B
  H145     1.0000 0.17680  0.57890  0.47440  Biso   1.000  H
  B110     1.0000 0.31180  0.57420  0.70540  Biso   1.000  B
  H146     1.0000 0.32490  0.62270  0.68810  Biso   1.000  H
  B111     1.0000 0.10390  0.57850  0.44990  Biso   1.000  B
  H147     1.0000 0.09690  0.62870  0.47680  Biso   1.000  H
  B112     1.0000 0.07860  0.54610  0.35820  Biso   1.000  B
  H148     1.0000 0.05510  0.57580  0.32800  Biso   1.000  H
  B113     1.0000 0.31510  0.54530  0.81150  Biso   1.000  B
  H149     1.0000 0.33030  0.57440  0.86270  Biso   1.000  H
  B114     1.0000 0.12480  0.57560  0.35650  Biso   1.000  B
  H150     1.0000 0.13110  0.62440  0.32540  Biso   1.000  H
  Sn6      1.0000 0.10548  0.63770  0.79070  Biso   1.000  Sn
  Ag6      1.0000 0.15798  0.57360  0.70294  Biso   1.000  Ag
  N13      1.0000 0.28881  0.86180  0.07110  Biso   1.000  N
  N14      1.0000 0.29700  0.18490  0.39990  Biso   1.000  N
  C61      1.0000 0.44740  0.06300  0.91900  Biso   1.000  C
  H151     1.0000 0.43840  0.10450  0.93830  Biso   1.000  H
  C62      1.0000 0.47330  0.06250  0.86260  Biso   1.000  C
  H152     1.0000 0.48230  0.10400  0.84310  Biso   1.000  H
  C63      1.0000 0.30560  0.90860  0.09600  Biso   1.000  C
  C64      1.0000 0.31500  0.15460  0.35990  Biso   1.000  C
  B115     1.0000 0.43660  0.15840  0.11220  Biso   1.000  B
  H153     1.0000 0.44750  0.10890  0.09120  Biso   1.000  H
  C65      1.0000 0.23170  0.79960  0.04300  Biso   1.000  C
  H154     1.0000 0.21990  0.83330  0.07210  Biso   1.000  H
  C66      1.0000 0.26920  0.80410  0.03550  Biso   1.000  C
  B116     1.0000 0.38900  0.18900  0.07620  Biso   1.000  B
  H155     1.0000 0.36970  0.15950  0.03250  Biso   1.000  H
  C67      1.0000 0.28780  0.75540  0.99320  Biso   1.000  C
  H156     1.0000 0.31300  0.75960  0.98930  Biso   1.000  H
  C68      1.0000 0.27330  0.21810  0.45150  Biso   1.000  C
  C69      1.0000 0.28590  0.23590  0.53130  Biso   1.000  C
  H157     1.0000 0.31010  0.22630  0.55170  Biso   1.000  H
  B117     1.0000 0.37340  0.24580  0.16020  Biso   1.000  B
  H158     1.0000 0.34420  0.25240  0.17010  Biso   1.000  H
  B118     1.0000 0.41160  0.25100  0.24640  Biso   1.000  B
  H159     1.0000 0.40670  0.26140  0.31170  Biso   1.000  H
  C70      1.0000 0.23750  0.23170  0.41830  Biso   1.000  C
  H160     1.0000 0.22940  0.21940  0.36360  Biso   1.000  H
  B119     1.0000 0.42870  0.22860  0.04210  Biso   1.000  B
  H161     1.0000 0.43440  0.22310  0.97650  Biso   1.000  H
  B120     1.0000 0.45090  0.19610  0.21770  Biso   1.000  B
  H162     1.0000 0.47080  0.17150  0.26450  Biso   1.000  H
  B121     1.0000 0.39140  0.27940  0.07100  Biso   1.000  B
  H163     1.0000 0.37290  0.30690  0.02390  Biso   1.000  H
  B122     1.0000 0.46500  0.23210  0.12470  Biso   1.000  B
  H164     1.0000 0.49410  0.22830  0.11300  Biso   1.000  H
  B123     1.0000 0.40420  0.31610  0.17120  Biso   1.000  B
  H165     1.0000 0.39410  0.36700  0.18980  Biso   1.000  H
  B124     1.0000 0.43770  0.30700  0.09680  Biso   1.000  B
  H166     1.0000 0.44920  0.35240  0.06690  Biso   1.000  H
  B125     1.0000 0.23040  0.04810  0.35040  Biso   1.000  B
  H167     1.0000 0.24340  0.07850  0.40320  Biso   1.000  H
  B126     1.0000 0.22760  0.07980  0.23930  Biso   1.000  B
  H168     1.0000 0.23870  0.13020  0.22170  Biso   1.000  H
  B127     1.0000 0.45030  0.28710  0.20220  Biso   1.000  B
  H169     1.0000 0.47020  0.31970  0.24030  Biso   1.000  H
  B128     1.0000 0.34720  0.04850  0.55120  Biso   1.000  B
  H170     1.0000 0.32320  0.07890  0.52560  Biso   1.000  H
  B129     1.0000 0.18820  0.07420  0.29460  Biso   1.000  B
  H171     1.0000 0.17510  0.12270  0.31190  Biso   1.000  H
  B130     1.0000 0.39610  0.07850  0.55010  Biso   1.000  B
  H172     1.0000 0.40310  0.12870  0.52320  Biso   1.000  H
  B131     1.0000 0.42140  0.04610  0.64180  Biso   1.000  B
  H173     1.0000 0.44490  0.07580  0.67200  Biso   1.000  H
  B132     1.0000 0.18490  0.04530  0.18850  Biso   1.000  B
  H174     1.0000 0.16970  0.07440  0.13730  Biso   1.000  H
  B133     1.0000 0.37520  0.07560  0.64350  Biso   1.000  B
  H175     1.0000 0.36890  0.12440  0.67460  Biso   1.000  H
  Sn7      1.0000 0.39452  0.13770  0.20930  Biso   1.000  Sn
  Ag7      1.0000 0.34202  0.07360  0.29706  Biso   1.000  Ag
  N15      1.0000 0.78881  0.36180  0.07110  Biso   1.000  N
  N16      1.0000 0.79700  0.68490  0.39990  Biso   1.000  N
  C71      1.0000 0.94740  0.56300  0.91900  Biso   1.000  C
  H176     1.0000 0.93840  0.60450  0.93830  Biso   1.000  H
  C72      1.0000 0.97330  0.56250  0.86260  Biso   1.000  C
  H177     1.0000 0.98230  0.60400  0.84310  Biso   1.000  H
  C73      1.0000 0.80560  0.40860  0.09600  Biso   1.000  C
  C74      1.0000 0.81500  0.65460  0.35990  Biso   1.000  C
  B134     1.0000 0.93660  0.65840  0.11220  Biso   1.000  B
  H178     1.0000 0.94750  0.60890  0.09120  Biso   1.000  H
  C75      1.0000 0.73170  0.29960  0.04300  Biso   1.000  C
  H179     1.0000 0.71990  0.33330  0.07210  Biso   1.000  H
  C76      1.0000 0.76920  0.30410  0.03550  Biso   1.000  C
  B135     1.0000 0.88900  0.68900  0.07620  Biso   1.000  B
  H180     1.0000 0.86970  0.65950  0.03250  Biso   1.000  H
  C77      1.0000 0.78780  0.25540  0.99320  Biso   1.000  C
  H181     1.0000 0.81300  0.25960  0.98930  Biso   1.000  H
  C78      1.0000 0.77330  0.71810  0.45150  Biso   1.000  C
  C79      1.0000 0.78590  0.73590  0.53130  Biso   1.000  C
  H182     1.0000 0.81010  0.72630  0.55170  Biso   1.000  H
  B136     1.0000 0.87340  0.74580  0.16020  Biso   1.000  B
  H183     1.0000 0.84420  0.75240  0.17010  Biso   1.000  H
  B137     1.0000 0.91160  0.75100  0.24640  Biso   1.000  B
  H184     1.0000 0.90670  0.76140  0.31170  Biso   1.000  H
  C80      1.0000 0.73750  0.73170  0.41830  Biso   1.000  C
  H185     1.0000 0.72940  0.71940  0.36360  Biso   1.000  H
  B138     1.0000 0.92870  0.72860  0.04210  Biso   1.000  B
  H186     1.0000 0.93440  0.72310  0.97650  Biso   1.000  H
  B139     1.0000 0.95090  0.69610  0.21770  Biso   1.000  B
  H187     1.0000 0.97080  0.67150  0.26450  Biso   1.000  H
  B140     1.0000 0.89140  0.77940  0.07100  Biso   1.000  B
  H188     1.0000 0.87290  0.80690  0.02390  Biso   1.000  H
  B141     1.0000 0.96500  0.73210  0.12470  Biso   1.000  B
  H189     1.0000 0.99410  0.72830  0.11300  Biso   1.000  H
  B142     1.0000 0.90420  0.81610  0.17120  Biso   1.000  B
  H190     1.0000 0.89410  0.86700  0.18980  Biso   1.000  H
  B143     1.0000 0.93770  0.80700  0.09680  Biso   1.000  B
  H191     1.0000 0.94920  0.85240  0.06690  Biso   1.000  H
  B144     1.0000 0.73040  0.54810  0.35040  Biso   1.000  B
  H192     1.0000 0.74340  0.57850  0.40320  Biso   1.000  H
  B145     1.0000 0.72760  0.57980  0.23930  Biso   1.000  B
  H193     1.0000 0.73870  0.63020  0.22170  Biso   1.000  H
  B146     1.0000 0.95030  0.78710  0.20220  Biso   1.000  B
  H194     1.0000 0.97020  0.81970  0.24030  Biso   1.000  H
  B147     1.0000 0.84720  0.54850  0.55120  Biso   1.000  B
  H195     1.0000 0.82320  0.57890  0.52560  Biso   1.000  H
  B148     1.0000 0.68820  0.57420  0.29460  Biso   1.000  B
  H196     1.0000 0.67510  0.62270  0.31190  Biso   1.000  H
  B149     1.0000 0.89610  0.57850  0.55010  Biso   1.000  B
  H197     1.0000 0.90310  0.62870  0.52320  Biso   1.000  H
  B150     1.0000 0.92140  0.54610  0.64180  Biso   1.000  B
  H198     1.0000 0.94490  0.57580  0.67200  Biso   1.000  H
  B151     1.0000 0.68490  0.54530  0.18850  Biso   1.000  B
  H199     1.0000 0.66970  0.57440  0.13730  Biso   1.000  H
  B152     1.0000 0.87520  0.57560  0.64350  Biso   1.000  B
  H200     1.0000 0.86890  0.62440  0.67460  Biso   1.000  H
  Sn8      1.0000 0.89452  0.63770  0.20930  Biso   1.000  Sn
  Ag8      1.0000 0.84202  0.57360  0.29706  Biso   1.000  Ag
  N17      1.0000 0.51360  0.00000  0.78040  Biso   1.000  N
  N18      1.0000 0.40750  0.00000  0.00360  Biso   1.000  N
  C81      1.0000 0.48600  0.00000  0.83520  Biso   1.000  C
  C82      1.0000 0.53790  0.00000  0.74190  Biso   1.000  C
  C83      1.0000 0.43490  0.00000  0.94600  Biso   1.000  C
  C84      1.0000 0.38630  0.00000  0.05080  Biso   1.000  C
  B153     1.0000 0.22520  0.00000  0.16870  Biso   1.000  B
  H201     1.0000 0.23500  0.00000  0.10610  Biso   1.000  H
  B154     1.0000 0.42630  0.00000  0.54940  Biso   1.000  B
  H202     1.0000 0.45270  0.00000  0.52190  Biso   1.000  H
  B155     1.0000 0.18970  0.00000  0.36010  Biso   1.000  B
  H203     1.0000 0.17740  0.00000  0.41990  Biso   1.000  H
  B156     1.0000 0.34660  0.00000  0.64470  Biso   1.000  B
  H204     1.0000 0.32150  0.00000  0.67760  Biso   1.000  H
  B157     1.0000 0.16230  0.00000  0.26400  Biso   1.000  B
  H205     1.0000 0.13210  0.00000  0.26230  Biso   1.000  H
  B158     1.0000 0.39040  0.00000  0.70020  Biso   1.000  B
  H206     1.0000 0.39350  0.00000  0.76900  Biso   1.000  H
  Sn9      1.0000 0.27478  0.00000  0.27372  Biso   1.000  Sn
  Ag9      1.0000 0.34002  0.00000  0.12831  Biso   1.000  Ag
  Ag10     1.0000 0.40530  0.00000  0.28158  Biso   1.000  Ag
  Sn10     1.0000 0.37771  0.00000  0.44427  Biso   1.000  Sn
  N19      1.0000 0.01360  0.50000  0.78040  Biso   1.000  N
  N20      1.0000 0.90750  0.50000  0.00360  Biso   1.000  N
  C85      1.0000 0.98600  0.50000  0.83520  Biso   1.000  C
  C86      1.0000 0.03790  0.50000  0.74190  Biso   1.000  C
  C87      1.0000 0.93490  0.50000  0.94600  Biso   1.000  C
  C88      1.0000 0.88630  0.50000  0.05080  Biso   1.000  C
  B159     1.0000 0.72520  0.50000  0.16870  Biso   1.000  B
  H207     1.0000 0.73500  0.50000  0.10610  Biso   1.000  H
  B160     1.0000 0.92630  0.50000  0.54940  Biso   1.000  B
  H208     1.0000 0.95270  0.50000  0.52190  Biso   1.000  H
  B161     1.0000 0.68970  0.50000  0.36010  Biso   1.000  B
  H209     1.0000 0.67740  0.50000  0.41990  Biso   1.000  H
  B162     1.0000 0.84660  0.50000  0.64470  Biso   1.000  B
  H210     1.0000 0.82150  0.50000  0.67760  Biso   1.000  H
  B163     1.0000 0.66230  0.50000  0.26400  Biso   1.000  B
  H211     1.0000 0.63210  0.50000  0.26230  Biso   1.000  H
  B164     1.0000 0.89040  0.50000  0.70020  Biso   1.000  B
  H212     1.0000 0.89350  0.50000  0.76900  Biso   1.000  H
  Sn11     1.0000 0.77478  0.50000  0.27372  Biso   1.000  Sn
  Ag11     1.0000 0.84002  0.50000  0.12831  Biso   1.000  Ag
  Ag12     1.0000 0.90530  0.50000  0.28158  Biso   1.000  Ag
  Sn12     1.0000 0.87771  0.50000  0.44427  Biso   1.000  Sn
  N21      1.0000 0.48640  0.00000  0.21960  Biso   1.000  N
  N22      1.0000 0.59250  0.00000  0.99640  Biso   1.000  N
  C89      1.0000 0.51400  0.00000  0.16480  Biso   1.000  C
  C90      1.0000 0.46210  0.00000  0.25810  Biso   1.000  C
  C91      1.0000 0.56510  0.00000  0.05400  Biso   1.000  C
  C92      1.0000 0.61370  0.00000  0.94920  Biso   1.000  C
  B165     1.0000 0.77480  0.00000  0.83130  Biso   1.000  B
  H213     1.0000 0.76500  0.00000  0.89390  Biso   1.000  H
  B166     1.0000 0.57370  0.00000  0.45060  Biso   1.000  B
  H214     1.0000 0.54730  0.00000  0.47810  Biso   1.000  H
  B167     1.0000 0.81030  0.00000  0.63990  Biso   1.000  B
  H215     1.0000 0.82260  0.00000  0.58010  Biso   1.000  H
  B168     1.0000 0.65340  0.00000  0.35530  Biso   1.000  B
  H216     1.0000 0.67850  0.00000  0.32240  Biso   1.000  H
  B169     1.0000 0.83770  0.00000  0.73600  Biso   1.000  B
  H217     1.0000 0.86790  0.00000  0.73770  Biso   1.000  H
  B170     1.0000 0.60960  0.00000  0.29980  Biso   1.000  B
  H218     1.0000 0.60650  0.00000  0.23100  Biso   1.000  H
  Sn13     1.0000 0.72522  0.00000  0.72628  Biso   1.000  Sn
  Ag13     1.0000 0.65998  0.00000  0.87169  Biso   1.000  Ag
  Ag14     1.0000 0.59470  0.00000  0.71842  Biso   1.000  Ag
  Sn14     1.0000 0.62229  0.00000  0.55573  Biso   1.000  Sn
  N23      1.0000 0.98640  0.50000  0.21960  Biso   1.000  N
  N24      1.0000 0.09250  0.50000  0.99640  Biso   1.000  N
  C93      1.0000 0.01400  0.50000  0.16480  Biso   1.000  C
  C94      1.0000 0.96210  0.50000  0.25810  Biso   1.000  C
  C95      1.0000 0.06510  0.50000  0.05400  Biso   1.000  C
  C96      1.0000 0.11370  0.50000  0.94920  Biso   1.000  C
  B171     1.0000 0.27480  0.50000  0.83130  Biso   1.000  B
  H219     1.0000 0.26500  0.50000  0.89390  Biso   1.000  H
  B172     1.0000 0.07370  0.50000  0.45060  Biso   1.000  B
  H220     1.0000 0.04730  0.50000  0.47810  Biso   1.000  H
  B173     1.0000 0.31030  0.50000  0.63990  Biso   1.000  B
  H221     1.0000 0.32260  0.50000  0.58010  Biso   1.000  H
  B174     1.0000 0.15340  0.50000  0.35530  Biso   1.000  B
  H222     1.0000 0.17850  0.50000  0.32240  Biso   1.000  H
  B175     1.0000 0.33770  0.50000  0.73600  Biso   1.000  B
  H223     1.0000 0.36790  0.50000  0.73770  Biso   1.000  H
  B176     1.0000 0.10960  0.50000  0.29980  Biso   1.000  B
  H224     1.0000 0.10650  0.50000  0.23100  Biso   1.000  H
  Sn15     1.0000 0.22522  0.50000  0.72628  Biso   1.000  Sn
  Ag15     1.0000 0.15998  0.50000  0.87169  Biso   1.000  Ag
  Ag16     1.0000 0.09470  0.50000  0.71842  Biso   1.000  Ag
  Sn16     1.0000 0.12229  0.50000  0.55573  Biso   1.000  Sn
