data_image0
_cell_length_a       9.178
_cell_length_b       11.148
_cell_length_c       14.337
_cell_angle_alpha    88.191
_cell_angle_beta     78.882
_cell_angle_gamma    77.968

_symmetry_space_group_name_H-M    "P 1"
_symmetry_int_tables_number       1

loop_
  _symmetry_equiv_pos_as_xyz
  'x, y, z'

loop_
  _atom_site_label
  _atom_site_occupancy
  _atom_site_fract_x
  _atom_site_fract_y
  _atom_site_fract_z
  _atom_site_thermal_displace_type
  _atom_site_B_iso_or_equiv
  _atom_site_type_symbol
  Ag1      1.0000 0.04670  0.98810  0.38924  Biso   1.000  Ag
  Ag2      1.0000 0.10812  0.16679  0.25114  Biso   1.000  Ag
  Ag3      1.0000 0.10886  0.97357  0.06015  Biso   1.000  Ag
  Ag4      1.0000 0.30238  0.00273  0.49535  Biso   1.000  Ag
  C1       1.0000 0.31850  0.90640  0.23150  Biso   1.000  C
  C2       1.0000 0.46220  0.82450  0.18160  Biso   1.000  C
  C3       1.0000 0.54390  0.73510  0.23250  Biso   1.000  C
  H1       1.0000 0.50920  0.72610  0.29720  Biso   1.000  H
  C4       1.0000 0.67630  0.65990  0.18730  Biso   1.000  C
  H2       1.0000 0.73050  0.60120  0.22210  Biso   1.000  H
  C5       1.0000 0.51350  0.83510  0.08610  Biso   1.000  C
  H3       1.0000 0.45900  0.89390  0.05160  Biso   1.000  H
  C6       1.0000 0.64630  0.75880  0.04020  Biso   1.000  C
  H4       1.0000 0.67950  0.76680  0.97530  Biso   1.000  H
  C7       1.0000 0.72980  0.67060  0.09080  Biso   1.000  C
  C8       1.0000 0.87020  0.58600  0.04310  Biso   1.000  C
  C9       1.0000 0.87750  0.46010  0.05070  Biso   1.000  C
  H5       1.0000 0.79430  0.43270  0.08550  Biso   1.000  H
  C10      1.0000 0.99710  0.62580  0.99100  Biso   1.000  C
  C11      1.0000 0.00640  0.75970  0.98620  Biso   1.000  C
  C12      1.0000 0.79410  0.23090  0.37780  Biso   1.000  C
  C13      1.0000 0.63340  0.29960  0.41070  Biso   1.000  C
  C14      1.0000 0.54730  0.27170  0.49530  Biso   1.000  C
  H6       1.0000 0.59260  0.21790  0.53730  Biso   1.000  H
  C15      1.0000 0.39420  0.32300  0.51800  Biso   1.000  C
  H7       1.0000 0.33730  0.30250  0.57500  Biso   1.000  H
  C16      1.0000 0.56710  0.38680  0.35250  Biso   1.000  C
  H8       1.0000 0.62530  0.40980  0.29700  Biso   1.000  H
  C17      1.0000 0.41380  0.44010  0.37670  Biso   1.000  C
  H9       1.0000 0.37080  0.50070  0.33820  Biso   1.000  H
  C18      1.0000 0.32440  0.40430  0.45730  Biso   1.000  C
  C19      1.0000 0.15770  0.45250  0.47790  Biso   1.000  C
  C20      1.0000 0.05580  0.37380  0.50170  Biso   1.000  C
  C21      1.0000 0.90070  0.42230  0.52350  Biso   1.000  C
  H10      1.0000 0.83410  0.36920  0.53960  Biso   1.000  H
  C22      1.0000 0.10800  0.23640  0.50140  Biso   1.000  C
  O1       1.0000 0.27330  0.88640  0.31710  Biso   1.000  O
  O2       1.0000 0.25540  0.99050  0.18290  Biso   1.000  O
  O3       1.0000 0.09630  0.78880  0.03070  Biso   1.000  O
  O4       1.0000 0.92930  0.82840  0.93820  Biso   1.000  O
  O5       1.0000 0.83940  0.13740  0.42510  Biso   1.000  O
  O6       1.0000 0.87000  0.26680  0.30580  Biso   1.000  O
  O7       1.0000 0.07060  0.18330  0.57760  Biso   1.000  O
  O8       1.0000 0.18620  0.18490  0.42730  Biso   1.000  O
  Ag5      1.0000 0.95330  0.01190  0.61076  Biso   1.000  Ag
  Ag6      1.0000 0.89188  0.83321  0.74886  Biso   1.000  Ag
  Ag7      1.0000 0.89114  0.02643  0.93985  Biso   1.000  Ag
  Ag8      1.0000 0.69762  0.99727  0.50465  Biso   1.000  Ag
  C23      1.0000 0.68150  0.09360  0.76850  Biso   1.000  C
  C24      1.0000 0.53780  0.17550  0.81840  Biso   1.000  C
  C25      1.0000 0.45610  0.26490  0.76750  Biso   1.000  C
  H11      1.0000 0.49080  0.27390  0.70280  Biso   1.000  H
  C26      1.0000 0.32370  0.34010  0.81270  Biso   1.000  C
  H12      1.0000 0.26950  0.39880  0.77790  Biso   1.000  H
  C27      1.0000 0.48650  0.16490  0.91390  Biso   1.000  C
  H13      1.0000 0.54100  0.10610  0.94840  Biso   1.000  H
  C28      1.0000 0.35370  0.24120  0.95980  Biso   1.000  C
  H14      1.0000 0.32050  0.23320  0.02470  Biso   1.000  H
  C29      1.0000 0.27020  0.32940  0.90920  Biso   1.000  C
  C30      1.0000 0.12980  0.41400  0.95690  Biso   1.000  C
  C31      1.0000 0.12250  0.53990  0.94930  Biso   1.000  C
  H15      1.0000 0.20570  0.56730  0.91450  Biso   1.000  H
  C32      1.0000 0.00290  0.37420  0.00900  Biso   1.000  C
  C33      1.0000 0.99360  0.24030  0.01380  Biso   1.000  C
  C34      1.0000 0.20590  0.76910  0.62220  Biso   1.000  C
  C35      1.0000 0.36660  0.70040  0.58930  Biso   1.000  C
  C36      1.0000 0.45270  0.72830  0.50470  Biso   1.000  C
  H16      1.0000 0.40740  0.78210  0.46270  Biso   1.000  H
  C37      1.0000 0.60580  0.67700  0.48200  Biso   1.000  C
  H17      1.0000 0.66270  0.69750  0.42500  Biso   1.000  H
  C38      1.0000 0.43290  0.61320  0.64750  Biso   1.000  C
  H18      1.0000 0.37470  0.59020  0.70300  Biso   1.000  H
  C39      1.0000 0.58620  0.55990  0.62330  Biso   1.000  C
  H19      1.0000 0.62920  0.49930  0.66180  Biso   1.000  H
  C40      1.0000 0.67560  0.59570  0.54270  Biso   1.000  C
  C41      1.0000 0.84230  0.54750  0.52210  Biso   1.000  C
  C42      1.0000 0.94420  0.62620  0.49830  Biso   1.000  C
  C43      1.0000 0.09930  0.57770  0.47650  Biso   1.000  C
  H20      1.0000 0.16590  0.63080  0.46040  Biso   1.000  H
  C44      1.0000 0.89200  0.76360  0.49860  Biso   1.000  C
  O9       1.0000 0.72670  0.11360  0.68290  Biso   1.000  O
  O10      1.0000 0.74460  0.00950  0.81710  Biso   1.000  O
  O11      1.0000 0.90370  0.21120  0.96930  Biso   1.000  O
  O12      1.0000 0.07070  0.17160  0.06180  Biso   1.000  O
  O13      1.0000 0.16060  0.86260  0.57490  Biso   1.000  O
  O14      1.0000 0.13000  0.73320  0.69420  Biso   1.000  O
  O15      1.0000 0.92940  0.81670  0.42240  Biso   1.000  O
  O16      1.0000 0.81380  0.81510  0.57270  Biso   1.000  O
