data_UMARAC_charged
_audit_creation_date              2014-07-02
_audit_creation_method            'Materials Studio'
_symmetry_space_group_name_H-M    'P1'
_symmetry_Int_Tables_number       1
_symmetry_cell_setting            triclinic
loop_
_symmetry_equiv_pos_as_xyz
  x,y,z
_cell_length_a                    22.6467
_cell_length_b                    22.6467
_cell_length_c                    22.6467
_cell_angle_alpha                 90.0000
_cell_angle_beta                  90.0000
_cell_angle_gamma                 90.0000
loop_
_atom_site_label
_atom_site_type_symbol
_atom_site_fract_x
_atom_site_fract_y
_atom_site_fract_z
_atom_site_U_iso_or_equiv
_atom_site_adp_type
_atom_site_occupancy
Cd1    Cd    0.00000   0.00000   0.50000   0.01267  Uiso   1.00
Cd2    Cd    0.50000   0.00000   0.00000   0.01267  Uiso   1.00
Cd3    Cd    0.00000   0.50000   0.00000   0.01267  Uiso   1.00
Cd4    Cd    0.50000   0.50000   0.50000   0.01267  Uiso   1.00
Cu1    Cu    0.90376   0.40254   0.49787   0.01267  Uiso   1.00
Cu2    Cu    0.59624   0.59746   0.99787   0.01267  Uiso   1.00
Cu3    Cu    0.09624   0.90254   0.00213   0.01267  Uiso   1.00
Cu4    Cu    0.40376   0.09746   0.50213   0.01267  Uiso   1.00
Cu5    Cu    0.49787   0.90376   0.40254   0.01267  Uiso   1.00
Cu6    Cu    0.99787   0.59624   0.59746   0.01267  Uiso   1.00
Cu7    Cu    0.00213   0.09624   0.90254   0.01267  Uiso   1.00
Cu8    Cu    0.50213   0.40376   0.09746   0.01267  Uiso   1.00
Cu9    Cu    0.40254   0.49787   0.90376   0.01267  Uiso   1.00
Cu10   Cu    0.59746   0.99787   0.59624   0.01267  Uiso   1.00
Cu11   Cu    0.90254   0.00213   0.09624   0.01267  Uiso   1.00
Cu12   Cu    0.09746   0.50213   0.40376   0.01267  Uiso   1.00
Cu13   Cu    0.09624   0.59746   0.50213   0.01267  Uiso   1.00
Cu14   Cu    0.40376   0.40254   0.00213   0.01267  Uiso   1.00
Cu15   Cu    0.90376   0.09746   0.99787   0.01267  Uiso   1.00
Cu16   Cu    0.59624   0.90254   0.49787   0.01267  Uiso   1.00
Cu17   Cu    0.50213   0.09624   0.59746   0.01267  Uiso   1.00
Cu18   Cu    0.00213   0.40376   0.40254   0.01267  Uiso   1.00
Cu19   Cu    0.99787   0.90376   0.09746   0.01267  Uiso   1.00
Cu20   Cu    0.49787   0.59624   0.90254   0.01267  Uiso   1.00
Cu21   Cu    0.59746   0.50213   0.09624   0.01267  Uiso   1.00
Cu22   Cu    0.40254   0.00213   0.40376   0.01267  Uiso   1.00
Cu23   Cu    0.09746   0.99787   0.90376   0.01267  Uiso   1.00
Cu24   Cu    0.90254   0.49787   0.59624   0.01267  Uiso   1.00
H1     H     0.90330   0.06000   0.90020   0.01267  Uiso   1.00
H2     H     0.91910   0.29630   0.60440   0.01267  Uiso   1.00
H3     H     0.92960   0.22860   0.59030   0.01267  Uiso   1.00
H4     H     0.87830   0.26340   0.55800   0.01267  Uiso   1.00
H5     H     0.07140   0.27750   0.37850   0.01267  Uiso   1.00
H6     H     0.09310   0.22900   0.42390   0.01267  Uiso   1.00
H7     H     0.11560   0.29500   0.42990   0.01267  Uiso   1.00
H8     H     0.95860   0.14050   0.48070   0.01267  Uiso   1.00
H9     H     0.09670   0.20080   0.57000   0.01267  Uiso   1.00
H10    H     0.59670   0.94000   0.40020   0.01267  Uiso   1.00
H11    H     0.58090   0.70370   0.10440   0.01267  Uiso   1.00
H12    H     0.57040   0.77140   0.09030   0.01267  Uiso   1.00
H13    H     0.62170   0.73660   0.05800   0.01267  Uiso   1.00
H14    H     0.42860   0.72250   0.87850   0.01267  Uiso   1.00
H15    H     0.40690   0.77100   0.92390   0.01267  Uiso   1.00
H16    H     0.38440   0.70500   0.92990   0.01267  Uiso   1.00
H17    H     0.54140   0.85950   0.98070   0.01267  Uiso   1.00
H18    H     0.40330   0.79920   0.07000   0.01267  Uiso   1.00
H19    H     0.09670   0.56000   0.59980   0.01267  Uiso   1.00
H20    H     0.08090   0.79630   0.89560   0.01267  Uiso   1.00
H21    H     0.07040   0.72860   0.90970   0.01267  Uiso   1.00
H22    H     0.12170   0.76340   0.94200   0.01267  Uiso   1.00
H23    H     0.92860   0.77750   0.12150   0.01267  Uiso   1.00
H24    H     0.90690   0.72900   0.07610   0.01267  Uiso   1.00
H25    H     0.88440   0.79500   0.07010   0.01267  Uiso   1.00
H26    H     0.04140   0.64050   0.01930   0.01267  Uiso   1.00
H27    H     0.90330   0.70080   0.93000   0.01267  Uiso   1.00
H28    H     0.40330   0.44000   0.09980   0.01267  Uiso   1.00
H29    H     0.41910   0.20370   0.39560   0.01267  Uiso   1.00
H30    H     0.42960   0.27140   0.40970   0.01267  Uiso   1.00
H31    H     0.37830   0.23660   0.44200   0.01267  Uiso   1.00
H32    H     0.57140   0.22250   0.62150   0.01267  Uiso   1.00
H33    H     0.59310   0.27100   0.57610   0.01267  Uiso   1.00
H34    H     0.61560   0.20500   0.57010   0.01267  Uiso   1.00
H35    H     0.45860   0.35950   0.51930   0.01267  Uiso   1.00
H36    H     0.59670   0.29920   0.43000   0.01267  Uiso   1.00
H37    H     0.90020   0.90330   0.06000   0.01267  Uiso   1.00
H38    H     0.60440   0.91910   0.29630   0.01267  Uiso   1.00
H39    H     0.59030   0.92960   0.22860   0.01267  Uiso   1.00
H40    H     0.55800   0.87830   0.26340   0.01267  Uiso   1.00
H41    H     0.37850   0.07140   0.27750   0.01267  Uiso   1.00
H42    H     0.42390   0.09310   0.22900   0.01267  Uiso   1.00
H43    H     0.42990   0.11560   0.29500   0.01267  Uiso   1.00
H44    H     0.48070   0.95860   0.14050   0.01267  Uiso   1.00
H45    H     0.57000   0.09670   0.20080   0.01267  Uiso   1.00
H46    H     0.40020   0.59670   0.94000   0.01267  Uiso   1.00
H47    H     0.10440   0.58090   0.70370   0.01267  Uiso   1.00
H48    H     0.09030   0.57040   0.77140   0.01267  Uiso   1.00
H49    H     0.05800   0.62170   0.73660   0.01267  Uiso   1.00
H50    H     0.87850   0.42860   0.72250   0.01267  Uiso   1.00
H51    H     0.92390   0.40690   0.77100   0.01267  Uiso   1.00
H52    H     0.92990   0.38440   0.70500   0.01267  Uiso   1.00
H53    H     0.98070   0.54140   0.85950   0.01267  Uiso   1.00
H54    H     0.07000   0.40330   0.79920   0.01267  Uiso   1.00
H55    H     0.59980   0.09670   0.56000   0.01267  Uiso   1.00
H56    H     0.89560   0.08090   0.79630   0.01267  Uiso   1.00
H57    H     0.90970   0.07040   0.72860   0.01267  Uiso   1.00
H58    H     0.94200   0.12170   0.76340   0.01267  Uiso   1.00
H59    H     0.12150   0.92860   0.77750   0.01267  Uiso   1.00
H60    H     0.07610   0.90690   0.72900   0.01267  Uiso   1.00
H61    H     0.07010   0.88440   0.79500   0.01267  Uiso   1.00
H62    H     0.01930   0.04140   0.64050   0.01267  Uiso   1.00
H63    H     0.93000   0.90330   0.70080   0.01267  Uiso   1.00
H64    H     0.09980   0.40330   0.44000   0.01267  Uiso   1.00
H65    H     0.39560   0.41910   0.20370   0.01267  Uiso   1.00
H66    H     0.40970   0.42960   0.27140   0.01267  Uiso   1.00
H67    H     0.44200   0.37830   0.23660   0.01267  Uiso   1.00
H68    H     0.62150   0.57140   0.22250   0.01267  Uiso   1.00
H69    H     0.57610   0.59310   0.27100   0.01267  Uiso   1.00
H70    H     0.57010   0.61560   0.20500   0.01267  Uiso   1.00
H71    H     0.51930   0.45860   0.35950   0.01267  Uiso   1.00
H72    H     0.43000   0.59670   0.29920   0.01267  Uiso   1.00
H73    H     0.06000   0.90020   0.90330   0.01267  Uiso   1.00
H74    H     0.29630   0.60440   0.91910   0.01267  Uiso   1.00
H75    H     0.22860   0.59030   0.92960   0.01267  Uiso   1.00
H76    H     0.26340   0.55800   0.87830   0.01267  Uiso   1.00
H77    H     0.27750   0.37850   0.07140   0.01267  Uiso   1.00
H78    H     0.22900   0.42390   0.09310   0.01267  Uiso   1.00
H79    H     0.29500   0.42990   0.11560   0.01267  Uiso   1.00
H80    H     0.14050   0.48070   0.95860   0.01267  Uiso   1.00
H81    H     0.20080   0.57000   0.09670   0.01267  Uiso   1.00
H82    H     0.94000   0.40020   0.59670   0.01267  Uiso   1.00
H83    H     0.70370   0.10440   0.58090   0.01267  Uiso   1.00
H84    H     0.77140   0.09030   0.57040   0.01267  Uiso   1.00
H85    H     0.73660   0.05800   0.62170   0.01267  Uiso   1.00
H86    H     0.72250   0.87850   0.42860   0.01267  Uiso   1.00
H87    H     0.77100   0.92390   0.40690   0.01267  Uiso   1.00
H88    H     0.70500   0.92990   0.38440   0.01267  Uiso   1.00
H89    H     0.85950   0.98070   0.54140   0.01267  Uiso   1.00
H90    H     0.79920   0.07000   0.40330   0.01267  Uiso   1.00
H91    H     0.56000   0.59980   0.09670   0.01267  Uiso   1.00
H92    H     0.79630   0.89560   0.08090   0.01267  Uiso   1.00
H93    H     0.72860   0.90970   0.07040   0.01267  Uiso   1.00
H94    H     0.76340   0.94200   0.12170   0.01267  Uiso   1.00
H95    H     0.77750   0.12150   0.92860   0.01267  Uiso   1.00
H96    H     0.72900   0.07610   0.90690   0.01267  Uiso   1.00
H97    H     0.79500   0.07010   0.88440   0.01267  Uiso   1.00
H98    H     0.64050   0.01930   0.04140   0.01267  Uiso   1.00
H99    H     0.70080   0.93000   0.90330   0.01267  Uiso   1.00
H100   H     0.44000   0.09980   0.40330   0.01267  Uiso   1.00
H101   H     0.20370   0.39560   0.41910   0.01267  Uiso   1.00
H102   H     0.27140   0.40970   0.42960   0.01267  Uiso   1.00
H103   H     0.23660   0.44200   0.37830   0.01267  Uiso   1.00
H104   H     0.22250   0.62150   0.57140   0.01267  Uiso   1.00
H105   H     0.27100   0.57610   0.59310   0.01267  Uiso   1.00
H106   H     0.20500   0.57010   0.61560   0.01267  Uiso   1.00
H107   H     0.35950   0.51930   0.45860   0.01267  Uiso   1.00
H108   H     0.29920   0.43000   0.59670   0.01267  Uiso   1.00
H109   H     0.09670   0.94000   0.09980   0.01267  Uiso   1.00
H110   H     0.08090   0.70370   0.39560   0.01267  Uiso   1.00
H111   H     0.07040   0.77140   0.40970   0.01267  Uiso   1.00
H112   H     0.12170   0.73660   0.44200   0.01267  Uiso   1.00
H113   H     0.92860   0.72250   0.62150   0.01267  Uiso   1.00
H114   H     0.90690   0.77100   0.57610   0.01267  Uiso   1.00
H115   H     0.88440   0.70500   0.57010   0.01267  Uiso   1.00
H116   H     0.04140   0.85950   0.51930   0.01267  Uiso   1.00
H117   H     0.90330   0.79920   0.43000   0.01267  Uiso   1.00
H118   H     0.40330   0.06000   0.59980   0.01267  Uiso   1.00
H119   H     0.41910   0.29630   0.89560   0.01267  Uiso   1.00
H120   H     0.42960   0.22860   0.90970   0.01267  Uiso   1.00
H121   H     0.37830   0.26340   0.94200   0.01267  Uiso   1.00
H122   H     0.57140   0.27750   0.12150   0.01267  Uiso   1.00
H123   H     0.59310   0.22900   0.07610   0.01267  Uiso   1.00
H124   H     0.61560   0.29500   0.07010   0.01267  Uiso   1.00
H125   H     0.45860   0.14050   0.01930   0.01267  Uiso   1.00
H126   H     0.59670   0.20080   0.93000   0.01267  Uiso   1.00
H127   H     0.90330   0.44000   0.40020   0.01267  Uiso   1.00
H128   H     0.91910   0.20370   0.10440   0.01267  Uiso   1.00
H129   H     0.92960   0.27140   0.09030   0.01267  Uiso   1.00
H130   H     0.87830   0.23660   0.05800   0.01267  Uiso   1.00
H131   H     0.07140   0.22250   0.87850   0.01267  Uiso   1.00
H132   H     0.09310   0.27100   0.92390   0.01267  Uiso   1.00
H133   H     0.11560   0.20500   0.92990   0.01267  Uiso   1.00
H134   H     0.95860   0.35950   0.98070   0.01267  Uiso   1.00
H135   H     0.09670   0.29920   0.07000   0.01267  Uiso   1.00
H136   H     0.59670   0.56000   0.90020   0.01267  Uiso   1.00
H137   H     0.58090   0.79630   0.60440   0.01267  Uiso   1.00
H138   H     0.57040   0.72860   0.59030   0.01267  Uiso   1.00
H139   H     0.62170   0.76340   0.55800   0.01267  Uiso   1.00
H140   H     0.42860   0.77750   0.37850   0.01267  Uiso   1.00
H141   H     0.40690   0.72900   0.42390   0.01267  Uiso   1.00
H142   H     0.38440   0.79500   0.42990   0.01267  Uiso   1.00
H143   H     0.54140   0.64050   0.48070   0.01267  Uiso   1.00
H144   H     0.40330   0.70080   0.57000   0.01267  Uiso   1.00
H145   H     0.09980   0.09670   0.94000   0.01267  Uiso   1.00
H146   H     0.39560   0.08090   0.70370   0.01267  Uiso   1.00
H147   H     0.40970   0.07040   0.77140   0.01267  Uiso   1.00
H148   H     0.44200   0.12170   0.73660   0.01267  Uiso   1.00
H149   H     0.62150   0.92860   0.72250   0.01267  Uiso   1.00
H150   H     0.57610   0.90690   0.77100   0.01267  Uiso   1.00
H151   H     0.57010   0.88440   0.70500   0.01267  Uiso   1.00
H152   H     0.51930   0.04140   0.85950   0.01267  Uiso   1.00
H153   H     0.43000   0.90330   0.79920   0.01267  Uiso   1.00
H154   H     0.59980   0.40330   0.06000   0.01267  Uiso   1.00
H155   H     0.89560   0.41910   0.29630   0.01267  Uiso   1.00
H156   H     0.90970   0.42960   0.22860   0.01267  Uiso   1.00
H157   H     0.94200   0.37830   0.26340   0.01267  Uiso   1.00
H158   H     0.12150   0.57140   0.27750   0.01267  Uiso   1.00
H159   H     0.07610   0.59310   0.22900   0.01267  Uiso   1.00
H160   H     0.07010   0.61560   0.29500   0.01267  Uiso   1.00
H161   H     0.01930   0.45860   0.14050   0.01267  Uiso   1.00
H162   H     0.93000   0.59670   0.20080   0.01267  Uiso   1.00
H163   H     0.40020   0.90330   0.44000   0.01267  Uiso   1.00
H164   H     0.10440   0.91910   0.20370   0.01267  Uiso   1.00
H165   H     0.09030   0.92960   0.27140   0.01267  Uiso   1.00
H166   H     0.05800   0.87830   0.23660   0.01267  Uiso   1.00
H167   H     0.87850   0.07140   0.22250   0.01267  Uiso   1.00
H168   H     0.92390   0.09310   0.27100   0.01267  Uiso   1.00
H169   H     0.92990   0.11560   0.20500   0.01267  Uiso   1.00
H170   H     0.98070   0.95860   0.35950   0.01267  Uiso   1.00
H171   H     0.07000   0.09670   0.29920   0.01267  Uiso   1.00
H172   H     0.90020   0.59670   0.56000   0.01267  Uiso   1.00
H173   H     0.60440   0.58090   0.79630   0.01267  Uiso   1.00
H174   H     0.59030   0.57040   0.72860   0.01267  Uiso   1.00
H175   H     0.55800   0.62170   0.76340   0.01267  Uiso   1.00
H176   H     0.37850   0.42860   0.77750   0.01267  Uiso   1.00
H177   H     0.42390   0.40690   0.72900   0.01267  Uiso   1.00
H178   H     0.42990   0.38440   0.79500   0.01267  Uiso   1.00
H179   H     0.48070   0.54140   0.64050   0.01267  Uiso   1.00
H180   H     0.57000   0.40330   0.70080   0.01267  Uiso   1.00
H181   H     0.94000   0.09980   0.09670   0.01267  Uiso   1.00
H182   H     0.70370   0.39560   0.08090   0.01267  Uiso   1.00
H183   H     0.77140   0.40970   0.07040   0.01267  Uiso   1.00
H184   H     0.73660   0.44200   0.12170   0.01267  Uiso   1.00
H185   H     0.72250   0.62150   0.92860   0.01267  Uiso   1.00
H186   H     0.77100   0.57610   0.90690   0.01267  Uiso   1.00
H187   H     0.70500   0.57010   0.88440   0.01267  Uiso   1.00
H188   H     0.85950   0.51930   0.04140   0.01267  Uiso   1.00
H189   H     0.79920   0.43000   0.90330   0.01267  Uiso   1.00
H190   H     0.06000   0.59980   0.40330   0.01267  Uiso   1.00
H191   H     0.29630   0.89560   0.41910   0.01267  Uiso   1.00
H192   H     0.22860   0.90970   0.42960   0.01267  Uiso   1.00
H193   H     0.26340   0.94200   0.37830   0.01267  Uiso   1.00
H194   H     0.27750   0.12150   0.57140   0.01267  Uiso   1.00
H195   H     0.22900   0.07610   0.59310   0.01267  Uiso   1.00
H196   H     0.29500   0.07010   0.61560   0.01267  Uiso   1.00
H197   H     0.14050   0.01930   0.45860   0.01267  Uiso   1.00
H198   H     0.20080   0.93000   0.59670   0.01267  Uiso   1.00
H199   H     0.44000   0.40020   0.90330   0.01267  Uiso   1.00
H200   H     0.20370   0.10440   0.91910   0.01267  Uiso   1.00
H201   H     0.27140   0.09030   0.92960   0.01267  Uiso   1.00
H202   H     0.23660   0.05800   0.87830   0.01267  Uiso   1.00
H203   H     0.22250   0.87850   0.07140   0.01267  Uiso   1.00
H204   H     0.27100   0.92390   0.09310   0.01267  Uiso   1.00
H205   H     0.20500   0.92990   0.11560   0.01267  Uiso   1.00
H206   H     0.35950   0.98070   0.95860   0.01267  Uiso   1.00
H207   H     0.29920   0.07000   0.09670   0.01267  Uiso   1.00
H208   H     0.56000   0.90020   0.59670   0.01267  Uiso   1.00
H209   H     0.79630   0.60440   0.58090   0.01267  Uiso   1.00
H210   H     0.72860   0.59030   0.57040   0.01267  Uiso   1.00
H211   H     0.76340   0.55800   0.62170   0.01267  Uiso   1.00
H212   H     0.77750   0.37850   0.42860   0.01267  Uiso   1.00
H213   H     0.72900   0.42390   0.40690   0.01267  Uiso   1.00
H214   H     0.79500   0.42990   0.38440   0.01267  Uiso   1.00
H215   H     0.64050   0.48070   0.54140   0.01267  Uiso   1.00
H216   H     0.70080   0.57000   0.40330   0.01267  Uiso   1.00
C1     C     0.91800   0.26630   0.57380   0.01267  Uiso   1.00
C2     C     0.95920   0.28260   0.52600   0.01267  Uiso   1.00
C3     C     0.00630   0.25120   0.50330   0.01267  Uiso   1.00
C4     C     0.03100   0.28410   0.45860   0.01267  Uiso   1.00
C5     C     0.08230   0.27010   0.41930   0.01267  Uiso   1.00
C6     C     0.99320   0.14220   0.50360   0.01267  Uiso   1.00
C7     C     0.06930   0.17460   0.55300   0.01267  Uiso   1.00
C8     C     0.58200   0.73370   0.07380   0.01267  Uiso   1.00
C9     C     0.54080   0.71740   0.02600   0.01267  Uiso   1.00
C10    C     0.49370   0.74880   0.00330   0.01267  Uiso   1.00
C11    C     0.46900   0.71590   0.95860   0.01267  Uiso   1.00
C12    C     0.41770   0.72990   0.91930   0.01267  Uiso   1.00
C13    C     0.50680   0.85780   0.00360   0.01267  Uiso   1.00
C14    C     0.43070   0.82540   0.05300   0.01267  Uiso   1.00
C15    C     0.08200   0.76630   0.92620   0.01267  Uiso   1.00
C16    C     0.04080   0.78260   0.97400   0.01267  Uiso   1.00
C17    C     0.99370   0.75120   0.99670   0.01267  Uiso   1.00
C18    C     0.96900   0.78410   0.04140   0.01267  Uiso   1.00
C19    C     0.91770   0.77010   0.08070   0.01267  Uiso   1.00
C20    C     0.00680   0.64220   0.99640   0.01267  Uiso   1.00
C21    C     0.93070   0.67460   0.94700   0.01267  Uiso   1.00
C22    C     0.41800   0.23370   0.42620   0.01267  Uiso   1.00
C23    C     0.45920   0.21740   0.47400   0.01267  Uiso   1.00
C24    C     0.50630   0.24880   0.49670   0.01267  Uiso   1.00
C25    C     0.53100   0.21590   0.54140   0.01267  Uiso   1.00
C26    C     0.58230   0.22990   0.58070   0.01267  Uiso   1.00
C27    C     0.49320   0.35780   0.49640   0.01267  Uiso   1.00
C28    C     0.56930   0.32540   0.44700   0.01267  Uiso   1.00
C29    C     0.57380   0.91800   0.26630   0.01267  Uiso   1.00
C30    C     0.52600   0.95920   0.28260   0.01267  Uiso   1.00
C31    C     0.50330   0.00630   0.25120   0.01267  Uiso   1.00
C32    C     0.45860   0.03100   0.28410   0.01267  Uiso   1.00
C33    C     0.41930   0.08230   0.27010   0.01267  Uiso   1.00
C34    C     0.50360   0.99320   0.14220   0.01267  Uiso   1.00
C35    C     0.55300   0.06930   0.17460   0.01267  Uiso   1.00
C36    C     0.07380   0.58200   0.73370   0.01267  Uiso   1.00
C37    C     0.02600   0.54080   0.71740   0.01267  Uiso   1.00
C38    C     0.00330   0.49370   0.74880   0.01267  Uiso   1.00
C39    C     0.95860   0.46900   0.71590   0.01267  Uiso   1.00
C40    C     0.91930   0.41770   0.72990   0.01267  Uiso   1.00
C41    C     0.00360   0.50680   0.85780   0.01267  Uiso   1.00
C42    C     0.05300   0.43070   0.82540   0.01267  Uiso   1.00
C43    C     0.92620   0.08200   0.76630   0.01267  Uiso   1.00
C44    C     0.97400   0.04080   0.78260   0.01267  Uiso   1.00
C45    C     0.99670   0.99370   0.75120   0.01267  Uiso   1.00
C46    C     0.04140   0.96900   0.78410   0.01267  Uiso   1.00
C47    C     0.08070   0.91770   0.77010   0.01267  Uiso   1.00
C48    C     0.99640   0.00680   0.64220   0.01267  Uiso   1.00
C49    C     0.94700   0.93070   0.67460   0.01267  Uiso   1.00
C50    C     0.42620   0.41800   0.23370   0.01267  Uiso   1.00
C51    C     0.47400   0.45920   0.21740   0.01267  Uiso   1.00
C52    C     0.49670   0.50630   0.24880   0.01267  Uiso   1.00
C53    C     0.54140   0.53100   0.21590   0.01267  Uiso   1.00
C54    C     0.58070   0.58230   0.22990   0.01267  Uiso   1.00
C55    C     0.49640   0.49320   0.35780   0.01267  Uiso   1.00
C56    C     0.44700   0.56930   0.32540   0.01267  Uiso   1.00
C57    C     0.26630   0.57380   0.91800   0.01267  Uiso   1.00
C58    C     0.28260   0.52600   0.95920   0.01267  Uiso   1.00
C59    C     0.25120   0.50330   0.00630   0.01267  Uiso   1.00
C60    C     0.28410   0.45860   0.03100   0.01267  Uiso   1.00
C61    C     0.27010   0.41930   0.08230   0.01267  Uiso   1.00
C62    C     0.14220   0.50360   0.99320   0.01267  Uiso   1.00
C63    C     0.17460   0.55300   0.06930   0.01267  Uiso   1.00
C64    C     0.73370   0.07380   0.58200   0.01267  Uiso   1.00
C65    C     0.71740   0.02600   0.54080   0.01267  Uiso   1.00
C66    C     0.74880   0.00330   0.49370   0.01267  Uiso   1.00
C67    C     0.71590   0.95860   0.46900   0.01267  Uiso   1.00
C68    C     0.72990   0.91930   0.41770   0.01267  Uiso   1.00
C69    C     0.85780   0.00360   0.50680   0.01267  Uiso   1.00
C70    C     0.82540   0.05300   0.43070   0.01267  Uiso   1.00
C71    C     0.76630   0.92620   0.08200   0.01267  Uiso   1.00
C72    C     0.78260   0.97400   0.04080   0.01267  Uiso   1.00
C73    C     0.75120   0.99670   0.99370   0.01267  Uiso   1.00
C74    C     0.78410   0.04140   0.96900   0.01267  Uiso   1.00
C75    C     0.77010   0.08070   0.91770   0.01267  Uiso   1.00
C76    C     0.64220   0.99640   0.00680   0.01267  Uiso   1.00
C77    C     0.67460   0.94700   0.93070   0.01267  Uiso   1.00
C78    C     0.23370   0.42620   0.41800   0.01267  Uiso   1.00
C79    C     0.21740   0.47400   0.45920   0.01267  Uiso   1.00
C80    C     0.24880   0.49670   0.50630   0.01267  Uiso   1.00
C81    C     0.21590   0.54140   0.53100   0.01267  Uiso   1.00
C82    C     0.22990   0.58070   0.58230   0.01267  Uiso   1.00
C83    C     0.35780   0.49640   0.49320   0.01267  Uiso   1.00
C84    C     0.32540   0.44700   0.56930   0.01267  Uiso   1.00
C85    C     0.08200   0.73370   0.42620   0.01267  Uiso   1.00
C86    C     0.04080   0.71740   0.47400   0.01267  Uiso   1.00
C87    C     0.99370   0.74880   0.49670   0.01267  Uiso   1.00
C88    C     0.96900   0.71590   0.54140   0.01267  Uiso   1.00
C89    C     0.91770   0.72990   0.58070   0.01267  Uiso   1.00
C90    C     0.00680   0.85780   0.49640   0.01267  Uiso   1.00
C91    C     0.93070   0.82540   0.44700   0.01267  Uiso   1.00
C92    C     0.41800   0.26630   0.92620   0.01267  Uiso   1.00
C93    C     0.45920   0.28260   0.97400   0.01267  Uiso   1.00
C94    C     0.50630   0.25120   0.99670   0.01267  Uiso   1.00
C95    C     0.53100   0.28410   0.04140   0.01267  Uiso   1.00
C96    C     0.58230   0.27010   0.08070   0.01267  Uiso   1.00
C97    C     0.49320   0.14220   0.99640   0.01267  Uiso   1.00
C98    C     0.56930   0.17460   0.94700   0.01267  Uiso   1.00
C99    C     0.91800   0.23370   0.07380   0.01267  Uiso   1.00
C100   C     0.95920   0.21740   0.02600   0.01267  Uiso   1.00
C101   C     0.00630   0.24880   0.00330   0.01267  Uiso   1.00
C102   C     0.03100   0.21590   0.95860   0.01267  Uiso   1.00
C103   C     0.08230   0.22990   0.91930   0.01267  Uiso   1.00
C104   C     0.99320   0.35780   0.00360   0.01267  Uiso   1.00
C105   C     0.06930   0.32540   0.05300   0.01267  Uiso   1.00
C106   C     0.58200   0.76630   0.57380   0.01267  Uiso   1.00
C107   C     0.54080   0.78260   0.52600   0.01267  Uiso   1.00
C108   C     0.49370   0.75120   0.50330   0.01267  Uiso   1.00
C109   C     0.46900   0.78410   0.45860   0.01267  Uiso   1.00
C110   C     0.41770   0.77010   0.41930   0.01267  Uiso   1.00
C111   C     0.50680   0.64220   0.50360   0.01267  Uiso   1.00
C112   C     0.43070   0.67460   0.55300   0.01267  Uiso   1.00
C113   C     0.42620   0.08200   0.73370   0.01267  Uiso   1.00
C114   C     0.47400   0.04080   0.71740   0.01267  Uiso   1.00
C115   C     0.49670   0.99370   0.74880   0.01267  Uiso   1.00
C116   C     0.54140   0.96900   0.71590   0.01267  Uiso   1.00
C117   C     0.58070   0.91770   0.72990   0.01267  Uiso   1.00
C118   C     0.49640   0.00680   0.85780   0.01267  Uiso   1.00
C119   C     0.44700   0.93070   0.82540   0.01267  Uiso   1.00
C120   C     0.92620   0.41800   0.26630   0.01267  Uiso   1.00
C121   C     0.97400   0.45920   0.28260   0.01267  Uiso   1.00
C122   C     0.99670   0.50630   0.25120   0.01267  Uiso   1.00
C123   C     0.04140   0.53100   0.28410   0.01267  Uiso   1.00
C124   C     0.08070   0.58230   0.27010   0.01267  Uiso   1.00
C125   C     0.99640   0.49320   0.14220   0.01267  Uiso   1.00
C126   C     0.94700   0.56930   0.17460   0.01267  Uiso   1.00
C127   C     0.07380   0.91800   0.23370   0.01267  Uiso   1.00
C128   C     0.02600   0.95920   0.21740   0.01267  Uiso   1.00
C129   C     0.00330   0.00630   0.24880   0.01267  Uiso   1.00
C130   C     0.95860   0.03100   0.21590   0.01267  Uiso   1.00
C131   C     0.91930   0.08230   0.22990   0.01267  Uiso   1.00
C132   C     0.00360   0.99320   0.35780   0.01267  Uiso   1.00
C133   C     0.05300   0.06930   0.32540   0.01267  Uiso   1.00
C134   C     0.57380   0.58200   0.76630   0.01267  Uiso   1.00
C135   C     0.52600   0.54080   0.78260   0.01267  Uiso   1.00
C136   C     0.50330   0.49370   0.75120   0.01267  Uiso   1.00
C137   C     0.45860   0.46900   0.78410   0.01267  Uiso   1.00
C138   C     0.41930   0.41770   0.77010   0.01267  Uiso   1.00
C139   C     0.50360   0.50680   0.64220   0.01267  Uiso   1.00
C140   C     0.55300   0.43070   0.67460   0.01267  Uiso   1.00
C141   C     0.73370   0.42620   0.08200   0.01267  Uiso   1.00
C142   C     0.71740   0.47400   0.04080   0.01267  Uiso   1.00
C143   C     0.74880   0.49670   0.99370   0.01267  Uiso   1.00
C144   C     0.71590   0.54140   0.96900   0.01267  Uiso   1.00
C145   C     0.72990   0.58070   0.91770   0.01267  Uiso   1.00
C146   C     0.85780   0.49640   0.00680   0.01267  Uiso   1.00
C147   C     0.82540   0.44700   0.93070   0.01267  Uiso   1.00
C148   C     0.26630   0.92620   0.41800   0.01267  Uiso   1.00
C149   C     0.28260   0.97400   0.45920   0.01267  Uiso   1.00
C150   C     0.25120   0.99670   0.50630   0.01267  Uiso   1.00
C151   C     0.28410   0.04140   0.53100   0.01267  Uiso   1.00
C152   C     0.27010   0.08070   0.58230   0.01267  Uiso   1.00
C153   C     0.14220   0.99640   0.49320   0.01267  Uiso   1.00
C154   C     0.17460   0.94700   0.56930   0.01267  Uiso   1.00
C155   C     0.23370   0.07380   0.91800   0.01267  Uiso   1.00
C156   C     0.21740   0.02600   0.95920   0.01267  Uiso   1.00
C157   C     0.24880   0.00330   0.00630   0.01267  Uiso   1.00
C158   C     0.21590   0.95860   0.03100   0.01267  Uiso   1.00
C159   C     0.22990   0.91930   0.08230   0.01267  Uiso   1.00
C160   C     0.35780   0.00360   0.99320   0.01267  Uiso   1.00
C161   C     0.32540   0.05300   0.06930   0.01267  Uiso   1.00
C162   C     0.76630   0.57380   0.58200   0.01267  Uiso   1.00
C163   C     0.78260   0.52600   0.54080   0.01267  Uiso   1.00
C164   C     0.75120   0.50330   0.49370   0.01267  Uiso   1.00
C165   C     0.78410   0.45860   0.46900   0.01267  Uiso   1.00
C166   C     0.77010   0.41930   0.41770   0.01267  Uiso   1.00
C167   C     0.64220   0.50360   0.50680   0.01267  Uiso   1.00
C168   C     0.67460   0.55300   0.43070   0.01267  Uiso   1.00
N1     N     0.95660   0.33450   0.49610   0.01267  Uiso   1.00
N2     N     0.00120   0.33490   0.45510   0.01267  Uiso   1.00
N3     N     0.02250   0.09695   0.52480   0.01267  Uiso   1.00
N4     N     0.02180   0.19224   0.52080   0.01267  Uiso   1.00
N5     N     0.07260   0.11750   0.55750   0.01267  Uiso   1.00
N6     N     0.54340   0.66550   0.99610   0.01267  Uiso   1.00
N7     N     0.49880   0.66510   0.95510   0.01267  Uiso   1.00
N8     N     0.47750   0.90305   0.02480   0.01267  Uiso   1.00
N9     N     0.47820   0.80776   0.02080   0.01267  Uiso   1.00
N10    N     0.42740   0.88250   0.05750   0.01267  Uiso   1.00
N11    N     0.04340   0.83450   0.00390   0.01267  Uiso   1.00
N12    N     0.99880   0.83490   0.04490   0.01267  Uiso   1.00
N13    N     0.97750   0.59695   0.97520   0.01267  Uiso   1.00
N14    N     0.97820   0.69224   0.97920   0.01267  Uiso   1.00
N15    N     0.92740   0.61750   0.94250   0.01267  Uiso   1.00
N16    N     0.45660   0.16550   0.50390   0.01267  Uiso   1.00
N17    N     0.50120   0.16510   0.54490   0.01267  Uiso   1.00
N18    N     0.52250   0.40305   0.47520   0.01267  Uiso   1.00
N19    N     0.52180   0.30776   0.47920   0.01267  Uiso   1.00
N20    N     0.57260   0.38250   0.44250   0.01267  Uiso   1.00
N21    N     0.49610   0.95660   0.33450   0.01267  Uiso   1.00
N22    N     0.45510   0.00120   0.33490   0.01267  Uiso   1.00
N23    N     0.52480   0.02250   0.09695   0.01267  Uiso   1.00
N24    N     0.52080   0.02180   0.19224   0.01267  Uiso   1.00
N25    N     0.55750   0.07260   0.11750   0.01267  Uiso   1.00
N26    N     0.99610   0.54340   0.66550   0.01267  Uiso   1.00
N27    N     0.95510   0.49880   0.66510   0.01267  Uiso   1.00
N28    N     0.02480   0.47750   0.90305   0.01267  Uiso   1.00
N29    N     0.02080   0.47820   0.80776   0.01267  Uiso   1.00
N30    N     0.05750   0.42740   0.88250   0.01267  Uiso   1.00
N31    N     0.00390   0.04340   0.83450   0.01267  Uiso   1.00
N32    N     0.04490   0.99880   0.83490   0.01267  Uiso   1.00
N33    N     0.97520   0.97750   0.59695   0.01267  Uiso   1.00
N34    N     0.97920   0.97820   0.69224   0.01267  Uiso   1.00
N35    N     0.94250   0.92740   0.61750   0.01267  Uiso   1.00
N36    N     0.50390   0.45660   0.16550   0.01267  Uiso   1.00
N37    N     0.54490   0.50120   0.16510   0.01267  Uiso   1.00
N38    N     0.47520   0.52250   0.40305   0.01267  Uiso   1.00
N39    N     0.47920   0.52180   0.30776   0.01267  Uiso   1.00
N40    N     0.44250   0.57260   0.38250   0.01267  Uiso   1.00
N41    N     0.33450   0.49610   0.95660   0.01267  Uiso   1.00
N42    N     0.33490   0.45510   0.00120   0.01267  Uiso   1.00
N43    N     0.09695   0.52480   0.02250   0.01267  Uiso   1.00
N44    N     0.19224   0.52080   0.02180   0.01267  Uiso   1.00
N45    N     0.11750   0.55750   0.07260   0.01267  Uiso   1.00
N46    N     0.66550   0.99610   0.54340   0.01267  Uiso   1.00
N47    N     0.66510   0.95510   0.49880   0.01267  Uiso   1.00
N48    N     0.90305   0.02480   0.47750   0.01267  Uiso   1.00
N49    N     0.80776   0.02080   0.47820   0.01267  Uiso   1.00
N50    N     0.88250   0.05750   0.42740   0.01267  Uiso   1.00
N51    N     0.83450   0.00390   0.04340   0.01267  Uiso   1.00
N52    N     0.83490   0.04490   0.99880   0.01267  Uiso   1.00
N53    N     0.59695   0.97520   0.97750   0.01267  Uiso   1.00
N54    N     0.69224   0.97920   0.97820   0.01267  Uiso   1.00
N55    N     0.61750   0.94250   0.92740   0.01267  Uiso   1.00
N56    N     0.16550   0.50390   0.45660   0.01267  Uiso   1.00
N57    N     0.16510   0.54490   0.50120   0.01267  Uiso   1.00
N58    N     0.40305   0.47520   0.52250   0.01267  Uiso   1.00
N59    N     0.30776   0.47920   0.52180   0.01267  Uiso   1.00
N60    N     0.38250   0.44250   0.57260   0.01267  Uiso   1.00
N61    N     0.04340   0.66550   0.50390   0.01267  Uiso   1.00
N62    N     0.99880   0.66510   0.54490   0.01267  Uiso   1.00
N63    N     0.97750   0.90305   0.47520   0.01267  Uiso   1.00
N64    N     0.97820   0.80776   0.47920   0.01267  Uiso   1.00
N65    N     0.92740   0.88250   0.44250   0.01267  Uiso   1.00
N66    N     0.45660   0.33450   0.00390   0.01267  Uiso   1.00
N67    N     0.50120   0.33490   0.04490   0.01267  Uiso   1.00
N68    N     0.52250   0.09695   0.97520   0.01267  Uiso   1.00
N69    N     0.52180   0.19224   0.97920   0.01267  Uiso   1.00
N70    N     0.57260   0.11750   0.94250   0.01267  Uiso   1.00
N71    N     0.95660   0.16550   0.99610   0.01267  Uiso   1.00
N72    N     0.00120   0.16510   0.95510   0.01267  Uiso   1.00
N73    N     0.02250   0.40305   0.02480   0.01267  Uiso   1.00
N74    N     0.02180   0.30776   0.02080   0.01267  Uiso   1.00
N75    N     0.07260   0.38250   0.05750   0.01267  Uiso   1.00
N76    N     0.54340   0.83450   0.49610   0.01267  Uiso   1.00
N77    N     0.49880   0.83490   0.45510   0.01267  Uiso   1.00
N78    N     0.47750   0.59695   0.52480   0.01267  Uiso   1.00
N79    N     0.47820   0.69224   0.52080   0.01267  Uiso   1.00
N80    N     0.42740   0.61750   0.55750   0.01267  Uiso   1.00
N81    N     0.50390   0.04340   0.66550   0.01267  Uiso   1.00
N82    N     0.54490   0.99880   0.66510   0.01267  Uiso   1.00
N83    N     0.47520   0.97750   0.90305   0.01267  Uiso   1.00
N84    N     0.47920   0.97820   0.80776   0.01267  Uiso   1.00
N85    N     0.44250   0.92740   0.88250   0.01267  Uiso   1.00
N86    N     0.00390   0.45660   0.33450   0.01267  Uiso   1.00
N87    N     0.04490   0.50120   0.33490   0.01267  Uiso   1.00
N88    N     0.97520   0.52250   0.09695   0.01267  Uiso   1.00
N89    N     0.97920   0.52180   0.19224   0.01267  Uiso   1.00
N90    N     0.94250   0.57260   0.11750   0.01267  Uiso   1.00
N91    N     0.99610   0.95660   0.16550   0.01267  Uiso   1.00
N92    N     0.95510   0.00120   0.16510   0.01267  Uiso   1.00
N93    N     0.02480   0.02250   0.40305   0.01267  Uiso   1.00
N94    N     0.02080   0.02180   0.30776   0.01267  Uiso   1.00
N95    N     0.05750   0.07260   0.38250   0.01267  Uiso   1.00
N96    N     0.49610   0.54340   0.83450   0.01267  Uiso   1.00
N97    N     0.45510   0.49880   0.83490   0.01267  Uiso   1.00
N98    N     0.52480   0.47750   0.59695   0.01267  Uiso   1.00
N99    N     0.52080   0.47820   0.69224   0.01267  Uiso   1.00
N100   N     0.55750   0.42740   0.61750   0.01267  Uiso   1.00
N101   N     0.66550   0.50390   0.04340   0.01267  Uiso   1.00
N102   N     0.66510   0.54490   0.99880   0.01267  Uiso   1.00
N103   N     0.90305   0.47520   0.97750   0.01267  Uiso   1.00
N104   N     0.80776   0.47920   0.97820   0.01267  Uiso   1.00
N105   N     0.88250   0.44250   0.92740   0.01267  Uiso   1.00
N106   N     0.33450   0.00390   0.45660   0.01267  Uiso   1.00
N107   N     0.33490   0.04490   0.50120   0.01267  Uiso   1.00
N108   N     0.09695   0.97520   0.52250   0.01267  Uiso   1.00
N109   N     0.19224   0.97920   0.52180   0.01267  Uiso   1.00
N110   N     0.11750   0.94250   0.57260   0.01267  Uiso   1.00
N111   N     0.16550   0.99610   0.95660   0.01267  Uiso   1.00
N112   N     0.16510   0.95510   0.00120   0.01267  Uiso   1.00
N113   N     0.40305   0.02480   0.02250   0.01267  Uiso   1.00
N114   N     0.30776   0.02080   0.02180   0.01267  Uiso   1.00
N115   N     0.38250   0.05750   0.07260   0.01267  Uiso   1.00
N116   N     0.83450   0.49610   0.54340   0.01267  Uiso   1.00
N117   N     0.83490   0.45510   0.49880   0.01267  Uiso   1.00
N118   N     0.59695   0.52480   0.47750   0.01267  Uiso   1.00
N119   N     0.69224   0.52080   0.47820   0.01267  Uiso   1.00
N120   N     0.61750   0.55750   0.42740   0.01267  Uiso   1.00
O1     O     0.91706   0.09280   0.91384   0.01267  Uiso   1.00
O2     O     0.58294   0.90720   0.41384   0.01267  Uiso   1.00
O3     O     0.08294   0.59280   0.58616   0.01267  Uiso   1.00
O4     O     0.41706   0.40720   0.08616   0.01267  Uiso   1.00
O5     O     0.91384   0.91706   0.09280   0.01267  Uiso   1.00
O6     O     0.41384   0.58294   0.90720   0.01267  Uiso   1.00
O7     O     0.58616   0.08294   0.59280   0.01267  Uiso   1.00
O8     O     0.08616   0.41706   0.40720   0.01267  Uiso   1.00
O9     O     0.09280   0.91384   0.91706   0.01267  Uiso   1.00
O10    O     0.90720   0.41384   0.58294   0.01267  Uiso   1.00
O11    O     0.59280   0.58616   0.08294   0.01267  Uiso   1.00
O12    O     0.40720   0.08616   0.41706   0.01267  Uiso   1.00
O13    O     0.08294   0.90720   0.08616   0.01267  Uiso   1.00
O14    O     0.41706   0.09280   0.58616   0.01267  Uiso   1.00
O15    O     0.91706   0.40720   0.41384   0.01267  Uiso   1.00
O16    O     0.58294   0.59280   0.91384   0.01267  Uiso   1.00
O17    O     0.08616   0.08294   0.90720   0.01267  Uiso   1.00
O18    O     0.58616   0.41706   0.09280   0.01267  Uiso   1.00
O19    O     0.41384   0.91706   0.40720   0.01267  Uiso   1.00
O20    O     0.91384   0.58294   0.59280   0.01267  Uiso   1.00
O21    O     0.90720   0.08616   0.08294   0.01267  Uiso   1.00
O22    O     0.09280   0.58616   0.41706   0.01267  Uiso   1.00
O23    O     0.40720   0.41384   0.91706   0.01267  Uiso   1.00
O24    O     0.59280   0.91384   0.58294   0.01267  Uiso   1.00
Cd5    Cd    0.92056   0.92056   0.92056   0.01267  Uiso   1.00
Cd6    Cd    0.07944   0.07944   0.07944   0.01267  Uiso   1.00
Cl1    Cl    0.86240   0.97770   0.85520   0.01267  Uiso   1.00
Cl2    Cl    0.85520   0.86240   0.97770   0.01267  Uiso   1.00
Cl3    Cl    0.97770   0.85520   0.86240   0.01267  Uiso   1.00
Cl4    Cl    0.13760   0.02230   0.14480   0.01267  Uiso   1.00
Cl5    Cl    0.14480   0.13760   0.02230   0.01267  Uiso   1.00
Cl6    Cl    0.02230   0.14480   0.13760   0.01267  Uiso   1.00
Cl7    Cl    0.98861   0.98861   0.98861   0.01267  Uiso   1.00
Cl8    Cl    0.01139   0.01139   0.01139   0.01267  Uiso   1.00
Cd7    Cd    0.57944   0.07944   0.42056   0.01267  Uiso   1.00
Cd8    Cd    0.42056   0.92056   0.57944   0.01267  Uiso   1.00
Cl9    Cl    0.63760   0.02230   0.35520   0.01267  Uiso   1.00
Cl10   Cl    0.64480   0.13760   0.47770   0.01267  Uiso   1.00
Cl11   Cl    0.52230   0.14480   0.36240   0.01267  Uiso   1.00
Cl12   Cl    0.36240   0.97770   0.64480   0.01267  Uiso   1.00
Cl13   Cl    0.35520   0.86240   0.52230   0.01267  Uiso   1.00
Cl14   Cl    0.47770   0.85520   0.63760   0.01267  Uiso   1.00
Cl15   Cl    0.51139   0.01139   0.48861   0.01267  Uiso   1.00
Cl16   Cl    0.48861   0.98861   0.51139   0.01267  Uiso   1.00
Cd9    Cd    0.07944   0.42056   0.57944   0.01267  Uiso   1.00
Cd10   Cd    0.92056   0.57944   0.42056   0.01267  Uiso   1.00
Cl17   Cl    0.13760   0.47770   0.64480   0.01267  Uiso   1.00
Cl18   Cl    0.14480   0.36240   0.52230   0.01267  Uiso   1.00
Cl19   Cl    0.02230   0.35520   0.63760   0.01267  Uiso   1.00
Cl20   Cl    0.86240   0.52230   0.35520   0.01267  Uiso   1.00
Cl21   Cl    0.85520   0.63760   0.47770   0.01267  Uiso   1.00
Cl22   Cl    0.97770   0.64480   0.36240   0.01267  Uiso   1.00
Cl23   Cl    0.01139   0.48861   0.51139   0.01267  Uiso   1.00
Cl24   Cl    0.98861   0.51139   0.48861   0.01267  Uiso   1.00
Cd11   Cd    0.42056   0.57944   0.07944   0.01267  Uiso   1.00
Cd12   Cd    0.57944   0.42056   0.92056   0.01267  Uiso   1.00
Cl25   Cl    0.36240   0.52230   0.14480   0.01267  Uiso   1.00
Cl26   Cl    0.35520   0.63760   0.02230   0.01267  Uiso   1.00
Cl27   Cl    0.47770   0.64480   0.13760   0.01267  Uiso   1.00
Cl28   Cl    0.63760   0.47770   0.85520   0.01267  Uiso   1.00
Cl29   Cl    0.64480   0.36240   0.97770   0.01267  Uiso   1.00
Cl30   Cl    0.52230   0.35520   0.86240   0.01267  Uiso   1.00
Cl31   Cl    0.48861   0.51139   0.01139   0.01267  Uiso   1.00
Cl32   Cl    0.51139   0.48861   0.98861   0.01267  Uiso   1.00
