data_image0
_cell_length_a       20.818
_cell_length_b       9.887
_cell_length_c       17.281
_cell_angle_alpha    90
_cell_angle_beta     90
_cell_angle_gamma    90

_symmetry_space_group_name_H-M    "P 1"
_symmetry_int_tables_number       1

loop_
  _symmetry_equiv_pos_as_xyz
  'x, y, z'

loop_
  _atom_site_label
  _atom_site_occupancy
  _atom_site_fract_x
  _atom_site_fract_y
  _atom_site_fract_z
  _atom_site_thermal_displace_type
  _atom_site_B_iso_or_equiv
  _atom_site_type_symbol
  Zn1      1.0000 0.18383  0.68973  0.17718  Biso   1.000  Zn
  O1       1.0000 0.09799  0.69090  0.22510  Biso   1.000  O
  N1       1.0000 0.19300  0.66200  0.06350  Biso   1.000  N
  C1       1.0000 0.00160  0.81170  0.24470  Biso   1.000  C
  O2       1.0000 0.08000  0.87180  0.14990  Biso   1.000  O
  C2       1.0000 0.06490  0.79330  0.20320  Biso   1.000  C
  N2       1.0000 0.24900  0.94950  0.15280  Biso   1.000  N
  C3       1.0000 0.24550  0.91490  0.27610  Biso   1.000  C
  N3       1.0000 0.23210  0.85940  0.34530  Biso   1.000  N
  H1       1.0000 0.24130  0.90190  0.38730  Biso   1.000  H
  H2       1.0000 0.21470  0.78060  0.34750  Biso   1.000  H
  H3       1.0000 0.12140  0.87160  0.04510  Biso   1.000  H
  C4       1.0000 0.88050  0.83300  0.31240  Biso   1.000  C
  H4       1.0000 0.84050  0.84100  0.33600  Biso   1.000  H
  N4       1.0000 0.23010  0.56040  0.03710  Biso   1.000  N
  C5       1.0000 0.97930  0.93860  0.26910  Biso   1.000  C
  C6       1.0000 0.96260  0.69670  0.25590  Biso   1.000  C
  H5       1.0000 0.97770  0.61250  0.24010  Biso   1.000  H
  C7       1.0000 0.90230  0.70750  0.28910  Biso   1.000  C
  H6       1.0000 0.87650  0.63130  0.29510  Biso   1.000  H
  C8       1.0000 0.91820  0.94640  0.30210  Biso   1.000  C
  H7       1.0000 0.90250  0.03010  0.31780  Biso   1.000  H
  N5       1.0000 0.27360  0.05480  0.18640  Biso   1.000  N
  N6       1.0000 0.27270  0.03740  0.26440  Biso   1.000  N
  N7       1.0000 0.23060  0.85900  0.20810  Biso   1.000  N
  Zn2      1.0000 0.81617  0.31027  0.17718  Biso   1.000  Zn
  O3       1.0000 0.90201  0.30910  0.22510  Biso   1.000  O
  N8       1.0000 0.80700  0.33800  0.06350  Biso   1.000  N
  C9       1.0000 0.99840  0.18830  0.24470  Biso   1.000  C
  O4       1.0000 0.92000  0.12820  0.14990  Biso   1.000  O
  C10      1.0000 0.93510  0.20670  0.20320  Biso   1.000  C
  N9       1.0000 0.75100  0.05050  0.15280  Biso   1.000  N
  C11      1.0000 0.75450  0.08510  0.27610  Biso   1.000  C
  N10      1.0000 0.76790  0.14060  0.34530  Biso   1.000  N
  H8       1.0000 0.75870  0.09810  0.38730  Biso   1.000  H
  H9       1.0000 0.78530  0.21940  0.34750  Biso   1.000  H
  H10      1.0000 0.87860  0.12840  0.04510  Biso   1.000  H
  C12      1.0000 0.11950  0.16700  0.31240  Biso   1.000  C
  H11      1.0000 0.15950  0.15900  0.33600  Biso   1.000  H
  N11      1.0000 0.76990  0.43960  0.03710  Biso   1.000  N
  C13      1.0000 0.02070  0.06140  0.26910  Biso   1.000  C
  C14      1.0000 0.03740  0.30330  0.25590  Biso   1.000  C
  H12      1.0000 0.02230  0.38750  0.24010  Biso   1.000  H
  C15      1.0000 0.09770  0.29250  0.28910  Biso   1.000  C
  H13      1.0000 0.12350  0.36870  0.29510  Biso   1.000  H
  C16      1.0000 0.08180  0.05360  0.30210  Biso   1.000  C
  H14      1.0000 0.09750  0.96990  0.31780  Biso   1.000  H
  N12      1.0000 0.72640  0.94520  0.18640  Biso   1.000  N
  N13      1.0000 0.72730  0.96260  0.26440  Biso   1.000  N
  N14      1.0000 0.76940  0.14100  0.20810  Biso   1.000  N
  Zn3      1.0000 0.31617  0.18973  0.32282  Biso   1.000  Zn
  O5       1.0000 0.40201  0.19090  0.27490  Biso   1.000  O
  N15      1.0000 0.30700  0.16200  0.43650  Biso   1.000  N
  C17      1.0000 0.49840  0.31170  0.25530  Biso   1.000  C
  O6       1.0000 0.42000  0.37180  0.35010  Biso   1.000  O
  C18      1.0000 0.43510  0.29330  0.29680  Biso   1.000  C
  N16      1.0000 0.25100  0.44950  0.34720  Biso   1.000  N
  C19      1.0000 0.25450  0.41490  0.22390  Biso   1.000  C
  N17      1.0000 0.26790  0.35940  0.15470  Biso   1.000  N
  H15      1.0000 0.25870  0.40190  0.11270  Biso   1.000  H
  H16      1.0000 0.28530  0.28060  0.15250  Biso   1.000  H
  H17      1.0000 0.37860  0.37160  0.45490  Biso   1.000  H
  C20      1.0000 0.61950  0.33300  0.18760  Biso   1.000  C
  H18      1.0000 0.65950  0.34100  0.16400  Biso   1.000  H
  N18      1.0000 0.26990  0.06040  0.46290  Biso   1.000  N
  C21      1.0000 0.52070  0.43860  0.23090  Biso   1.000  C
  C22      1.0000 0.53740  0.19670  0.24410  Biso   1.000  C
  H19      1.0000 0.52230  0.11250  0.25990  Biso   1.000  H
  C23      1.0000 0.59770  0.20750  0.21090  Biso   1.000  C
  H20      1.0000 0.62350  0.13130  0.20490  Biso   1.000  H
  C24      1.0000 0.58180  0.44640  0.19790  Biso   1.000  C
  H21      1.0000 0.59750  0.53010  0.18220  Biso   1.000  H
  N19      1.0000 0.22640  0.55480  0.31360  Biso   1.000  N
  N20      1.0000 0.22730  0.53740  0.23560  Biso   1.000  N
  N21      1.0000 0.26940  0.35900  0.29190  Biso   1.000  N
  Zn4      1.0000 0.68383  0.81027  0.32282  Biso   1.000  Zn
  O7       1.0000 0.59799  0.80910  0.27490  Biso   1.000  O
  N22      1.0000 0.69300  0.83800  0.43650  Biso   1.000  N
  C25      1.0000 0.50160  0.68830  0.25530  Biso   1.000  C
  O8       1.0000 0.58000  0.62820  0.35010  Biso   1.000  O
  C26      1.0000 0.56490  0.70670  0.29680  Biso   1.000  C
  N23      1.0000 0.74900  0.55050  0.34720  Biso   1.000  N
  C27      1.0000 0.74550  0.58510  0.22390  Biso   1.000  C
  N24      1.0000 0.73210  0.64060  0.15470  Biso   1.000  N
  H22      1.0000 0.74130  0.59810  0.11270  Biso   1.000  H
  H23      1.0000 0.71470  0.71940  0.15250  Biso   1.000  H
  H24      1.0000 0.62140  0.62840  0.45490  Biso   1.000  H
  C28      1.0000 0.38050  0.66700  0.18760  Biso   1.000  C
  H25      1.0000 0.34050  0.65900  0.16400  Biso   1.000  H
  N25      1.0000 0.73010  0.93960  0.46290  Biso   1.000  N
  C29      1.0000 0.47930  0.56140  0.23090  Biso   1.000  C
  C30      1.0000 0.46260  0.80330  0.24410  Biso   1.000  C
  H26      1.0000 0.47770  0.88750  0.25990  Biso   1.000  H
  C31      1.0000 0.40230  0.79250  0.21090  Biso   1.000  C
  H27      1.0000 0.37650  0.86870  0.20490  Biso   1.000  H
  C32      1.0000 0.41820  0.55360  0.19790  Biso   1.000  C
  H28      1.0000 0.40250  0.46990  0.18220  Biso   1.000  H
  N26      1.0000 0.77360  0.44520  0.31360  Biso   1.000  N
  N27      1.0000 0.77270  0.46260  0.23560  Biso   1.000  N
  N28      1.0000 0.73060  0.64100  0.29190  Biso   1.000  N
  Zn5      1.0000 0.81617  0.31027  0.82282  Biso   1.000  Zn
  O9       1.0000 0.90201  0.30910  0.77490  Biso   1.000  O
  N29      1.0000 0.80700  0.33800  0.93650  Biso   1.000  N
  C33      1.0000 0.99840  0.18830  0.75530  Biso   1.000  C
  O10      1.0000 0.92000  0.12820  0.85010  Biso   1.000  O
  C34      1.0000 0.93510  0.20670  0.79680  Biso   1.000  C
  N30      1.0000 0.75100  0.05050  0.84720  Biso   1.000  N
  C35      1.0000 0.75450  0.08510  0.72390  Biso   1.000  C
  N31      1.0000 0.76790  0.14060  0.65470  Biso   1.000  N
  H29      1.0000 0.75870  0.09810  0.61270  Biso   1.000  H
  H30      1.0000 0.78530  0.21940  0.65250  Biso   1.000  H
  H31      1.0000 0.87860  0.12840  0.95490  Biso   1.000  H
  C36      1.0000 0.11950  0.16700  0.68760  Biso   1.000  C
  H32      1.0000 0.15950  0.15900  0.66400  Biso   1.000  H
  N32      1.0000 0.76990  0.43960  0.96290  Biso   1.000  N
  C37      1.0000 0.02070  0.06140  0.73090  Biso   1.000  C
  C38      1.0000 0.03740  0.30330  0.74410  Biso   1.000  C
  H33      1.0000 0.02230  0.38750  0.75990  Biso   1.000  H
  C39      1.0000 0.09770  0.29250  0.71090  Biso   1.000  C
  H34      1.0000 0.12350  0.36870  0.70490  Biso   1.000  H
  C40      1.0000 0.08180  0.05360  0.69790  Biso   1.000  C
  H35      1.0000 0.09750  0.96990  0.68220  Biso   1.000  H
  N33      1.0000 0.72640  0.94520  0.81360  Biso   1.000  N
  N34      1.0000 0.72730  0.96260  0.73560  Biso   1.000  N
  N35      1.0000 0.76940  0.14100  0.79190  Biso   1.000  N
  Zn6      1.0000 0.18383  0.68973  0.82282  Biso   1.000  Zn
  O11      1.0000 0.09799  0.69090  0.77490  Biso   1.000  O
  N36      1.0000 0.19300  0.66200  0.93650  Biso   1.000  N
  C41      1.0000 0.00160  0.81170  0.75530  Biso   1.000  C
  O12      1.0000 0.08000  0.87180  0.85010  Biso   1.000  O
  C42      1.0000 0.06490  0.79330  0.79680  Biso   1.000  C
  N37      1.0000 0.24900  0.94950  0.84720  Biso   1.000  N
  C43      1.0000 0.24550  0.91490  0.72390  Biso   1.000  C
  N38      1.0000 0.23210  0.85940  0.65470  Biso   1.000  N
  H36      1.0000 0.24130  0.90190  0.61270  Biso   1.000  H
  H37      1.0000 0.21470  0.78060  0.65250  Biso   1.000  H
  H38      1.0000 0.12140  0.87160  0.95490  Biso   1.000  H
  C44      1.0000 0.88050  0.83300  0.68760  Biso   1.000  C
  H39      1.0000 0.84050  0.84100  0.66400  Biso   1.000  H
  N39      1.0000 0.23010  0.56040  0.96290  Biso   1.000  N
  C45      1.0000 0.97930  0.93860  0.73090  Biso   1.000  C
  C46      1.0000 0.96260  0.69670  0.74410  Biso   1.000  C
  H40      1.0000 0.97770  0.61250  0.75990  Biso   1.000  H
  C47      1.0000 0.90230  0.70750  0.71090  Biso   1.000  C
  H41      1.0000 0.87650  0.63130  0.70490  Biso   1.000  H
  C48      1.0000 0.91820  0.94640  0.69790  Biso   1.000  C
  H42      1.0000 0.90250  0.03010  0.68220  Biso   1.000  H
  N40      1.0000 0.27360  0.05480  0.81360  Biso   1.000  N
  N41      1.0000 0.27270  0.03740  0.73560  Biso   1.000  N
  N42      1.0000 0.23060  0.85900  0.79190  Biso   1.000  N
  Zn7      1.0000 0.68383  0.81027  0.67718  Biso   1.000  Zn
  O13      1.0000 0.59799  0.80910  0.72510  Biso   1.000  O
  N43      1.0000 0.69300  0.83800  0.56350  Biso   1.000  N
  C49      1.0000 0.50160  0.68830  0.74470  Biso   1.000  C
  O14      1.0000 0.58000  0.62820  0.64990  Biso   1.000  O
  C50      1.0000 0.56490  0.70670  0.70320  Biso   1.000  C
  N44      1.0000 0.74900  0.55050  0.65280  Biso   1.000  N
  C51      1.0000 0.74550  0.58510  0.77610  Biso   1.000  C
  N45      1.0000 0.73210  0.64060  0.84530  Biso   1.000  N
  H43      1.0000 0.74130  0.59810  0.88730  Biso   1.000  H
  H44      1.0000 0.71470  0.71940  0.84750  Biso   1.000  H
  H45      1.0000 0.62140  0.62840  0.54510  Biso   1.000  H
  C52      1.0000 0.38050  0.66700  0.81240  Biso   1.000  C
  H46      1.0000 0.34050  0.65900  0.83600  Biso   1.000  H
  N46      1.0000 0.73010  0.93960  0.53710  Biso   1.000  N
  C53      1.0000 0.47930  0.56140  0.76910  Biso   1.000  C
  C54      1.0000 0.46260  0.80330  0.75590  Biso   1.000  C
  H47      1.0000 0.47770  0.88750  0.74010  Biso   1.000  H
  C55      1.0000 0.40230  0.79250  0.78910  Biso   1.000  C
  H48      1.0000 0.37650  0.86870  0.79510  Biso   1.000  H
  C56      1.0000 0.41820  0.55360  0.80210  Biso   1.000  C
  H49      1.0000 0.40250  0.46990  0.81780  Biso   1.000  H
  N47      1.0000 0.77360  0.44520  0.68640  Biso   1.000  N
  N48      1.0000 0.77270  0.46260  0.76440  Biso   1.000  N
  N49      1.0000 0.73060  0.64100  0.70810  Biso   1.000  N
  Zn8      1.0000 0.31617  0.18973  0.67718  Biso   1.000  Zn
  O15      1.0000 0.40201  0.19090  0.72510  Biso   1.000  O
  N50      1.0000 0.30700  0.16200  0.56350  Biso   1.000  N
  C57      1.0000 0.49840  0.31170  0.74470  Biso   1.000  C
  O16      1.0000 0.42000  0.37180  0.64990  Biso   1.000  O
  C58      1.0000 0.43510  0.29330  0.70320  Biso   1.000  C
  N51      1.0000 0.25100  0.44950  0.65280  Biso   1.000  N
  C59      1.0000 0.25450  0.41490  0.77610  Biso   1.000  C
  N52      1.0000 0.26790  0.35940  0.84530  Biso   1.000  N
  H50      1.0000 0.25870  0.40190  0.88730  Biso   1.000  H
  H51      1.0000 0.28530  0.28060  0.84750  Biso   1.000  H
  H52      1.0000 0.37860  0.37160  0.54510  Biso   1.000  H
  C60      1.0000 0.61950  0.33300  0.81240  Biso   1.000  C
  H53      1.0000 0.65950  0.34100  0.83600  Biso   1.000  H
  N53      1.0000 0.26990  0.06040  0.53710  Biso   1.000  N
  C61      1.0000 0.52070  0.43860  0.76910  Biso   1.000  C
  C62      1.0000 0.53740  0.19670  0.75590  Biso   1.000  C
  H54      1.0000 0.52230  0.11250  0.74010  Biso   1.000  H
  C63      1.0000 0.59770  0.20750  0.78910  Biso   1.000  C
  H55      1.0000 0.62350  0.13130  0.79510  Biso   1.000  H
  C64      1.0000 0.58180  0.44640  0.80210  Biso   1.000  C
  H56      1.0000 0.59750  0.53010  0.81780  Biso   1.000  H
  N54      1.0000 0.22640  0.55480  0.68640  Biso   1.000  N
  N55      1.0000 0.22730  0.53740  0.76440  Biso   1.000  N
  N56      1.0000 0.26940  0.35900  0.70810  Biso   1.000  N
  C65      1.0000 0.17310  0.72470  0.00000  Biso   1.000  C
  N57      1.0000 0.13470  0.83560  0.00000  Biso   1.000  N
  C66      1.0000 0.82690  0.27530  0.00000  Biso   1.000  C
  N58      1.0000 0.86530  0.16440  0.00000  Biso   1.000  N
  C67      1.0000 0.32690  0.22470  0.50000  Biso   1.000  C
  N59      1.0000 0.36530  0.33560  0.50000  Biso   1.000  N
  C68      1.0000 0.67310  0.77530  0.50000  Biso   1.000  C
  N60      1.0000 0.63470  0.66440  0.50000  Biso   1.000  N
