data_image0
_cell_length_a       31.928
_cell_length_b       16.003
_cell_length_c       10.329
_cell_angle_alpha    90
_cell_angle_beta     90
_cell_angle_gamma    90

_symmetry_space_group_name_H-M    "P 1"
_symmetry_int_tables_number       1

loop_
  _symmetry_equiv_pos_as_xyz
  'x, y, z'

loop_
  _atom_site_label
  _atom_site_occupancy
  _atom_site_fract_x
  _atom_site_fract_y
  _atom_site_fract_z
  _atom_site_thermal_displace_type
  _atom_site_B_iso_or_equiv
  _atom_site_type_symbol
  Zn1      1.0000 0.29347  0.05792  0.39859  Biso   1.000  Zn
  N1       1.0000 0.28311  0.18030  0.40800  Biso   1.000  N
  C1       1.0000 0.37637  0.04430  0.48150  Biso   1.000  C
  O1       1.0000 0.36358  0.08090  0.58350  Biso   1.000  O
  C2       1.0000 0.42213  0.02210  0.46760  Biso   1.000  C
  N2       1.0000 0.24710  0.20900  0.34610  Biso   1.000  N
  H1       1.0000 0.35410  0.20130  0.52640  Biso   1.000  H
  C3       1.0000 0.43779  0.99480  0.34960  Biso   1.000  C
  H2       1.0000 0.41970  0.98770  0.27980  Biso   1.000  H
  N3       1.0000 0.26039  0.00380  0.54040  Biso   1.000  N
  C4       1.0000 0.44874  0.03300  0.57050  Biso   1.000  C
  H3       1.0000 0.43810  0.05210  0.64890  Biso   1.000  H
  N4       1.0000 0.22678  0.95480  0.51440  Biso   1.000  N
  C5       1.0000 0.49234  0.01490  0.55960  Biso   1.000  C
  N5       1.0000 0.20756  0.93640  0.62160  Biso   1.000  N
  C6       1.0000 0.51988  0.02240  0.66430  Biso   1.000  C
  H4       1.0000 0.50970  0.03880  0.74470  Biso   1.000  H
  N6       1.0000 0.22830  0.97340  0.72330  Biso   1.000  N
  N7       1.0000 0.28857  0.06380  0.73610  Biso   1.000  N
  H5       1.0000 0.28560  0.07060  0.82210  Biso   1.000  H
  H6       1.0000 0.30970  0.08910  0.69410  Biso   1.000  H
  C7       1.0000 0.26099  0.01440  0.66990  Biso   1.000  C
  O2       1.0000 0.35261  0.02660  0.38570  Biso   1.000  O
  Zn2      1.0000 0.20653  0.94208  0.89859  Biso   1.000  Zn
  N8       1.0000 0.21689  0.81970  0.90800  Biso   1.000  N
  C8       1.0000 0.12363  0.95570  0.98150  Biso   1.000  C
  O3       1.0000 0.13642  0.91910  0.08350  Biso   1.000  O
  C9       1.0000 0.07787  0.97790  0.96760  Biso   1.000  C
  N9       1.0000 0.25290  0.79100  0.84610  Biso   1.000  N
  H7       1.0000 0.14590  0.79870  0.02640  Biso   1.000  H
  C10      1.0000 0.06221  0.00520  0.84960  Biso   1.000  C
  H8       1.0000 0.08030  0.01230  0.77980  Biso   1.000  H
  N10      1.0000 0.23961  0.99620  0.04040  Biso   1.000  N
  C11      1.0000 0.05126  0.96700  0.07050  Biso   1.000  C
  H9       1.0000 0.06190  0.94790  0.14890  Biso   1.000  H
  N11      1.0000 0.27322  0.04520  0.01440  Biso   1.000  N
  C12      1.0000 0.00766  0.98510  0.05960  Biso   1.000  C
  N12      1.0000 0.29244  0.06360  0.12160  Biso   1.000  N
  C13      1.0000 0.98012  0.97760  0.16430  Biso   1.000  C
  H10      1.0000 0.99030  0.96120  0.24470  Biso   1.000  H
  N13      1.0000 0.27170  0.02660  0.22330  Biso   1.000  N
  N14      1.0000 0.21143  0.93620  0.23610  Biso   1.000  N
  H11      1.0000 0.21440  0.92940  0.32210  Biso   1.000  H
  H12      1.0000 0.19030  0.91090  0.19410  Biso   1.000  H
  C14      1.0000 0.23901  0.98560  0.16990  Biso   1.000  C
  O4       1.0000 0.14739  0.97340  0.88570  Biso   1.000  O
  Zn3      1.0000 0.70653  0.55792  0.60141  Biso   1.000  Zn
  N15      1.0000 0.71689  0.68030  0.59200  Biso   1.000  N
  C15      1.0000 0.62363  0.54430  0.51850  Biso   1.000  C
  O5       1.0000 0.63642  0.58090  0.41650  Biso   1.000  O
  C16      1.0000 0.57787  0.52210  0.53240  Biso   1.000  C
  N16      1.0000 0.75290  0.70900  0.65390  Biso   1.000  N
  H13      1.0000 0.64590  0.70130  0.47360  Biso   1.000  H
  C17      1.0000 0.56221  0.49480  0.65040  Biso   1.000  C
  H14      1.0000 0.58030  0.48770  0.72020  Biso   1.000  H
  N17      1.0000 0.73961  0.50380  0.45960  Biso   1.000  N
  C18      1.0000 0.55126  0.53300  0.42950  Biso   1.000  C
  H15      1.0000 0.56190  0.55210  0.35110  Biso   1.000  H
  N18      1.0000 0.77322  0.45480  0.48560  Biso   1.000  N
  C19      1.0000 0.50766  0.51490  0.44040  Biso   1.000  C
  N19      1.0000 0.79244  0.43640  0.37840  Biso   1.000  N
  C20      1.0000 0.48012  0.52240  0.33570  Biso   1.000  C
  H16      1.0000 0.49030  0.53880  0.25530  Biso   1.000  H
  N20      1.0000 0.77170  0.47340  0.27670  Biso   1.000  N
  N21      1.0000 0.71143  0.56380  0.26390  Biso   1.000  N
  H17      1.0000 0.71440  0.57060  0.17790  Biso   1.000  H
  H18      1.0000 0.69030  0.58910  0.30590  Biso   1.000  H
  C21      1.0000 0.73901  0.51440  0.33010  Biso   1.000  C
  O6       1.0000 0.64739  0.52660  0.61430  Biso   1.000  O
  Zn4      1.0000 0.79347  0.44208  0.10141  Biso   1.000  Zn
  N22      1.0000 0.78311  0.31970  0.09200  Biso   1.000  N
  C22      1.0000 0.87637  0.45570  0.01850  Biso   1.000  C
  O7       1.0000 0.86358  0.41910  0.91650  Biso   1.000  O
  C23      1.0000 0.92213  0.47790  0.03240  Biso   1.000  C
  N23      1.0000 0.74710  0.29100  0.15390  Biso   1.000  N
  H19      1.0000 0.85410  0.29870  0.97360  Biso   1.000  H
  C24      1.0000 0.93779  0.50520  0.15040  Biso   1.000  C
  H20      1.0000 0.91970  0.51230  0.22020  Biso   1.000  H
  N24      1.0000 0.76039  0.49620  0.95960  Biso   1.000  N
  C25      1.0000 0.94874  0.46700  0.92950  Biso   1.000  C
  H21      1.0000 0.93810  0.44790  0.85110  Biso   1.000  H
  N25      1.0000 0.72678  0.54520  0.98560  Biso   1.000  N
  C26      1.0000 0.99234  0.48510  0.94040  Biso   1.000  C
  N26      1.0000 0.70756  0.56360  0.87840  Biso   1.000  N
  C27      1.0000 0.01988  0.47760  0.83570  Biso   1.000  C
  H22      1.0000 0.00970  0.46120  0.75530  Biso   1.000  H
  N27      1.0000 0.72830  0.52660  0.77670  Biso   1.000  N
  N28      1.0000 0.78857  0.43620  0.76390  Biso   1.000  N
  H23      1.0000 0.78560  0.42940  0.67790  Biso   1.000  H
  H24      1.0000 0.80970  0.41090  0.80590  Biso   1.000  H
  C28      1.0000 0.76099  0.48560  0.83010  Biso   1.000  C
  O8       1.0000 0.85261  0.47340  0.11430  Biso   1.000  O
  Zn5      1.0000 0.70653  0.94208  0.60141  Biso   1.000  Zn
  N29      1.0000 0.71689  0.81970  0.59200  Biso   1.000  N
  C29      1.0000 0.62363  0.95570  0.51850  Biso   1.000  C
  O9       1.0000 0.63642  0.91910  0.41650  Biso   1.000  O
  C30      1.0000 0.57787  0.97790  0.53240  Biso   1.000  C
  N30      1.0000 0.75290  0.79100  0.65390  Biso   1.000  N
  H25      1.0000 0.64590  0.79870  0.47360  Biso   1.000  H
  C31      1.0000 0.56221  0.00520  0.65040  Biso   1.000  C
  H26      1.0000 0.58030  0.01230  0.72020  Biso   1.000  H
  N31      1.0000 0.73961  0.99620  0.45960  Biso   1.000  N
  C32      1.0000 0.55126  0.96700  0.42950  Biso   1.000  C
  H27      1.0000 0.56190  0.94790  0.35110  Biso   1.000  H
  N32      1.0000 0.77322  0.04520  0.48560  Biso   1.000  N
  C33      1.0000 0.50766  0.98510  0.44040  Biso   1.000  C
  N33      1.0000 0.79244  0.06360  0.37840  Biso   1.000  N
  C34      1.0000 0.48012  0.97760  0.33570  Biso   1.000  C
  H28      1.0000 0.49030  0.96120  0.25530  Biso   1.000  H
  N34      1.0000 0.77170  0.02660  0.27670  Biso   1.000  N
  N35      1.0000 0.71143  0.93620  0.26390  Biso   1.000  N
  H29      1.0000 0.71440  0.92940  0.17790  Biso   1.000  H
  H30      1.0000 0.69030  0.91090  0.30590  Biso   1.000  H
  C35      1.0000 0.73901  0.98560  0.33010  Biso   1.000  C
  O10      1.0000 0.64739  0.97340  0.61430  Biso   1.000  O
  Zn6      1.0000 0.79347  0.05792  0.10141  Biso   1.000  Zn
  N36      1.0000 0.78311  0.18030  0.09200  Biso   1.000  N
  C36      1.0000 0.87637  0.04430  0.01850  Biso   1.000  C
  O11      1.0000 0.86358  0.08090  0.91650  Biso   1.000  O
  C37      1.0000 0.92213  0.02210  0.03240  Biso   1.000  C
  N37      1.0000 0.74710  0.20900  0.15390  Biso   1.000  N
  H31      1.0000 0.85410  0.20130  0.97360  Biso   1.000  H
  C38      1.0000 0.93779  0.99480  0.15040  Biso   1.000  C
  H32      1.0000 0.91970  0.98770  0.22020  Biso   1.000  H
  N38      1.0000 0.76039  0.00380  0.95960  Biso   1.000  N
  C39      1.0000 0.94874  0.03300  0.92950  Biso   1.000  C
  H33      1.0000 0.93810  0.05210  0.85110  Biso   1.000  H
  N39      1.0000 0.72678  0.95480  0.98560  Biso   1.000  N
  C40      1.0000 0.99234  0.01490  0.94040  Biso   1.000  C
  N40      1.0000 0.70756  0.93640  0.87840  Biso   1.000  N
  C41      1.0000 0.01988  0.02240  0.83570  Biso   1.000  C
  H34      1.0000 0.00970  0.03880  0.75530  Biso   1.000  H
  N41      1.0000 0.72830  0.97340  0.77670  Biso   1.000  N
  N42      1.0000 0.78857  0.06380  0.76390  Biso   1.000  N
  H35      1.0000 0.78560  0.07060  0.67790  Biso   1.000  H
  H36      1.0000 0.80970  0.08910  0.80590  Biso   1.000  H
  C42      1.0000 0.76099  0.01440  0.83010  Biso   1.000  C
  O12      1.0000 0.85261  0.02660  0.11430  Biso   1.000  O
  Zn7      1.0000 0.29347  0.44208  0.39859  Biso   1.000  Zn
  N43      1.0000 0.28311  0.31970  0.40800  Biso   1.000  N
  C43      1.0000 0.37637  0.45570  0.48150  Biso   1.000  C
  O13      1.0000 0.36358  0.41910  0.58350  Biso   1.000  O
  C44      1.0000 0.42213  0.47790  0.46760  Biso   1.000  C
  N44      1.0000 0.24710  0.29100  0.34610  Biso   1.000  N
  H37      1.0000 0.35410  0.29870  0.52640  Biso   1.000  H
  C45      1.0000 0.43779  0.50520  0.34960  Biso   1.000  C
  H38      1.0000 0.41970  0.51230  0.27980  Biso   1.000  H
  N45      1.0000 0.26039  0.49620  0.54040  Biso   1.000  N
  C46      1.0000 0.44874  0.46700  0.57050  Biso   1.000  C
  H39      1.0000 0.43810  0.44790  0.64890  Biso   1.000  H
  N46      1.0000 0.22678  0.54520  0.51440  Biso   1.000  N
  C47      1.0000 0.49234  0.48510  0.55960  Biso   1.000  C
  N47      1.0000 0.20756  0.56360  0.62160  Biso   1.000  N
  C48      1.0000 0.51988  0.47760  0.66430  Biso   1.000  C
  H40      1.0000 0.50970  0.46120  0.74470  Biso   1.000  H
  N48      1.0000 0.22830  0.52660  0.72330  Biso   1.000  N
  N49      1.0000 0.28857  0.43620  0.73610  Biso   1.000  N
  H41      1.0000 0.28560  0.42940  0.82210  Biso   1.000  H
  H42      1.0000 0.30970  0.41090  0.69410  Biso   1.000  H
  C49      1.0000 0.26099  0.48560  0.66990  Biso   1.000  C
  O14      1.0000 0.35261  0.47340  0.38570  Biso   1.000  O
  Zn8      1.0000 0.20653  0.55792  0.89859  Biso   1.000  Zn
  N50      1.0000 0.21689  0.68030  0.90800  Biso   1.000  N
  C50      1.0000 0.12363  0.54430  0.98150  Biso   1.000  C
  O15      1.0000 0.13642  0.58090  0.08350  Biso   1.000  O
  C51      1.0000 0.07787  0.52210  0.96760  Biso   1.000  C
  N51      1.0000 0.25290  0.70900  0.84610  Biso   1.000  N
  H43      1.0000 0.14590  0.70130  0.02640  Biso   1.000  H
  C52      1.0000 0.06221  0.49480  0.84960  Biso   1.000  C
  H44      1.0000 0.08030  0.48770  0.77980  Biso   1.000  H
  N52      1.0000 0.23961  0.50380  0.04040  Biso   1.000  N
  C53      1.0000 0.05126  0.53300  0.07050  Biso   1.000  C
  H45      1.0000 0.06190  0.55210  0.14890  Biso   1.000  H
  N53      1.0000 0.27322  0.45480  0.01440  Biso   1.000  N
  C54      1.0000 0.00766  0.51490  0.05960  Biso   1.000  C
  N54      1.0000 0.29244  0.43640  0.12160  Biso   1.000  N
  C55      1.0000 0.98012  0.52240  0.16430  Biso   1.000  C
  H46      1.0000 0.99030  0.53880  0.24470  Biso   1.000  H
  N55      1.0000 0.27170  0.47340  0.22330  Biso   1.000  N
  N56      1.0000 0.21143  0.56380  0.23610  Biso   1.000  N
  H47      1.0000 0.21440  0.57060  0.32210  Biso   1.000  H
  H48      1.0000 0.19030  0.58910  0.19410  Biso   1.000  H
  C56      1.0000 0.23901  0.51440  0.16990  Biso   1.000  C
  O16      1.0000 0.14739  0.52660  0.88570  Biso   1.000  O
  N57      1.0000 0.34162  0.25000  0.50630  Biso   1.000  N
  C57      1.0000 0.30371  0.25000  0.44360  Biso   1.000  C
  N58      1.0000 0.15838  0.75000  0.00630  Biso   1.000  N
  C58      1.0000 0.19629  0.75000  0.94360  Biso   1.000  C
  N59      1.0000 0.65838  0.75000  0.49370  Biso   1.000  N
  C59      1.0000 0.69629  0.75000  0.55640  Biso   1.000  C
  N60      1.0000 0.84162  0.25000  0.99370  Biso   1.000  N
  C60      1.0000 0.80371  0.25000  0.05640  Biso   1.000  C
