data_image0
_cell_length_a       11.2547
_cell_length_b       17.5664
_cell_length_c       16.8496
_cell_angle_alpha    90
_cell_angle_beta     93.473
_cell_angle_gamma    90

_symmetry_space_group_name_H-M    "P 1"
_symmetry_int_tables_number       1

loop_
  _symmetry_equiv_pos_as_xyz
  'x, y, z'

loop_
  _atom_site_label
  _atom_site_occupancy
  _atom_site_fract_x
  _atom_site_fract_y
  _atom_site_fract_z
  _atom_site_thermal_displace_type
  _atom_site_B_iso_or_equiv
  _atom_site_type_symbol
  C1       1.0000 0.62960  0.86200  0.35910  Biso   1.000  C
  C2       1.0000 0.57370  0.93340  0.33020  Biso   1.000  C
  C3       1.0000 0.58190  0.96720  0.25790  Biso   1.000  C
  H1       1.0000 0.61900  0.94520  0.21580  Biso   1.000  H
  C4       1.0000 0.52690  0.04010  0.25460  Biso   1.000  C
  H2       1.0000 0.52530  0.07120  0.20990  Biso   1.000  H
  C5       1.0000 0.47730  0.05950  0.32260  Biso   1.000  C
  C6       1.0000 0.42040  0.13300  0.34300  Biso   1.000  C
  C7       1.0000 0.88690  0.86940  0.47550  Biso   1.000  C
  C8       1.0000 0.94930  0.94220  0.46960  Biso   1.000  C
  C9       1.0000 0.00530  0.96980  0.40770  Biso   1.000  C
  H3       1.0000 0.00920  0.94390  0.35970  Biso   1.000  H
  C10      1.0000 0.05800  0.04210  0.42240  Biso   1.000  C
  H4       1.0000 0.10170  0.06830  0.38610  Biso   1.000  H
  C11      1.0000 0.03670  0.06820  0.49600  Biso   1.000  C
  C12      1.0000 0.07720  0.14180  0.53090  Biso   1.000  C
  C13      1.0000 0.57570  0.87580  0.67700  Biso   1.000  C
  C14      1.0000 0.53010  0.95260  0.65180  Biso   1.000  C
  C15      1.0000 0.55460  0.99050  0.58560  Biso   1.000  C
  H5       1.0000 0.60860  0.97330  0.54990  Biso   1.000  H
  C16      1.0000 0.48970  0.05910  0.57560  Biso   1.000  C
  H6       1.0000 0.49380  0.09100  0.53180  Biso   1.000  H
  C17      1.0000 0.42090  0.07290  0.63730  Biso   1.000  C
  C18      1.0000 0.33890  0.13800  0.64880  Biso   1.000  C
  C19      1.0000 0.81900  0.63370  0.85330  Biso   1.000  C
  C20      1.0000 0.89880  0.56700  0.86210  Biso   1.000  C
  C21      1.0000 0.97690  0.54980  0.92510  Biso   1.000  C
  H7       1.0000 0.99020  0.58090  0.96950  Biso   1.000  H
  C22      1.0000 0.03350  0.48100  0.91510  Biso   1.000  C
  H8       1.0000 0.08930  0.46140  0.95270  Biso   1.000  H
  C23      1.0000 0.00130  0.44440  0.84620  Biso   1.000  C
  C24      1.0000 0.04630  0.36710  0.82310  Biso   1.000  C
  C25      1.0000 0.58470  0.63390  0.98150  Biso   1.000  C
  C26      1.0000 0.54110  0.56000  0.01090  Biso   1.000  C
  C27      1.0000 0.56740  0.52700  0.08200  Biso   1.000  C
  H9       1.0000 0.61680  0.54920  0.12180  Biso   1.000  H
  C28      1.0000 0.51240  0.45480  0.09010  Biso   1.000  C
  H10      1.0000 0.52350  0.42350  0.13450  Biso   1.000  H
  C29      1.0000 0.44150  0.43760  0.02480  Biso   1.000  C
  C30      1.0000 0.36890  0.36720  0.01140  Biso   1.000  C
  C31      1.0000 0.94210  0.62750  0.16960  Biso   1.000  C
  C32      1.0000 0.00140  0.55370  0.18350  Biso   1.000  C
  C33      1.0000 0.06960  0.53350  0.25090  Biso   1.000  C
  H11      1.0000 0.07900  0.56410  0.29590  Biso   1.000  H
  C34      1.0000 0.12300  0.46220  0.24430  Biso   1.000  C
  H12      1.0000 0.17160  0.43970  0.28430  Biso   1.000  H
  C35      1.0000 0.09500  0.42940  0.17140  Biso   1.000  C
  C36      1.0000 0.14000  0.35670  0.13970  Biso   1.000  C
  O1       1.0000 0.68070  0.82510  0.30720  Biso   1.000  O
  O2       1.0000 0.62550  0.84620  0.43100  Biso   1.000  O
  O3       1.0000 0.44400  0.18770  0.29650  Biso   1.000  O
  O4       1.0000 0.36280  0.13810  0.40210  Biso   1.000  O
  O5       1.0000 0.89260  0.82410  0.41660  Biso   1.000  O
  O6       1.0000 0.83560  0.85580  0.53730  Biso   1.000  O
  O7       1.0000 0.13420  0.18410  0.48480  Biso   1.000  O
  O8       1.0000 0.05570  0.15740  0.60090  Biso   1.000  O
  O9       1.0000 0.62650  0.83940  0.62660  Biso   1.000  O
  O10      1.0000 0.56150  0.85550  0.74590  Biso   1.000  O
  O11      1.0000 0.32040  0.18510  0.59350  Biso   1.000  O
  O12      1.0000 0.29000  0.14210  0.71330  Biso   1.000  O
  O13      1.0000 0.76120  0.64420  0.78830  Biso   1.000  O
  O14      1.0000 0.81170  0.67790  0.91190  Biso   1.000  O
  O15      1.0000 0.05210  0.35100  0.75080  Biso   1.000  O
  O16      1.0000 0.07450  0.32590  0.87930  Biso   1.000  O
  O17      1.0000 0.64390  0.67450  0.03110  Biso   1.000  O
  O18      1.0000 0.56080  0.65020  0.90990  Biso   1.000  O
  O19      1.0000 0.37110  0.31780  0.06540  Biso   1.000  O
  O20      1.0000 0.30900  0.36010  0.94720  Biso   1.000  O
  O21      1.0000 0.88430  0.63790  0.10320  Biso   1.000  O
  O22      1.0000 0.95300  0.67620  0.22360  Biso   1.000  O
  O23      1.0000 0.11970  0.34260  0.06770  Biso   1.000  O
  O24      1.0000 0.20130  0.31500  0.18970  Biso   1.000  O
  O25      1.0000 0.27660  0.24920  0.83000  Biso   1.000  O
  S1       1.0000 0.49430  0.98911  0.39200  Biso   1.000  S
  S2       1.0000 0.95720  0.00510  0.54777  Biso   1.000  S
  S3       1.0000 0.43310  0.00234  0.70720  Biso   1.000  S
  S4       1.0000 0.89890  0.49765  0.78948  Biso   1.000  S
  S5       1.0000 0.44320  0.50615  0.95282  Biso   1.000  S
  S6       1.0000 0.00410  0.48578  0.11203  Biso   1.000  S
  Eu1      1.0000 0.30455  0.25448  0.46661  Biso   1.000  Eu
  Eu2      1.0000 0.15232  0.24679  0.68949  Biso   1.000  Eu
  Eu3      1.0000 0.17831  0.24910  0.96952  Biso   1.000  Eu
  Eu4      1.0000 0.37964  0.24515  0.17997  Biso   1.000  Eu
  C37      1.0000 0.37040  0.36200  0.64090  Biso   1.000  C
  C38      1.0000 0.42630  0.43340  0.66980  Biso   1.000  C
  C39      1.0000 0.41810  0.46720  0.74210  Biso   1.000  C
  H13      1.0000 0.38100  0.44520  0.78420  Biso   1.000  H
  C40      1.0000 0.47310  0.54010  0.74540  Biso   1.000  C
  H14      1.0000 0.47470  0.57120  0.79010  Biso   1.000  H
  C41      1.0000 0.52270  0.55950  0.67740  Biso   1.000  C
  C42      1.0000 0.57960  0.63300  0.65700  Biso   1.000  C
  C43      1.0000 0.11310  0.36940  0.52450  Biso   1.000  C
  C44      1.0000 0.05070  0.44220  0.53040  Biso   1.000  C
  C45      1.0000 0.99470  0.46980  0.59230  Biso   1.000  C
  H15      1.0000 0.99080  0.44390  0.64030  Biso   1.000  H
  C46      1.0000 0.94200  0.54210  0.57760  Biso   1.000  C
  H16      1.0000 0.89830  0.56830  0.61390  Biso   1.000  H
  C47      1.0000 0.96330  0.56820  0.50400  Biso   1.000  C
  C48      1.0000 0.92280  0.64180  0.46910  Biso   1.000  C
  C49      1.0000 0.42430  0.37580  0.32300  Biso   1.000  C
  C50      1.0000 0.46990  0.45260  0.34820  Biso   1.000  C
  C51      1.0000 0.44540  0.49050  0.41440  Biso   1.000  C
  H17      1.0000 0.39140  0.47330  0.45010  Biso   1.000  H
  C52      1.0000 0.51030  0.55910  0.42440  Biso   1.000  C
  H18      1.0000 0.50620  0.59100  0.46820  Biso   1.000  H
  C53      1.0000 0.57910  0.57290  0.36270  Biso   1.000  C
  C54      1.0000 0.66110  0.63800  0.35120  Biso   1.000  C
  C55      1.0000 0.18100  0.13370  0.14670  Biso   1.000  C
  C56      1.0000 0.10120  0.06700  0.13790  Biso   1.000  C
  C57      1.0000 0.02310  0.04980  0.07490  Biso   1.000  C
  H19      1.0000 0.00980  0.08090  0.03050  Biso   1.000  H
  C58      1.0000 0.96650  0.98100  0.08490  Biso   1.000  C
  H20      1.0000 0.91070  0.96140  0.04730  Biso   1.000  H
  C59      1.0000 0.99870  0.94440  0.15380  Biso   1.000  C
  C60      1.0000 0.95370  0.86710  0.17690  Biso   1.000  C
  C61      1.0000 0.41530  0.13390  0.01850  Biso   1.000  C
  C62      1.0000 0.45890  0.06000  0.98910  Biso   1.000  C
  C63      1.0000 0.43260  0.02700  0.91800  Biso   1.000  C
  H21      1.0000 0.38320  0.04920  0.87820  Biso   1.000  H
  C64      1.0000 0.48760  0.95480  0.90990  Biso   1.000  C
  H22      1.0000 0.47650  0.92350  0.86550  Biso   1.000  H
  C65      1.0000 0.55850  0.93760  0.97520  Biso   1.000  C
  C66      1.0000 0.63110  0.86720  0.98860  Biso   1.000  C
  C67      1.0000 0.05790  0.12750  0.83040  Biso   1.000  C
  C68      1.0000 0.99860  0.05370  0.81650  Biso   1.000  C
  C69      1.0000 0.93040  0.03350  0.74910  Biso   1.000  C
  H23      1.0000 0.92100  0.06410  0.70410  Biso   1.000  H
  C70      1.0000 0.87700  0.96220  0.75570  Biso   1.000  C
  H24      1.0000 0.82840  0.93970  0.71570  Biso   1.000  H
  C71      1.0000 0.90500  0.92940  0.82860  Biso   1.000  C
  C72      1.0000 0.86000  0.85670  0.86030  Biso   1.000  C
  O26      1.0000 0.31930  0.32510  0.69280  Biso   1.000  O
  O27      1.0000 0.37450  0.34620  0.56900  Biso   1.000  O
  O28      1.0000 0.55600  0.68770  0.70350  Biso   1.000  O
  O29      1.0000 0.63720  0.63810  0.59790  Biso   1.000  O
  O30      1.0000 0.10740  0.32410  0.58340  Biso   1.000  O
  O31      1.0000 0.16440  0.35580  0.46270  Biso   1.000  O
  O32      1.0000 0.86580  0.68410  0.51520  Biso   1.000  O
  O33      1.0000 0.94430  0.65740  0.39910  Biso   1.000  O
  O34      1.0000 0.37350  0.33940  0.37340  Biso   1.000  O
  O35      1.0000 0.43850  0.35550  0.25410  Biso   1.000  O
  O36      1.0000 0.67960  0.68510  0.40650  Biso   1.000  O
  O37      1.0000 0.71000  0.64210  0.28670  Biso   1.000  O
  O38      1.0000 0.23880  0.14420  0.21170  Biso   1.000  O
  O39      1.0000 0.18830  0.17790  0.08810  Biso   1.000  O
  O40      1.0000 0.94790  0.85100  0.24920  Biso   1.000  O
  O41      1.0000 0.92550  0.82590  0.12070  Biso   1.000  O
  O42      1.0000 0.35610  0.17450  0.96890  Biso   1.000  O
  O43      1.0000 0.43920  0.15020  0.09010  Biso   1.000  O
  O44      1.0000 0.62890  0.81780  0.93460  Biso   1.000  O
  O45      1.0000 0.69100  0.86010  0.05280  Biso   1.000  O
  O46      1.0000 0.11570  0.13790  0.89680  Biso   1.000  O
  O47      1.0000 0.04700  0.17620  0.77640  Biso   1.000  O
  O48      1.0000 0.88030  0.84260  0.93230  Biso   1.000  O
  O49      1.0000 0.79870  0.81500  0.81030  Biso   1.000  O
  O50      1.0000 0.72340  0.74920  0.17000  Biso   1.000  O
  S7       1.0000 0.50570  0.48911  0.60800  Biso   1.000  S
  S8       1.0000 0.04280  0.50510  0.45223  Biso   1.000  S
  S9       1.0000 0.56690  0.50234  0.29280  Biso   1.000  S
  S10      1.0000 0.10110  0.99765  0.21052  Biso   1.000  S
  S11      1.0000 0.55680  0.00615  0.04718  Biso   1.000  S
  S12      1.0000 0.99590  0.98578  0.88797  Biso   1.000  S
  Eu5      1.0000 0.69545  0.75448  0.53339  Biso   1.000  Eu
  Eu6      1.0000 0.84768  0.74679  0.31051  Biso   1.000  Eu
  Eu7      1.0000 0.82169  0.74910  0.03048  Biso   1.000  Eu
  Eu8      1.0000 0.62036  0.74515  0.82003  Biso   1.000  Eu
