data_image0
_cell_length_a       50.641
_cell_length_b       11.353
_cell_length_c       17.5277
_cell_angle_alpha    90
_cell_angle_beta     90
_cell_angle_gamma    90

_symmetry_space_group_name_H-M    "P 1"
_symmetry_int_tables_number       1

loop_
  _symmetry_equiv_pos_as_xyz
  'x, y, z'

loop_
  _atom_site_label
  _atom_site_occupancy
  _atom_site_fract_x
  _atom_site_fract_y
  _atom_site_fract_z
  _atom_site_thermal_displace_type
  _atom_site_B_iso_or_equiv
  _atom_site_type_symbol
  C1       1.0000 0.50982  0.57360  0.42180  Biso   1.000  C
  C2       1.0000 0.49840  0.53290  0.34900  Biso   1.000  C
  C3       1.0000 0.47391  0.55840  0.32300  Biso   1.000  C
  H1       1.0000 0.46180  0.60370  0.34980  Biso   1.000  H
  C4       1.0000 0.46882  0.50840  0.25040  Biso   1.000  C
  H2       1.0000 0.45280  0.51520  0.22460  Biso   1.000  H
  C5       1.0000 0.48986  0.45000  0.22320  Biso   1.000  C
  C6       1.0000 0.49197  0.38730  0.14920  Biso   1.000  C
  C7       1.0000 0.54932  0.82170  0.41550  Biso   1.000  C
  C8       1.0000 0.54541  0.90510  0.35090  Biso   1.000  C
  C9       1.0000 0.52531  0.98120  0.33840  Biso   1.000  C
  H3       1.0000 0.51110  0.99090  0.37140  Biso   1.000  H
  C10      1.0000 0.52835  0.04440  0.26910  Biso   1.000  C
  H4       1.0000 0.51640  0.10100  0.25210  Biso   1.000  H
  C11      1.0000 0.55012  0.01410  0.23070  Biso   1.000  C
  C12      1.0000 0.55838  0.05920  0.15540  Biso   1.000  C
  C13      1.0000 0.54672  0.85670  0.64030  Biso   1.000  C
  C14      1.0000 0.55611  0.91250  0.71170  Biso   1.000  C
  C15      1.0000 0.57947  0.89870  0.74670  Biso   1.000  C
  H5       1.0000 0.59350  0.85730  0.72540  Biso   1.000  H
  C16      1.0000 0.58061  0.95300  0.81870  Biso   1.000  C
  H6       1.0000 0.59530  0.94990  0.85050  Biso   1.000  H
  C17      1.0000 0.55825  0.00980  0.83650  Biso   1.000  C
  C18      1.0000 0.55167  0.06770  0.91080  Biso   1.000  C
  C19      1.0000 0.60977  0.53070  0.40550  Biso   1.000  C
  C20      1.0000 0.60469  0.46880  0.33210  Biso   1.000  C
  C21      1.0000 0.58258  0.40990  0.31180  Biso   1.000  C
  H7       1.0000 0.56750  0.40720  0.34200  Biso   1.000  H
  C22      1.0000 0.58458  0.35300  0.24070  Biso   1.000  C
  H8       1.0000 0.57120  0.30800  0.21890  Biso   1.000  H
  C23      1.0000 0.60868  0.37240  0.20790  Biso   1.000  C
  C24      1.0000 0.61928  0.32330  0.13590  Biso   1.000  C
  C25      1.0000 0.60666  0.51780  0.64840  Biso   1.000  C
  C26      1.0000 0.61444  0.47110  0.72410  Biso   1.000  C
  C27      1.0000 0.63749  0.49550  0.75980  Biso   1.000  C
  H9       1.0000 0.65000  0.54710  0.74030  Biso   1.000  H
  C28      1.0000 0.64070  0.43510  0.82970  Biso   1.000  C
  H10      1.0000 0.65550  0.44270  0.86080  Biso   1.000  H
  C29      1.0000 0.61988  0.36500  0.84630  Biso   1.000  C
  C30      1.0000 0.61717  0.28640  0.91250  Biso   1.000  C
  C31      1.0000 0.67244  0.86630  0.41280  Biso   1.000  C
  C32      1.0000 0.66225  0.91840  0.34050  Biso   1.000  C
  C33      1.0000 0.63815  0.89560  0.30760  Biso   1.000  C
  H11      1.0000 0.62520  0.84780  0.32920  Biso   1.000  H
  C34      1.0000 0.63540  0.95430  0.23620  Biso   1.000  C
  H12      1.0000 0.62030  0.95030  0.20610  Biso   1.000  H
  C35      1.0000 0.65713  0.01640  0.21720  Biso   1.000  C
  C36      1.0000 0.66185  0.08480  0.14700  Biso   1.000  C
  C37      1.0000 0.71263  0.57900  0.63310  Biso   1.000  C
  C38      1.0000 0.72292  0.53100  0.70510  Biso   1.000  C
  C39      1.0000 0.74762  0.54070  0.73450  Biso   1.000  C
  H13      1.0000 0.76140  0.57960  0.71020  Biso   1.000  H
  C40      1.0000 0.74993  0.48480  0.80600  Biso   1.000  C
  H14      1.0000 0.76570  0.48080  0.83330  Biso   1.000  H
  C41      1.0000 0.72697  0.43780  0.83080  Biso   1.000  C
  C42      1.0000 0.72168  0.38430  0.90590  Biso   1.000  C
  C43      1.0000 0.71438  0.62170  0.41090  Biso   1.000  C
  C44      1.0000 0.71136  0.54180  0.34510  Biso   1.000  C
  C45      1.0000 0.69006  0.47260  0.32860  Biso   1.000  C
  H15      1.0000 0.67520  0.46700  0.35940  Biso   1.000  H
  C46      1.0000 0.69325  0.41070  0.25980  Biso   1.000  C
  H16      1.0000 0.68050  0.36070  0.23970  Biso   1.000  H
  C47      1.0000 0.71684  0.43150  0.22570  Biso   1.000  C
  C48      1.0000 0.72519  0.38460  0.14970  Biso   1.000  C
  C49      1.0000 0.65892  0.04170  0.90940  Biso   1.000  C
  C50      1.0000 0.66887  0.99380  0.83530  Biso   1.000  C
  C51      1.0000 0.69291  0.01400  0.80340  Biso   1.000  C
  H17      1.0000 0.70590  0.06070  0.82560  Biso   1.000  H
  C52      1.0000 0.69598  0.95590  0.73270  Biso   1.000  C
  H18      1.0000 0.71120  0.96010  0.70310  Biso   1.000  H
  C53      1.0000 0.67407  0.89290  0.71300  Biso   1.000  C
  C54      1.0000 0.66990  0.82080  0.64410  Biso   1.000  C
  O1       1.0000 0.53325  0.54430  0.43770  Biso   1.000  O
  O2       1.0000 0.49499  0.63270  0.46310  Biso   1.000  O
  O3       1.0000 0.51225  0.33130  0.13620  Biso   1.000  O
  O4       1.0000 0.47258  0.39720  0.10440  Biso   1.000  O
  O5       1.0000 0.53135  0.80870  0.46330  Biso   1.000  O
  O6       1.0000 0.57047  0.76670  0.41900  Biso   1.000  O
  O7       1.0000 0.54191  0.11550  0.11880  Biso   1.000  O
  O8       1.0000 0.58134  0.03570  0.13350  Biso   1.000  O
  O9       1.0000 0.52302  0.86870  0.62360  Biso   1.000  O
  O10      1.0000 0.56412  0.80130  0.60340  Biso   1.000  O
  O11      1.0000 0.53168  0.13250  0.91380  Biso   1.000  O
  O12      1.0000 0.56664  0.04290  0.96510  Biso   1.000  O
  O13      1.0000 0.59183  0.52230  0.45470  Biso   1.000  O
  O14      1.0000 0.63149  0.58050  0.41410  Biso   1.000  O
  O15      1.0000 0.60283  0.26610  0.09500  Biso   1.000  O
  O16      1.0000 0.64318  0.33350  0.12170  Biso   1.000  O
  O17      1.0000 0.58293  0.52800  0.63080  Biso   1.000  O
  O18      1.0000 0.62556  0.54570  0.60690  Biso   1.000  O
  O19      1.0000 0.60941  0.74490  0.52700  Biso   1.000  O
  O20      1.0000 0.63634  0.27050  0.95670  Biso   1.000  O
  O21      1.0000 0.65616  0.81200  0.45310  Biso   1.000  O
  O22      1.0000 0.69624  0.88490  0.42770  Biso   1.000  O
  O23      1.0000 0.64435  0.08470  0.09550  Biso   1.000  O
  O24      1.0000 0.68289  0.14120  0.13960  Biso   1.000  O
  O25      1.0000 0.68851  0.56380  0.61860  Biso   1.000  O
  O26      1.0000 0.72878  0.63520  0.59210  Biso   1.000  O
  O27      1.0000 0.70062  0.33110  0.91640  Biso   1.000  O
  O28      1.0000 0.73959  0.39750  0.95490  Biso   1.000  O
  O29      1.0000 0.69528  0.63410  0.45600  Biso   1.000  O
  O30      1.0000 0.73588  0.67520  0.41880  Biso   1.000  O
  O31      1.0000 0.74867  0.37440  0.13520  Biso   1.000  O
  O32      1.0000 0.70631  0.36400  0.10540  Biso   1.000  O
  O33      1.0000 0.63543  0.02040  0.92640  Biso   1.000  O
  O34      1.0000 0.67542  0.09660  0.94870  Biso   1.000  O
  O35      1.0000 0.64815  0.77050  0.63570  Biso   1.000  O
  O36      1.0000 0.68805  0.81210  0.59620  Biso   1.000  O
  O37      1.0000 0.59536  0.23540  0.92260  Biso   1.000  O
  S1       1.0000 0.51568  0.45045  0.28513  Biso   1.000  S
  S2       1.0000 0.56820  0.91082  0.27918  Biso   1.000  S
  S3       1.0000 0.53567  0.99780  0.76596  Biso   1.000  S
  S4       1.0000 0.62841  0.45927  0.26319  Biso   1.000  S
  S5       1.0000 0.59585  0.37457  0.77758  Biso   1.000  S
  S6       1.0000 0.68129  0.00787  0.28514  Biso   1.000  S
  S7       1.0000 0.70246  0.45482  0.76513  Biso   1.000  S
  S8       1.0000 0.73564  0.52752  0.27782  Biso   1.000  S
  S9       1.0000 0.64963  0.90612  0.77962  Biso   1.000  S
  Sm1      1.0000 0.48878  0.80639  0.53242  Biso   1.000  Sm
  Sm2      1.0000 0.56289  0.63535  0.52552  Biso   1.000  Sm
  Sm3      1.0000 0.65578  0.63578  0.52706  Biso   1.000  Sm
  Sm4      1.0000 0.72684  0.81470  0.52368  Biso   1.000  Sm
  Sm5      1.0000 0.60602  0.08937  0.02228  Biso   1.000  Sm
  Sm6      1.0000 0.67665  0.26712  0.02754  Biso   1.000  Sm
  H19      1.0000 0.61180  0.77600  0.57000  Biso   1.000  H
  H20      1.0000 0.60890  0.79500  0.49200  Biso   1.000  H
  C55      1.0000 0.49018  0.42640  0.92180  Biso   1.000  C
  C56      1.0000 0.50160  0.46710  0.84900  Biso   1.000  C
  C57      1.0000 0.52609  0.44160  0.82300  Biso   1.000  C
  H21      1.0000 0.53820  0.39630  0.84980  Biso   1.000  H
  C58      1.0000 0.53118  0.49160  0.75040  Biso   1.000  C
  H22      1.0000 0.54720  0.48480  0.72460  Biso   1.000  H
  C59      1.0000 0.51014  0.55000  0.72320  Biso   1.000  C
  C60      1.0000 0.50803  0.61270  0.64920  Biso   1.000  C
  C61      1.0000 0.45068  0.17830  0.91550  Biso   1.000  C
  C62      1.0000 0.45459  0.09490  0.85090  Biso   1.000  C
  C63      1.0000 0.47469  0.01880  0.83840  Biso   1.000  C
  H23      1.0000 0.48890  0.00910  0.87140  Biso   1.000  H
  C64      1.0000 0.47165  0.95560  0.76910  Biso   1.000  C
  H24      1.0000 0.48360  0.89900  0.75210  Biso   1.000  H
  C65      1.0000 0.44988  0.98590  0.73070  Biso   1.000  C
  C66      1.0000 0.44162  0.94080  0.65540  Biso   1.000  C
  C67      1.0000 0.45328  0.14330  0.14030  Biso   1.000  C
  C68      1.0000 0.44389  0.08750  0.21170  Biso   1.000  C
  C69      1.0000 0.42053  0.10130  0.24670  Biso   1.000  C
  H25      1.0000 0.40650  0.14270  0.22540  Biso   1.000  H
  C70      1.0000 0.41939  0.04700  0.31870  Biso   1.000  C
  H26      1.0000 0.40470  0.05010  0.35050  Biso   1.000  H
  C71      1.0000 0.44175  0.99020  0.33650  Biso   1.000  C
  C72      1.0000 0.44833  0.93230  0.41080  Biso   1.000  C
  C73      1.0000 0.39023  0.46930  0.90550  Biso   1.000  C
  C74      1.0000 0.39531  0.53120  0.83210  Biso   1.000  C
  C75      1.0000 0.41742  0.59010  0.81180  Biso   1.000  C
  H27      1.0000 0.43250  0.59280  0.84200  Biso   1.000  H
  C76      1.0000 0.41542  0.64700  0.74070  Biso   1.000  C
  H28      1.0000 0.42880  0.69200  0.71890  Biso   1.000  H
  C77      1.0000 0.39132  0.62760  0.70790  Biso   1.000  C
  C78      1.0000 0.38072  0.67670  0.63590  Biso   1.000  C
  C79      1.0000 0.39334  0.48220  0.14840  Biso   1.000  C
  C80      1.0000 0.38556  0.52890  0.22410  Biso   1.000  C
  C81      1.0000 0.36251  0.50450  0.25980  Biso   1.000  C
  H29      1.0000 0.35000  0.45290  0.24030  Biso   1.000  H
  C82      1.0000 0.35930  0.56490  0.32970  Biso   1.000  C
  H30      1.0000 0.34450  0.55730  0.36080  Biso   1.000  H
  C83      1.0000 0.38012  0.63500  0.34630  Biso   1.000  C
  C84      1.0000 0.38283  0.71360  0.41250  Biso   1.000  C
  C85      1.0000 0.32756  0.13370  0.91280  Biso   1.000  C
  C86      1.0000 0.33775  0.08160  0.84050  Biso   1.000  C
  C87      1.0000 0.36185  0.10440  0.80760  Biso   1.000  C
  H31      1.0000 0.37480  0.15220  0.82920  Biso   1.000  H
  C88      1.0000 0.36460  0.04570  0.73620  Biso   1.000  C
  H32      1.0000 0.37970  0.04970  0.70610  Biso   1.000  H
  C89      1.0000 0.34287  0.98360  0.71720  Biso   1.000  C
  C90      1.0000 0.33815  0.91520  0.64700  Biso   1.000  C
  C91      1.0000 0.28737  0.42100  0.13310  Biso   1.000  C
  C92      1.0000 0.27708  0.46900  0.20510  Biso   1.000  C
  C93      1.0000 0.25238  0.45930  0.23450  Biso   1.000  C
  H33      1.0000 0.23860  0.42040  0.21020  Biso   1.000  H
  C94      1.0000 0.25007  0.51520  0.30600  Biso   1.000  C
  H34      1.0000 0.23430  0.51920  0.33330  Biso   1.000  H
  C95      1.0000 0.27303  0.56220  0.33080  Biso   1.000  C
  C96      1.0000 0.27832  0.61570  0.40590  Biso   1.000  C
  C97      1.0000 0.28562  0.37830  0.91090  Biso   1.000  C
  C98      1.0000 0.28864  0.45820  0.84510  Biso   1.000  C
  C99      1.0000 0.30994  0.52740  0.82860  Biso   1.000  C
  H35      1.0000 0.32480  0.53300  0.85940  Biso   1.000  H
  C100     1.0000 0.30675  0.58930  0.75980  Biso   1.000  C
  H36      1.0000 0.31950  0.63930  0.73970  Biso   1.000  H
  C101     1.0000 0.28316  0.56850  0.72570  Biso   1.000  C
  C102     1.0000 0.27481  0.61540  0.64970  Biso   1.000  C
  C103     1.0000 0.34108  0.95830  0.40940  Biso   1.000  C
  C104     1.0000 0.33113  0.00620  0.33530  Biso   1.000  C
  C105     1.0000 0.30709  0.98600  0.30340  Biso   1.000  C
  H37      1.0000 0.29410  0.93930  0.32560  Biso   1.000  H
  C106     1.0000 0.30402  0.04410  0.23270  Biso   1.000  C
  H38      1.0000 0.28880  0.03990  0.20310  Biso   1.000  H
  C107     1.0000 0.32593  0.10710  0.21300  Biso   1.000  C
  C108     1.0000 0.33010  0.17920  0.14410  Biso   1.000  C
  O38      1.0000 0.46675  0.45570  0.93770  Biso   1.000  O
  O39      1.0000 0.50501  0.36730  0.96310  Biso   1.000  O
  O40      1.0000 0.48775  0.66870  0.63620  Biso   1.000  O
  O41      1.0000 0.52742  0.60280  0.60440  Biso   1.000  O
  O42      1.0000 0.46865  0.19130  0.96330  Biso   1.000  O
  O43      1.0000 0.42953  0.23330  0.91900  Biso   1.000  O
  O44      1.0000 0.45809  0.88450  0.61880  Biso   1.000  O
  O45      1.0000 0.41866  0.96430  0.63350  Biso   1.000  O
  O46      1.0000 0.47698  0.13130  0.12360  Biso   1.000  O
  O47      1.0000 0.43588  0.19870  0.10340  Biso   1.000  O
  O48      1.0000 0.46832  0.86750  0.41380  Biso   1.000  O
  O49      1.0000 0.43336  0.95710  0.46510  Biso   1.000  O
  O50      1.0000 0.40817  0.47770  0.95470  Biso   1.000  O
  O51      1.0000 0.36851  0.41950  0.91410  Biso   1.000  O
  O52      1.0000 0.39717  0.73390  0.59500  Biso   1.000  O
  O53      1.0000 0.35682  0.66650  0.62170  Biso   1.000  O
  O54      1.0000 0.41707  0.47200  0.13080  Biso   1.000  O
  O55      1.0000 0.37444  0.45430  0.10690  Biso   1.000  O
  O56      1.0000 0.39059  0.25510  0.02700  Biso   1.000  O
  O57      1.0000 0.36366  0.72950  0.45670  Biso   1.000  O
  O58      1.0000 0.34384  0.18800  0.95310  Biso   1.000  O
  O59      1.0000 0.30376  0.11510  0.92770  Biso   1.000  O
  O60      1.0000 0.35565  0.91530  0.59550  Biso   1.000  O
  O61      1.0000 0.31711  0.85880  0.63960  Biso   1.000  O
  O62      1.0000 0.31149  0.43620  0.11860  Biso   1.000  O
  O63      1.0000 0.27122  0.36480  0.09210  Biso   1.000  O
  O64      1.0000 0.29938  0.66890  0.41640  Biso   1.000  O
  O65      1.0000 0.26041  0.60250  0.45490  Biso   1.000  O
  O66      1.0000 0.30472  0.36590  0.95600  Biso   1.000  O
  O67      1.0000 0.26412  0.32480  0.91880  Biso   1.000  O
  O68      1.0000 0.25133  0.62560  0.63520  Biso   1.000  O
  O69      1.0000 0.29369  0.63600  0.60540  Biso   1.000  O
  O70      1.0000 0.36457  0.97960  0.42640  Biso   1.000  O
  O71      1.0000 0.32458  0.90340  0.44870  Biso   1.000  O
  O72      1.0000 0.35185  0.22950  0.13570  Biso   1.000  O
  O73      1.0000 0.31195  0.18790  0.09620  Biso   1.000  O
  O74      1.0000 0.40464  0.76460  0.42260  Biso   1.000  O
  S10      1.0000 0.48432  0.54955  0.78513  Biso   1.000  S
  S11      1.0000 0.43180  0.08918  0.77918  Biso   1.000  S
  S12      1.0000 0.46433  0.00220  0.26596  Biso   1.000  S
  S13      1.0000 0.37159  0.54073  0.76319  Biso   1.000  S
  S14      1.0000 0.40415  0.62543  0.27758  Biso   1.000  S
  S15      1.0000 0.31871  0.99213  0.78514  Biso   1.000  S
  S16      1.0000 0.29754  0.54518  0.26513  Biso   1.000  S
  S17      1.0000 0.26436  0.47248  0.77782  Biso   1.000  S
  S18      1.0000 0.35037  0.09388  0.27962  Biso   1.000  S
  Sm7      1.0000 0.51122  0.19361  0.03242  Biso   1.000  Sm
  Sm8      1.0000 0.43711  0.36465  0.02552  Biso   1.000  Sm
  Sm9      1.0000 0.34422  0.36422  0.02706  Biso   1.000  Sm
  Sm10     1.0000 0.27316  0.18530  0.02368  Biso   1.000  Sm
  Sm11     1.0000 0.39398  0.91063  0.52228  Biso   1.000  Sm
  Sm12     1.0000 0.32335  0.73288  0.52754  Biso   1.000  Sm
  H39      1.0000 0.38820  0.22400  0.07000  Biso   1.000  H
  H40      1.0000 0.39110  0.20500  0.99200  Biso   1.000  H
  C109     1.0000 0.00982  0.92640  0.42180  Biso   1.000  C
  C110     1.0000 0.99840  0.96710  0.34900  Biso   1.000  C
  C111     1.0000 0.97391  0.94160  0.32300  Biso   1.000  C
  H41      1.0000 0.96180  0.89630  0.34980  Biso   1.000  H
  C112     1.0000 0.96882  0.99160  0.25040  Biso   1.000  C
  H42      1.0000 0.95280  0.98480  0.22460  Biso   1.000  H
  C113     1.0000 0.98986  0.05000  0.22320  Biso   1.000  C
  C114     1.0000 0.99197  0.11270  0.14920  Biso   1.000  C
  C115     1.0000 0.04932  0.67830  0.41550  Biso   1.000  C
  C116     1.0000 0.04541  0.59490  0.35090  Biso   1.000  C
  C117     1.0000 0.02531  0.51880  0.33840  Biso   1.000  C
  H43      1.0000 0.01110  0.50910  0.37140  Biso   1.000  H
  C118     1.0000 0.02835  0.45560  0.26910  Biso   1.000  C
  H44      1.0000 0.01640  0.39900  0.25210  Biso   1.000  H
  C119     1.0000 0.05012  0.48590  0.23070  Biso   1.000  C
  C120     1.0000 0.05838  0.44080  0.15540  Biso   1.000  C
  C121     1.0000 0.04672  0.64330  0.64030  Biso   1.000  C
  C122     1.0000 0.05611  0.58750  0.71170  Biso   1.000  C
  C123     1.0000 0.07947  0.60130  0.74670  Biso   1.000  C
  H45      1.0000 0.09350  0.64270  0.72540  Biso   1.000  H
  C124     1.0000 0.08061  0.54700  0.81870  Biso   1.000  C
  H46      1.0000 0.09530  0.55010  0.85050  Biso   1.000  H
  C125     1.0000 0.05825  0.49020  0.83650  Biso   1.000  C
  C126     1.0000 0.05167  0.43230  0.91080  Biso   1.000  C
  C127     1.0000 0.10977  0.96930  0.40550  Biso   1.000  C
  C128     1.0000 0.10469  0.03120  0.33210  Biso   1.000  C
  C129     1.0000 0.08258  0.09010  0.31180  Biso   1.000  C
  H47      1.0000 0.06750  0.09280  0.34200  Biso   1.000  H
  C130     1.0000 0.08458  0.14700  0.24070  Biso   1.000  C
  H48      1.0000 0.07120  0.19200  0.21890  Biso   1.000  H
  C131     1.0000 0.10868  0.12760  0.20790  Biso   1.000  C
  C132     1.0000 0.11928  0.17670  0.13590  Biso   1.000  C
  C133     1.0000 0.10666  0.98220  0.64840  Biso   1.000  C
  C134     1.0000 0.11444  0.02890  0.72410  Biso   1.000  C
  C135     1.0000 0.13749  0.00450  0.75980  Biso   1.000  C
  H49      1.0000 0.15000  0.95290  0.74030  Biso   1.000  H
  C136     1.0000 0.14070  0.06490  0.82970  Biso   1.000  C
  H50      1.0000 0.15550  0.05730  0.86080  Biso   1.000  H
  C137     1.0000 0.11988  0.13500  0.84630  Biso   1.000  C
  C138     1.0000 0.11717  0.21360  0.91250  Biso   1.000  C
  C139     1.0000 0.17244  0.63370  0.41280  Biso   1.000  C
  C140     1.0000 0.16225  0.58160  0.34050  Biso   1.000  C
  C141     1.0000 0.13815  0.60440  0.30760  Biso   1.000  C
  H51      1.0000 0.12520  0.65220  0.32920  Biso   1.000  H
  C142     1.0000 0.13540  0.54570  0.23620  Biso   1.000  C
  H52      1.0000 0.12030  0.54970  0.20610  Biso   1.000  H
  C143     1.0000 0.15713  0.48360  0.21720  Biso   1.000  C
  C144     1.0000 0.16185  0.41520  0.14700  Biso   1.000  C
  C145     1.0000 0.21263  0.92100  0.63310  Biso   1.000  C
  C146     1.0000 0.22292  0.96900  0.70510  Biso   1.000  C
  C147     1.0000 0.24762  0.95930  0.73450  Biso   1.000  C
  H53      1.0000 0.26140  0.92040  0.71020  Biso   1.000  H
  C148     1.0000 0.24993  0.01520  0.80600  Biso   1.000  C
  H54      1.0000 0.26570  0.01920  0.83330  Biso   1.000  H
  C149     1.0000 0.22697  0.06220  0.83080  Biso   1.000  C
  C150     1.0000 0.22168  0.11570  0.90590  Biso   1.000  C
  C151     1.0000 0.21438  0.87830  0.41090  Biso   1.000  C
  C152     1.0000 0.21136  0.95820  0.34510  Biso   1.000  C
  C153     1.0000 0.19006  0.02740  0.32860  Biso   1.000  C
  H55      1.0000 0.17520  0.03300  0.35940  Biso   1.000  H
  C154     1.0000 0.19325  0.08930  0.25980  Biso   1.000  C
  H56      1.0000 0.18050  0.13930  0.23970  Biso   1.000  H
  C155     1.0000 0.21684  0.06850  0.22570  Biso   1.000  C
  C156     1.0000 0.22519  0.11540  0.14970  Biso   1.000  C
  C157     1.0000 0.15892  0.45830  0.90940  Biso   1.000  C
  C158     1.0000 0.16887  0.50620  0.83530  Biso   1.000  C
  C159     1.0000 0.19291  0.48600  0.80340  Biso   1.000  C
  H57      1.0000 0.20590  0.43930  0.82560  Biso   1.000  H
  C160     1.0000 0.19598  0.54410  0.73270  Biso   1.000  C
  H58      1.0000 0.21120  0.53990  0.70310  Biso   1.000  H
  C161     1.0000 0.17407  0.60710  0.71300  Biso   1.000  C
  C162     1.0000 0.16990  0.67920  0.64410  Biso   1.000  C
  O75      1.0000 0.03325  0.95570  0.43770  Biso   1.000  O
  O76      1.0000 0.99499  0.86730  0.46310  Biso   1.000  O
  O77      1.0000 0.01225  0.16870  0.13620  Biso   1.000  O
  O78      1.0000 0.97258  0.10280  0.10440  Biso   1.000  O
  O79      1.0000 0.03135  0.69130  0.46330  Biso   1.000  O
  O80      1.0000 0.07047  0.73330  0.41900  Biso   1.000  O
  O81      1.0000 0.04191  0.38450  0.11880  Biso   1.000  O
  O82      1.0000 0.08134  0.46430  0.13350  Biso   1.000  O
  O83      1.0000 0.02302  0.63130  0.62360  Biso   1.000  O
  O84      1.0000 0.06412  0.69870  0.60340  Biso   1.000  O
  O85      1.0000 0.03168  0.36750  0.91380  Biso   1.000  O
  O86      1.0000 0.06664  0.45710  0.96510  Biso   1.000  O
  O87      1.0000 0.09183  0.97770  0.45470  Biso   1.000  O
  O88      1.0000 0.13149  0.91950  0.41410  Biso   1.000  O
  O89      1.0000 0.10283  0.23390  0.09500  Biso   1.000  O
  O90      1.0000 0.14318  0.16650  0.12170  Biso   1.000  O
  O91      1.0000 0.08293  0.97200  0.63080  Biso   1.000  O
  O92      1.0000 0.12556  0.95430  0.60690  Biso   1.000  O
  O93      1.0000 0.10941  0.75510  0.52700  Biso   1.000  O
  O94      1.0000 0.13634  0.22950  0.95670  Biso   1.000  O
  O95      1.0000 0.15616  0.68800  0.45310  Biso   1.000  O
  O96      1.0000 0.19624  0.61510  0.42770  Biso   1.000  O
  O97      1.0000 0.14435  0.41530  0.09550  Biso   1.000  O
  O98      1.0000 0.18289  0.35880  0.13960  Biso   1.000  O
  O99      1.0000 0.18851  0.93620  0.61860  Biso   1.000  O
  O100     1.0000 0.22878  0.86480  0.59210  Biso   1.000  O
  O101     1.0000 0.20062  0.16890  0.91640  Biso   1.000  O
  O102     1.0000 0.23959  0.10250  0.95490  Biso   1.000  O
  O103     1.0000 0.19528  0.86590  0.45600  Biso   1.000  O
  O104     1.0000 0.23588  0.82480  0.41880  Biso   1.000  O
  O105     1.0000 0.24867  0.12560  0.13520  Biso   1.000  O
  O106     1.0000 0.20631  0.13600  0.10540  Biso   1.000  O
  O107     1.0000 0.13543  0.47960  0.92640  Biso   1.000  O
  O108     1.0000 0.17542  0.40340  0.94870  Biso   1.000  O
  O109     1.0000 0.14815  0.72950  0.63570  Biso   1.000  O
  O110     1.0000 0.18805  0.68790  0.59620  Biso   1.000  O
  O111     1.0000 0.09536  0.26460  0.92260  Biso   1.000  O
  S19      1.0000 0.01568  0.04955  0.28513  Biso   1.000  S
  S20      1.0000 0.06820  0.58918  0.27918  Biso   1.000  S
  S21      1.0000 0.03567  0.50220  0.76596  Biso   1.000  S
  S22      1.0000 0.12841  0.04073  0.26319  Biso   1.000  S
  S23      1.0000 0.09585  0.12543  0.77758  Biso   1.000  S
  S24      1.0000 0.18129  0.49213  0.28514  Biso   1.000  S
  S25      1.0000 0.20246  0.04518  0.76513  Biso   1.000  S
  S26      1.0000 0.23564  0.97248  0.27782  Biso   1.000  S
  S27      1.0000 0.14963  0.59388  0.77962  Biso   1.000  S
  Sm13     1.0000 0.98878  0.69361  0.53242  Biso   1.000  Sm
  Sm14     1.0000 0.06289  0.86465  0.52552  Biso   1.000  Sm
  Sm15     1.0000 0.15578  0.86422  0.52706  Biso   1.000  Sm
  Sm16     1.0000 0.22684  0.68530  0.52368  Biso   1.000  Sm
  Sm17     1.0000 0.10602  0.41063  0.02228  Biso   1.000  Sm
  Sm18     1.0000 0.17665  0.23288  0.02754  Biso   1.000  Sm
  H59      1.0000 0.11180  0.72400  0.57000  Biso   1.000  H
  H60      1.0000 0.10890  0.70500  0.49200  Biso   1.000  H
  C163     1.0000 0.99018  0.07360  0.92180  Biso   1.000  C
  C164     1.0000 0.00160  0.03290  0.84900  Biso   1.000  C
  C165     1.0000 0.02609  0.05840  0.82300  Biso   1.000  C
  H61      1.0000 0.03820  0.10370  0.84980  Biso   1.000  H
  C166     1.0000 0.03118  0.00840  0.75040  Biso   1.000  C
  H62      1.0000 0.04720  0.01520  0.72460  Biso   1.000  H
  C167     1.0000 0.01014  0.95000  0.72320  Biso   1.000  C
  C168     1.0000 0.00803  0.88730  0.64920  Biso   1.000  C
  C169     1.0000 0.95068  0.32170  0.91550  Biso   1.000  C
  C170     1.0000 0.95459  0.40510  0.85090  Biso   1.000  C
  C171     1.0000 0.97469  0.48120  0.83840  Biso   1.000  C
  H63      1.0000 0.98890  0.49090  0.87140  Biso   1.000  H
  C172     1.0000 0.97165  0.54440  0.76910  Biso   1.000  C
  H64      1.0000 0.98360  0.60100  0.75210  Biso   1.000  H
  C173     1.0000 0.94988  0.51410  0.73070  Biso   1.000  C
  C174     1.0000 0.94162  0.55920  0.65540  Biso   1.000  C
  C175     1.0000 0.95328  0.35670  0.14030  Biso   1.000  C
  C176     1.0000 0.94389  0.41250  0.21170  Biso   1.000  C
  C177     1.0000 0.92053  0.39870  0.24670  Biso   1.000  C
  H65      1.0000 0.90650  0.35730  0.22540  Biso   1.000  H
  C178     1.0000 0.91939  0.45300  0.31870  Biso   1.000  C
  H66      1.0000 0.90470  0.44990  0.35050  Biso   1.000  H
  C179     1.0000 0.94175  0.50980  0.33650  Biso   1.000  C
  C180     1.0000 0.94833  0.56770  0.41080  Biso   1.000  C
  C181     1.0000 0.89023  0.03070  0.90550  Biso   1.000  C
  C182     1.0000 0.89531  0.96880  0.83210  Biso   1.000  C
  C183     1.0000 0.91742  0.90990  0.81180  Biso   1.000  C
  H67      1.0000 0.93250  0.90720  0.84200  Biso   1.000  H
  C184     1.0000 0.91542  0.85300  0.74070  Biso   1.000  C
  H68      1.0000 0.92880  0.80800  0.71890  Biso   1.000  H
  C185     1.0000 0.89132  0.87240  0.70790  Biso   1.000  C
  C186     1.0000 0.88072  0.82330  0.63590  Biso   1.000  C
  C187     1.0000 0.89334  0.01780  0.14840  Biso   1.000  C
  C188     1.0000 0.88556  0.97110  0.22410  Biso   1.000  C
  C189     1.0000 0.86251  0.99550  0.25980  Biso   1.000  C
  H69      1.0000 0.85000  0.04710  0.24030  Biso   1.000  H
  C190     1.0000 0.85930  0.93510  0.32970  Biso   1.000  C
  H70      1.0000 0.84450  0.94270  0.36080  Biso   1.000  H
  C191     1.0000 0.88012  0.86500  0.34630  Biso   1.000  C
  C192     1.0000 0.88283  0.78640  0.41250  Biso   1.000  C
  C193     1.0000 0.82756  0.36630  0.91280  Biso   1.000  C
  C194     1.0000 0.83775  0.41840  0.84050  Biso   1.000  C
  C195     1.0000 0.86185  0.39560  0.80760  Biso   1.000  C
  H71      1.0000 0.87480  0.34780  0.82920  Biso   1.000  H
  C196     1.0000 0.86460  0.45430  0.73620  Biso   1.000  C
  H72      1.0000 0.87970  0.45030  0.70610  Biso   1.000  H
  C197     1.0000 0.84287  0.51640  0.71720  Biso   1.000  C
  C198     1.0000 0.83815  0.58480  0.64700  Biso   1.000  C
  C199     1.0000 0.78737  0.07900  0.13310  Biso   1.000  C
  C200     1.0000 0.77708  0.03100  0.20510  Biso   1.000  C
  C201     1.0000 0.75238  0.04070  0.23450  Biso   1.000  C
  H73      1.0000 0.73860  0.07960  0.21020  Biso   1.000  H
  C202     1.0000 0.75007  0.98480  0.30600  Biso   1.000  C
  H74      1.0000 0.73430  0.98080  0.33330  Biso   1.000  H
  C203     1.0000 0.77303  0.93780  0.33080  Biso   1.000  C
  C204     1.0000 0.77832  0.88430  0.40590  Biso   1.000  C
  C205     1.0000 0.78562  0.12170  0.91090  Biso   1.000  C
  C206     1.0000 0.78864  0.04180  0.84510  Biso   1.000  C
  C207     1.0000 0.80994  0.97260  0.82860  Biso   1.000  C
  H75      1.0000 0.82480  0.96700  0.85940  Biso   1.000  H
  C208     1.0000 0.80675  0.91070  0.75980  Biso   1.000  C
  H76      1.0000 0.81950  0.86070  0.73970  Biso   1.000  H
  C209     1.0000 0.78316  0.93150  0.72570  Biso   1.000  C
  C210     1.0000 0.77481  0.88460  0.64970  Biso   1.000  C
  C211     1.0000 0.84108  0.54170  0.40940  Biso   1.000  C
  C212     1.0000 0.83113  0.49380  0.33530  Biso   1.000  C
  C213     1.0000 0.80709  0.51400  0.30340  Biso   1.000  C
  H77      1.0000 0.79410  0.56070  0.32560  Biso   1.000  H
  C214     1.0000 0.80402  0.45590  0.23270  Biso   1.000  C
  H78      1.0000 0.78880  0.46010  0.20310  Biso   1.000  H
  C215     1.0000 0.82593  0.39290  0.21300  Biso   1.000  C
  C216     1.0000 0.83010  0.32080  0.14410  Biso   1.000  C
  O112     1.0000 0.96675  0.04430  0.93770  Biso   1.000  O
  O113     1.0000 0.00501  0.13270  0.96310  Biso   1.000  O
  O114     1.0000 0.98775  0.83130  0.63620  Biso   1.000  O
  O115     1.0000 0.02742  0.89720  0.60440  Biso   1.000  O
  O116     1.0000 0.96865  0.30870  0.96330  Biso   1.000  O
  O117     1.0000 0.92953  0.26670  0.91900  Biso   1.000  O
  O118     1.0000 0.95809  0.61550  0.61880  Biso   1.000  O
  O119     1.0000 0.91866  0.53570  0.63350  Biso   1.000  O
  O120     1.0000 0.97698  0.36870  0.12360  Biso   1.000  O
  O121     1.0000 0.93588  0.30130  0.10340  Biso   1.000  O
  O122     1.0000 0.96832  0.63250  0.41380  Biso   1.000  O
  O123     1.0000 0.93336  0.54290  0.46510  Biso   1.000  O
  O124     1.0000 0.90817  0.02230  0.95470  Biso   1.000  O
  O125     1.0000 0.86851  0.08050  0.91410  Biso   1.000  O
  O126     1.0000 0.89717  0.76610  0.59500  Biso   1.000  O
  O127     1.0000 0.85682  0.83350  0.62170  Biso   1.000  O
  O128     1.0000 0.91707  0.02800  0.13080  Biso   1.000  O
  O129     1.0000 0.87444  0.04570  0.10690  Biso   1.000  O
  O130     1.0000 0.89059  0.24490  0.02700  Biso   1.000  O
  O131     1.0000 0.86366  0.77050  0.45670  Biso   1.000  O
  O132     1.0000 0.84384  0.31200  0.95310  Biso   1.000  O
  O133     1.0000 0.80376  0.38490  0.92770  Biso   1.000  O
  O134     1.0000 0.85565  0.58470  0.59550  Biso   1.000  O
  O135     1.0000 0.81711  0.64120  0.63960  Biso   1.000  O
  O136     1.0000 0.81149  0.06380  0.11860  Biso   1.000  O
  O137     1.0000 0.77122  0.13520  0.09210  Biso   1.000  O
  O138     1.0000 0.79938  0.83110  0.41640  Biso   1.000  O
  O139     1.0000 0.76041  0.89750  0.45490  Biso   1.000  O
  O140     1.0000 0.80472  0.13410  0.95600  Biso   1.000  O
  O141     1.0000 0.76412  0.17520  0.91880  Biso   1.000  O
  O142     1.0000 0.75133  0.87440  0.63520  Biso   1.000  O
  O143     1.0000 0.79369  0.86400  0.60540  Biso   1.000  O
  O144     1.0000 0.86457  0.52040  0.42640  Biso   1.000  O
  O145     1.0000 0.82458  0.59660  0.44870  Biso   1.000  O
  O146     1.0000 0.85185  0.27050  0.13570  Biso   1.000  O
  O147     1.0000 0.81195  0.31210  0.09620  Biso   1.000  O
  O148     1.0000 0.90464  0.73540  0.42260  Biso   1.000  O
  S28      1.0000 0.98432  0.95045  0.78513  Biso   1.000  S
  S29      1.0000 0.93180  0.41082  0.77918  Biso   1.000  S
  S30      1.0000 0.96433  0.49780  0.26596  Biso   1.000  S
  S31      1.0000 0.87159  0.95927  0.76319  Biso   1.000  S
  S32      1.0000 0.90415  0.87457  0.27758  Biso   1.000  S
  S33      1.0000 0.81871  0.50787  0.78514  Biso   1.000  S
  S34      1.0000 0.79754  0.95482  0.26513  Biso   1.000  S
  S35      1.0000 0.76436  0.02752  0.77782  Biso   1.000  S
  S36      1.0000 0.85037  0.40612  0.27962  Biso   1.000  S
  Sm19     1.0000 0.01122  0.30639  0.03242  Biso   1.000  Sm
  Sm20     1.0000 0.93711  0.13535  0.02552  Biso   1.000  Sm
  Sm21     1.0000 0.84422  0.13578  0.02706  Biso   1.000  Sm
  Sm22     1.0000 0.77316  0.31470  0.02368  Biso   1.000  Sm
  Sm23     1.0000 0.89398  0.58937  0.52228  Biso   1.000  Sm
  Sm24     1.0000 0.82335  0.76712  0.52754  Biso   1.000  Sm
  H79      1.0000 0.88820  0.27600  0.07000  Biso   1.000  H
  H80      1.0000 0.89110  0.29500  0.99200  Biso   1.000  H
