data_image0
_cell_length_a       50.824
_cell_length_b       11.369
_cell_length_c       17.604
_cell_angle_alpha    90
_cell_angle_beta     90
_cell_angle_gamma    90

_symmetry_space_group_name_H-M    "P 1"
_symmetry_int_tables_number       1

loop_
  _symmetry_equiv_pos_as_xyz
  'x, y, z'

loop_
  _atom_site_label
  _atom_site_occupancy
  _atom_site_fract_x
  _atom_site_fract_y
  _atom_site_fract_z
  _atom_site_thermal_displace_type
  _atom_site_B_iso_or_equiv
  _atom_site_type_symbol
  C1       1.0000 0.50940  0.57080  0.42280  Biso   1.000  C
  C2       1.0000 0.49820  0.53090  0.34960  Biso   1.000  C
  C3       1.0000 0.47400  0.55470  0.32260  Biso   1.000  C
  H1       1.0000 0.46180  0.59980  0.34890  Biso   1.000  H
  C4       1.0000 0.46900  0.50460  0.25060  Biso   1.000  C
  H2       1.0000 0.45320  0.51110  0.22470  Biso   1.000  H
  C5       1.0000 0.49020  0.44660  0.22460  Biso   1.000  C
  C6       1.0000 0.49220  0.38450  0.15130  Biso   1.000  C
  C7       1.0000 0.54940  0.82050  0.41450  Biso   1.000  C
  C8       1.0000 0.54540  0.90320  0.34980  Biso   1.000  C
  C9       1.0000 0.52520  0.97680  0.33640  Biso   1.000  C
  H3       1.0000 0.51090  0.98540  0.36890  Biso   1.000  H
  C10      1.0000 0.52810  0.03960  0.26800  Biso   1.000  C
  H4       1.0000 0.51610  0.09530  0.25070  Biso   1.000  H
  C11      1.0000 0.55030  0.00950  0.23030  Biso   1.000  C
  C12      1.0000 0.55870  0.05650  0.15540  Biso   1.000  C
  C13      1.0000 0.54710  0.86010  0.64040  Biso   1.000  C
  C14      1.0000 0.55600  0.91310  0.71170  Biso   1.000  C
  C15      1.0000 0.57940  0.89950  0.74590  Biso   1.000  C
  H5       1.0000 0.59350  0.85930  0.72420  Biso   1.000  H
  C16      1.0000 0.58050  0.95210  0.81740  Biso   1.000  C
  H6       1.0000 0.59500  0.94710  0.84940  Biso   1.000  H
  C17      1.0000 0.55820  0.01110  0.83560  Biso   1.000  C
  C18      1.0000 0.55170  0.06740  0.90970  Biso   1.000  C
  C19      1.0000 0.60990  0.53090  0.40570  Biso   1.000  C
  C20      1.0000 0.60450  0.47020  0.33170  Biso   1.000  C
  C21      1.0000 0.58280  0.41080  0.31190  Biso   1.000  C
  H7       1.0000 0.56790  0.40750  0.34220  Biso   1.000  H
  C22      1.0000 0.58470  0.35360  0.24110  Biso   1.000  C
  H8       1.0000 0.57140  0.30790  0.21970  Biso   1.000  H
  C23      1.0000 0.60819  0.37400  0.20850  Biso   1.000  C
  C24      1.0000 0.61930  0.32390  0.13660  Biso   1.000  C
  C25      1.0000 0.60670  0.51980  0.65020  Biso   1.000  C
  C26      1.0000 0.61440  0.47110  0.72480  Biso   1.000  C
  C27      1.0000 0.63740  0.49350  0.75990  Biso   1.000  C
  H9       1.0000 0.65000  0.54410  0.74010  Biso   1.000  H
  C28      1.0000 0.64060  0.43370  0.82890  Biso   1.000  C
  H10      1.0000 0.65550  0.44060  0.85950  Biso   1.000  H
  C29      1.0000 0.61977  0.36490  0.84590  Biso   1.000  C
  C30      1.0000 0.61680  0.28840  0.91140  Biso   1.000  C
  C31      1.0000 0.67220  0.86980  0.41170  Biso   1.000  C
  C32      1.0000 0.66220  0.92160  0.33940  Biso   1.000  C
  C33      1.0000 0.63830  0.90000  0.30710  Biso   1.000  C
  H11      1.0000 0.62530  0.85330  0.32880  Biso   1.000  H
  C34      1.0000 0.63580  0.95800  0.23580  Biso   1.000  C
  H12      1.0000 0.62070  0.95460  0.20580  Biso   1.000  H
  C35      1.0000 0.65750  0.01840  0.21660  Biso   1.000  C
  C36      1.0000 0.66250  0.08750  0.14730  Biso   1.000  C
  C37      1.0000 0.71280  0.58180  0.63330  Biso   1.000  C
  C38      1.0000 0.72290  0.53470  0.70610  Biso   1.000  C
  C39      1.0000 0.74760  0.54620  0.73530  Biso   1.000  C
  H13      1.0000 0.76120  0.58570  0.71120  Biso   1.000  H
  C40      1.0000 0.74980  0.49100  0.80670  Biso   1.000  C
  H14      1.0000 0.76530  0.48790  0.83450  Biso   1.000  H
  C41      1.0000 0.72710  0.44330  0.83030  Biso   1.000  C
  C42      1.0000 0.72150  0.38800  0.90590  Biso   1.000  C
  C43      1.0000 0.71480  0.62530  0.40920  Biso   1.000  C
  C44      1.0000 0.71142  0.54540  0.34440  Biso   1.000  C
  C45      1.0000 0.69030  0.47850  0.32810  Biso   1.000  C
  H15      1.0000 0.67540  0.47390  0.35860  Biso   1.000  H
  C46      1.0000 0.69330  0.41680  0.25960  Biso   1.000  C
  H16      1.0000 0.68050  0.36750  0.23950  Biso   1.000  H
  C47      1.0000 0.71680  0.43600  0.22610  Biso   1.000  C
  C48      1.0000 0.72540  0.38950  0.15070  Biso   1.000  C
  C49      1.0000 0.65910  0.04280  0.90850  Biso   1.000  C
  C50      1.0000 0.66910  0.99580  0.83370  Biso   1.000  C
  C51      1.0000 0.69310  0.01560  0.80220  Biso   1.000  C
  H17      1.0000 0.70600  0.06260  0.82380  Biso   1.000  H
  C52      1.0000 0.69570  0.95650  0.73310  Biso   1.000  C
  H18      1.0000 0.71100  0.95880  0.70390  Biso   1.000  H
  C53      1.0000 0.67370  0.89470  0.71270  Biso   1.000  C
  C54      1.0000 0.66940  0.82440  0.64370  Biso   1.000  C
  O1       1.0000 0.53284  0.54140  0.43810  Biso   1.000  O
  O2       1.0000 0.49457  0.63020  0.46310  Biso   1.000  O
  O3       1.0000 0.51274  0.32860  0.13880  Biso   1.000  O
  O4       1.0000 0.47329  0.39150  0.10550  Biso   1.000  O
  O5       1.0000 0.53138  0.80680  0.46160  Biso   1.000  O
  O6       1.0000 0.57068  0.76590  0.41790  Biso   1.000  O
  O7       1.0000 0.54218  0.11150  0.11830  Biso   1.000  O
  O8       1.0000 0.58155  0.03420  0.13400  Biso   1.000  O
  O9       1.0000 0.52354  0.87270  0.62230  Biso   1.000  O
  O10      1.0000 0.56435  0.80430  0.60320  Biso   1.000  O
  O11      1.0000 0.53170  0.13220  0.91240  Biso   1.000  O
  O12      1.0000 0.56638  0.04260  0.96470  Biso   1.000  O
  O13      1.0000 0.59222  0.52190  0.45440  Biso   1.000  O
  O14      1.0000 0.63132  0.58180  0.41280  Biso   1.000  O
  O15      1.0000 0.60246  0.26750  0.09580  Biso   1.000  O
  O16      1.0000 0.64288  0.33660  0.12240  Biso   1.000  O
  O17      1.0000 0.58269  0.52680  0.63250  Biso   1.000  O
  O18      1.0000 0.62501  0.54940  0.60790  Biso   1.000  O
  O19      1.0000 0.60934  0.74810  0.52590  Biso   1.000  O
  O20      1.0000 0.63580  0.27120  0.95590  Biso   1.000  O
  O21      1.0000 0.65620  0.81560  0.45170  Biso   1.000  O
  O22      1.0000 0.69600  0.88980  0.42710  Biso   1.000  O
  O23      1.0000 0.64502  0.08820  0.09570  Biso   1.000  O
  O24      1.0000 0.68350  0.14230  0.14010  Biso   1.000  O
  O25      1.0000 0.68878  0.56490  0.61850  Biso   1.000  O
  O26      1.0000 0.72883  0.63680  0.59290  Biso   1.000  O
  O27      1.0000 0.70066  0.33540  0.91560  Biso   1.000  O
  O28      1.0000 0.73933  0.40320  0.95470  Biso   1.000  O
  O29      1.0000 0.69594  0.63810  0.45550  Biso   1.000  O
  O30      1.0000 0.73614  0.67830  0.41780  Biso   1.000  O
  O31      1.0000 0.74865  0.37880  0.13560  Biso   1.000  O
  O32      1.0000 0.70641  0.36860  0.10610  Biso   1.000  O
  O33      1.0000 0.63584  0.02030  0.92570  Biso   1.000  O
  O34      1.0000 0.67583  0.09830  0.94750  Biso   1.000  O
  O35      1.0000 0.64751  0.77520  0.63610  Biso   1.000  O
  O36      1.0000 0.68751  0.81370  0.59670  Biso   1.000  O
  O37      1.0000 0.59496  0.23730  0.92150  Biso   1.000  O
  S1       1.0000 0.51559  0.44780  0.28661  Biso   1.000  S
  S2       1.0000 0.56831  0.90910  0.27872  Biso   1.000  S
  S3       1.0000 0.53591  0.99920  0.76496  Biso   1.000  S
  S4       1.0000 0.62824  0.46060  0.26310  Biso   1.000  S
  S5       1.0000 0.59562  0.37630  0.77784  Biso   1.000  S
  S6       1.0000 0.68146  0.00970  0.28439  Biso   1.000  S
  S7       1.0000 0.70256  0.45830  0.76526  Biso   1.000  S
  S8       1.0000 0.73567  0.53050  0.27784  Biso   1.000  S
  S9       1.0000 0.64969  0.90850  0.77923  Biso   1.000  S
  Nd1      1.0000 0.48880  0.80697  0.53209  Biso   1.000  Nd
  Nd2      1.0000 0.56276  0.63470  0.52607  Biso   1.000  Nd
  Nd3      1.0000 0.65574  0.63834  0.52713  Biso   1.000  Nd
  Nd4      1.0000 0.72690  0.81775  0.52384  Biso   1.000  Nd
  Nd5      1.0000 0.60610  0.09001  0.02216  Biso   1.000  Nd
  Nd6      1.0000 0.67660  0.26959  0.02743  Biso   1.000  Nd
  H19      1.0000 0.61350  0.77800  0.56800  Biso   1.000  H
  H20      1.0000 0.60630  0.80200  0.49400  Biso   1.000  H
  C55      1.0000 0.49060  0.42920  0.92280  Biso   1.000  C
  C56      1.0000 0.50180  0.46910  0.84960  Biso   1.000  C
  C57      1.0000 0.52600  0.44530  0.82260  Biso   1.000  C
  H21      1.0000 0.53820  0.40020  0.84890  Biso   1.000  H
  C58      1.0000 0.53100  0.49540  0.75060  Biso   1.000  C
  H22      1.0000 0.54680  0.48890  0.72470  Biso   1.000  H
  C59      1.0000 0.50980  0.55340  0.72460  Biso   1.000  C
  C60      1.0000 0.50780  0.61550  0.65130  Biso   1.000  C
  C61      1.0000 0.45060  0.17950  0.91450  Biso   1.000  C
  C62      1.0000 0.45460  0.09680  0.84980  Biso   1.000  C
  C63      1.0000 0.47480  0.02320  0.83640  Biso   1.000  C
  H23      1.0000 0.48910  0.01460  0.86890  Biso   1.000  H
  C64      1.0000 0.47190  0.96040  0.76800  Biso   1.000  C
  H24      1.0000 0.48390  0.90470  0.75070  Biso   1.000  H
  C65      1.0000 0.44970  0.99050  0.73030  Biso   1.000  C
  C66      1.0000 0.44130  0.94350  0.65540  Biso   1.000  C
  C67      1.0000 0.45290  0.13990  0.14040  Biso   1.000  C
  C68      1.0000 0.44400  0.08690  0.21170  Biso   1.000  C
  C69      1.0000 0.42060  0.10050  0.24590  Biso   1.000  C
  H25      1.0000 0.40650  0.14070  0.22420  Biso   1.000  H
  C70      1.0000 0.41950  0.04790  0.31740  Biso   1.000  C
  H26      1.0000 0.40500  0.05290  0.34940  Biso   1.000  H
  C71      1.0000 0.44180  0.98890  0.33560  Biso   1.000  C
  C72      1.0000 0.44830  0.93260  0.40970  Biso   1.000  C
  C73      1.0000 0.39010  0.46910  0.90570  Biso   1.000  C
  C74      1.0000 0.39550  0.52980  0.83170  Biso   1.000  C
  C75      1.0000 0.41720  0.58920  0.81190  Biso   1.000  C
  H27      1.0000 0.43210  0.59250  0.84220  Biso   1.000  H
  C76      1.0000 0.41530  0.64640  0.74110  Biso   1.000  C
  H28      1.0000 0.42860  0.69210  0.71970  Biso   1.000  H
  C77      1.0000 0.39181  0.62600  0.70850  Biso   1.000  C
  C78      1.0000 0.38070  0.67610  0.63660  Biso   1.000  C
  C79      1.0000 0.39330  0.48020  0.15020  Biso   1.000  C
  C80      1.0000 0.38560  0.52890  0.22480  Biso   1.000  C
  C81      1.0000 0.36260  0.50650  0.25990  Biso   1.000  C
  H29      1.0000 0.35000  0.45590  0.24010  Biso   1.000  H
  C82      1.0000 0.35940  0.56630  0.32890  Biso   1.000  C
  H30      1.0000 0.34450  0.55940  0.35950  Biso   1.000  H
  C83      1.0000 0.38023  0.63510  0.34590  Biso   1.000  C
  C84      1.0000 0.38320  0.71160  0.41140  Biso   1.000  C
  C85      1.0000 0.32780  0.13020  0.91170  Biso   1.000  C
  C86      1.0000 0.33780  0.07840  0.83940  Biso   1.000  C
  C87      1.0000 0.36170  0.10000  0.80710  Biso   1.000  C
  H31      1.0000 0.37470  0.14670  0.82880  Biso   1.000  H
  C88      1.0000 0.36420  0.04200  0.73580  Biso   1.000  C
  H32      1.0000 0.37930  0.04540  0.70580  Biso   1.000  H
  C89      1.0000 0.34250  0.98160  0.71660  Biso   1.000  C
  C90      1.0000 0.33750  0.91250  0.64730  Biso   1.000  C
  C91      1.0000 0.28720  0.41820  0.13330  Biso   1.000  C
  C92      1.0000 0.27710  0.46530  0.20610  Biso   1.000  C
  C93      1.0000 0.25240  0.45380  0.23530  Biso   1.000  C
  H33      1.0000 0.23880  0.41430  0.21120  Biso   1.000  H
  C94      1.0000 0.25020  0.50900  0.30670  Biso   1.000  C
  H34      1.0000 0.23470  0.51210  0.33450  Biso   1.000  H
  C95      1.0000 0.27290  0.55670  0.33030  Biso   1.000  C
  C96      1.0000 0.27850  0.61200  0.40590  Biso   1.000  C
  C97      1.0000 0.28520  0.37470  0.90920  Biso   1.000  C
  C98      1.0000 0.28858  0.45460  0.84440  Biso   1.000  C
  C99      1.0000 0.30970  0.52150  0.82810  Biso   1.000  C
  H35      1.0000 0.32460  0.52610  0.85860  Biso   1.000  H
  C100     1.0000 0.30670  0.58320  0.75960  Biso   1.000  C
  H36      1.0000 0.31950  0.63250  0.73950  Biso   1.000  H
  C101     1.0000 0.28320  0.56400  0.72610  Biso   1.000  C
  C102     1.0000 0.27460  0.61050  0.65070  Biso   1.000  C
  C103     1.0000 0.34090  0.95720  0.40850  Biso   1.000  C
  C104     1.0000 0.33090  0.00420  0.33370  Biso   1.000  C
  C105     1.0000 0.30690  0.98440  0.30220  Biso   1.000  C
  H37      1.0000 0.29400  0.93740  0.32380  Biso   1.000  H
  C106     1.0000 0.30430  0.04350  0.23310  Biso   1.000  C
  H38      1.0000 0.28900  0.04120  0.20390  Biso   1.000  H
  C107     1.0000 0.32630  0.10530  0.21270  Biso   1.000  C
  C108     1.0000 0.33060  0.17560  0.14370  Biso   1.000  C
  O38      1.0000 0.46716  0.45860  0.93810  Biso   1.000  O
  O39      1.0000 0.50543  0.36980  0.96310  Biso   1.000  O
  O40      1.0000 0.48726  0.67140  0.63880  Biso   1.000  O
  O41      1.0000 0.52671  0.60850  0.60550  Biso   1.000  O
  O42      1.0000 0.46862  0.19320  0.96160  Biso   1.000  O
  O43      1.0000 0.42932  0.23410  0.91790  Biso   1.000  O
  O44      1.0000 0.45782  0.88850  0.61830  Biso   1.000  O
  O45      1.0000 0.41845  0.96580  0.63400  Biso   1.000  O
  O46      1.0000 0.47646  0.12730  0.12230  Biso   1.000  O
  O47      1.0000 0.43565  0.19570  0.10320  Biso   1.000  O
  O48      1.0000 0.46830  0.86780  0.41240  Biso   1.000  O
  O49      1.0000 0.43362  0.95740  0.46470  Biso   1.000  O
  O50      1.0000 0.40778  0.47810  0.95440  Biso   1.000  O
  O51      1.0000 0.36868  0.41820  0.91280  Biso   1.000  O
  O52      1.0000 0.39754  0.73250  0.59580  Biso   1.000  O
  O53      1.0000 0.35712  0.66340  0.62240  Biso   1.000  O
  O54      1.0000 0.41731  0.47320  0.13250  Biso   1.000  O
  O55      1.0000 0.37499  0.45060  0.10790  Biso   1.000  O
  O56      1.0000 0.39066  0.25190  0.02590  Biso   1.000  O
  O57      1.0000 0.36420  0.72880  0.45590  Biso   1.000  O
  O58      1.0000 0.34380  0.18440  0.95170  Biso   1.000  O
  O59      1.0000 0.30400  0.11020  0.92710  Biso   1.000  O
  O60      1.0000 0.35498  0.91180  0.59570  Biso   1.000  O
  O61      1.0000 0.31650  0.85770  0.64010  Biso   1.000  O
  O62      1.0000 0.31122  0.43510  0.11850  Biso   1.000  O
  O63      1.0000 0.27117  0.36320  0.09290  Biso   1.000  O
  O64      1.0000 0.29934  0.66460  0.41560  Biso   1.000  O
  O65      1.0000 0.26067  0.59680  0.45470  Biso   1.000  O
  O66      1.0000 0.30406  0.36190  0.95550  Biso   1.000  O
  O67      1.0000 0.26386  0.32170  0.91780  Biso   1.000  O
  O68      1.0000 0.25135  0.62120  0.63560  Biso   1.000  O
  O69      1.0000 0.29359  0.63140  0.60610  Biso   1.000  O
  O70      1.0000 0.36416  0.97970  0.42570  Biso   1.000  O
  O71      1.0000 0.32417  0.90170  0.44750  Biso   1.000  O
  O72      1.0000 0.35249  0.22480  0.13610  Biso   1.000  O
  O73      1.0000 0.31249  0.18630  0.09670  Biso   1.000  O
  O74      1.0000 0.40504  0.76270  0.42150  Biso   1.000  O
  S10      1.0000 0.48441  0.55220  0.78661  Biso   1.000  S
  S11      1.0000 0.43169  0.09090  0.77872  Biso   1.000  S
  S12      1.0000 0.46409  0.00080  0.26496  Biso   1.000  S
  S13      1.0000 0.37176  0.53940  0.76310  Biso   1.000  S
  S14      1.0000 0.40438  0.62370  0.27784  Biso   1.000  S
  S15      1.0000 0.31854  0.99030  0.78439  Biso   1.000  S
  S16      1.0000 0.29744  0.54170  0.26526  Biso   1.000  S
  S17      1.0000 0.26433  0.46950  0.77784  Biso   1.000  S
  S18      1.0000 0.35031  0.09150  0.27923  Biso   1.000  S
  Nd7      1.0000 0.51120  0.19303  0.03209  Biso   1.000  Nd
  Nd8      1.0000 0.43724  0.36530  0.02607  Biso   1.000  Nd
  Nd9      1.0000 0.34426  0.36166  0.02713  Biso   1.000  Nd
  Nd10     1.0000 0.27310  0.18225  0.02384  Biso   1.000  Nd
  Nd11     1.0000 0.39390  0.90999  0.52216  Biso   1.000  Nd
  Nd12     1.0000 0.32340  0.73041  0.52743  Biso   1.000  Nd
  H39      1.0000 0.38650  0.22200  0.06800  Biso   1.000  H
  H40      1.0000 0.39370  0.19800  0.99400  Biso   1.000  H
  C109     1.0000 0.00940  0.92920  0.42280  Biso   1.000  C
  C110     1.0000 0.99820  0.96910  0.34960  Biso   1.000  C
  C111     1.0000 0.97400  0.94530  0.32260  Biso   1.000  C
  H41      1.0000 0.96180  0.90020  0.34890  Biso   1.000  H
  C112     1.0000 0.96900  0.99540  0.25060  Biso   1.000  C
  H42      1.0000 0.95320  0.98890  0.22470  Biso   1.000  H
  C113     1.0000 0.99020  0.05340  0.22460  Biso   1.000  C
  C114     1.0000 0.99220  0.11550  0.15130  Biso   1.000  C
  C115     1.0000 0.04940  0.67950  0.41450  Biso   1.000  C
  C116     1.0000 0.04540  0.59680  0.34980  Biso   1.000  C
  C117     1.0000 0.02520  0.52320  0.33640  Biso   1.000  C
  H43      1.0000 0.01090  0.51460  0.36890  Biso   1.000  H
  C118     1.0000 0.02810  0.46040  0.26800  Biso   1.000  C
  H44      1.0000 0.01610  0.40470  0.25070  Biso   1.000  H
  C119     1.0000 0.05030  0.49050  0.23030  Biso   1.000  C
  C120     1.0000 0.05870  0.44350  0.15540  Biso   1.000  C
  C121     1.0000 0.04710  0.63990  0.64040  Biso   1.000  C
  C122     1.0000 0.05600  0.58690  0.71170  Biso   1.000  C
  C123     1.0000 0.07940  0.60050  0.74590  Biso   1.000  C
  H45      1.0000 0.09350  0.64070  0.72420  Biso   1.000  H
  C124     1.0000 0.08050  0.54790  0.81740  Biso   1.000  C
  H46      1.0000 0.09500  0.55290  0.84940  Biso   1.000  H
  C125     1.0000 0.05820  0.48890  0.83560  Biso   1.000  C
  C126     1.0000 0.05170  0.43260  0.90970  Biso   1.000  C
  C127     1.0000 0.10990  0.96910  0.40570  Biso   1.000  C
  C128     1.0000 0.10450  0.02980  0.33170  Biso   1.000  C
  C129     1.0000 0.08280  0.08920  0.31190  Biso   1.000  C
  H47      1.0000 0.06790  0.09250  0.34220  Biso   1.000  H
  C130     1.0000 0.08470  0.14640  0.24110  Biso   1.000  C
  H48      1.0000 0.07140  0.19210  0.21970  Biso   1.000  H
  C131     1.0000 0.10819  0.12600  0.20850  Biso   1.000  C
  C132     1.0000 0.11930  0.17610  0.13660  Biso   1.000  C
  C133     1.0000 0.10670  0.98020  0.65020  Biso   1.000  C
  C134     1.0000 0.11440  0.02890  0.72480  Biso   1.000  C
  C135     1.0000 0.13740  0.00650  0.75990  Biso   1.000  C
  H49      1.0000 0.15000  0.95590  0.74010  Biso   1.000  H
  C136     1.0000 0.14060  0.06630  0.82890  Biso   1.000  C
  H50      1.0000 0.15550  0.05940  0.85950  Biso   1.000  H
  C137     1.0000 0.11977  0.13510  0.84590  Biso   1.000  C
  C138     1.0000 0.11680  0.21160  0.91140  Biso   1.000  C
  C139     1.0000 0.17220  0.63020  0.41170  Biso   1.000  C
  C140     1.0000 0.16220  0.57840  0.33940  Biso   1.000  C
  C141     1.0000 0.13830  0.60000  0.30710  Biso   1.000  C
  H51      1.0000 0.12530  0.64670  0.32880  Biso   1.000  H
  C142     1.0000 0.13580  0.54200  0.23580  Biso   1.000  C
  H52      1.0000 0.12070  0.54540  0.20580  Biso   1.000  H
  C143     1.0000 0.15750  0.48160  0.21660  Biso   1.000  C
  C144     1.0000 0.16250  0.41250  0.14730  Biso   1.000  C
  C145     1.0000 0.21280  0.91820  0.63330  Biso   1.000  C
  C146     1.0000 0.22290  0.96530  0.70610  Biso   1.000  C
  C147     1.0000 0.24760  0.95380  0.73530  Biso   1.000  C
  H53      1.0000 0.26120  0.91430  0.71120  Biso   1.000  H
  C148     1.0000 0.24980  0.00900  0.80670  Biso   1.000  C
  H54      1.0000 0.26530  0.01210  0.83450  Biso   1.000  H
  C149     1.0000 0.22710  0.05670  0.83030  Biso   1.000  C
  C150     1.0000 0.22150  0.11200  0.90590  Biso   1.000  C
  C151     1.0000 0.21480  0.87470  0.40920  Biso   1.000  C
  C152     1.0000 0.21142  0.95460  0.34440  Biso   1.000  C
  C153     1.0000 0.19030  0.02150  0.32810  Biso   1.000  C
  H55      1.0000 0.17540  0.02610  0.35860  Biso   1.000  H
  C154     1.0000 0.19330  0.08320  0.25960  Biso   1.000  C
  H56      1.0000 0.18050  0.13250  0.23950  Biso   1.000  H
  C155     1.0000 0.21680  0.06400  0.22610  Biso   1.000  C
  C156     1.0000 0.22540  0.11050  0.15070  Biso   1.000  C
  C157     1.0000 0.15910  0.45720  0.90850  Biso   1.000  C
  C158     1.0000 0.16910  0.50420  0.83370  Biso   1.000  C
  C159     1.0000 0.19310  0.48440  0.80220  Biso   1.000  C
  H57      1.0000 0.20600  0.43740  0.82380  Biso   1.000  H
  C160     1.0000 0.19570  0.54350  0.73310  Biso   1.000  C
  H58      1.0000 0.21100  0.54120  0.70390  Biso   1.000  H
  C161     1.0000 0.17370  0.60530  0.71270  Biso   1.000  C
  C162     1.0000 0.16940  0.67560  0.64370  Biso   1.000  C
  O75      1.0000 0.03284  0.95860  0.43810  Biso   1.000  O
  O76      1.0000 0.99457  0.86980  0.46310  Biso   1.000  O
  O77      1.0000 0.01274  0.17140  0.13880  Biso   1.000  O
  O78      1.0000 0.97329  0.10850  0.10550  Biso   1.000  O
  O79      1.0000 0.03138  0.69320  0.46160  Biso   1.000  O
  O80      1.0000 0.07068  0.73410  0.41790  Biso   1.000  O
  O81      1.0000 0.04218  0.38850  0.11830  Biso   1.000  O
  O82      1.0000 0.08155  0.46580  0.13400  Biso   1.000  O
  O83      1.0000 0.02354  0.62730  0.62230  Biso   1.000  O
  O84      1.0000 0.06435  0.69570  0.60320  Biso   1.000  O
  O85      1.0000 0.03170  0.36780  0.91240  Biso   1.000  O
  O86      1.0000 0.06638  0.45740  0.96470  Biso   1.000  O
  O87      1.0000 0.09222  0.97810  0.45440  Biso   1.000  O
  O88      1.0000 0.13132  0.91820  0.41280  Biso   1.000  O
  O89      1.0000 0.10246  0.23250  0.09580  Biso   1.000  O
  O90      1.0000 0.14288  0.16340  0.12240  Biso   1.000  O
  O91      1.0000 0.08269  0.97320  0.63250  Biso   1.000  O
  O92      1.0000 0.12501  0.95060  0.60790  Biso   1.000  O
  O93      1.0000 0.10934  0.75190  0.52590  Biso   1.000  O
  O94      1.0000 0.13580  0.22880  0.95590  Biso   1.000  O
  O95      1.0000 0.15620  0.68440  0.45170  Biso   1.000  O
  O96      1.0000 0.19600  0.61020  0.42710  Biso   1.000  O
  O97      1.0000 0.14502  0.41180  0.09570  Biso   1.000  O
  O98      1.0000 0.18350  0.35770  0.14010  Biso   1.000  O
  O99      1.0000 0.18878  0.93510  0.61850  Biso   1.000  O
  O100     1.0000 0.22883  0.86320  0.59290  Biso   1.000  O
  O101     1.0000 0.20066  0.16460  0.91560  Biso   1.000  O
  O102     1.0000 0.23933  0.09680  0.95470  Biso   1.000  O
  O103     1.0000 0.19594  0.86190  0.45550  Biso   1.000  O
  O104     1.0000 0.23614  0.82170  0.41780  Biso   1.000  O
  O105     1.0000 0.24865  0.12120  0.13560  Biso   1.000  O
  O106     1.0000 0.20641  0.13140  0.10610  Biso   1.000  O
  O107     1.0000 0.13584  0.47970  0.92570  Biso   1.000  O
  O108     1.0000 0.17583  0.40170  0.94750  Biso   1.000  O
  O109     1.0000 0.14751  0.72480  0.63610  Biso   1.000  O
  O110     1.0000 0.18751  0.68630  0.59670  Biso   1.000  O
  O111     1.0000 0.09496  0.26270  0.92150  Biso   1.000  O
  S19      1.0000 0.01559  0.05220  0.28661  Biso   1.000  S
  S20      1.0000 0.06831  0.59090  0.27872  Biso   1.000  S
  S21      1.0000 0.03591  0.50080  0.76496  Biso   1.000  S
  S22      1.0000 0.12824  0.03940  0.26310  Biso   1.000  S
  S23      1.0000 0.09562  0.12370  0.77784  Biso   1.000  S
  S24      1.0000 0.18146  0.49030  0.28439  Biso   1.000  S
  S25      1.0000 0.20256  0.04170  0.76526  Biso   1.000  S
  S26      1.0000 0.23567  0.96950  0.27784  Biso   1.000  S
  S27      1.0000 0.14969  0.59150  0.77923  Biso   1.000  S
  Nd13     1.0000 0.98880  0.69303  0.53209  Biso   1.000  Nd
  Nd14     1.0000 0.06276  0.86530  0.52607  Biso   1.000  Nd
  Nd15     1.0000 0.15574  0.86166  0.52713  Biso   1.000  Nd
  Nd16     1.0000 0.22690  0.68225  0.52384  Biso   1.000  Nd
  Nd17     1.0000 0.10610  0.40999  0.02216  Biso   1.000  Nd
  Nd18     1.0000 0.17660  0.23041  0.02743  Biso   1.000  Nd
  H59      1.0000 0.11350  0.72200  0.56800  Biso   1.000  H
  H60      1.0000 0.10630  0.69800  0.49400  Biso   1.000  H
  C163     1.0000 0.99060  0.07080  0.92280  Biso   1.000  C
  C164     1.0000 0.00180  0.03090  0.84960  Biso   1.000  C
  C165     1.0000 0.02600  0.05470  0.82260  Biso   1.000  C
  H61      1.0000 0.03820  0.09980  0.84890  Biso   1.000  H
  C166     1.0000 0.03100  0.00460  0.75060  Biso   1.000  C
  H62      1.0000 0.04680  0.01110  0.72470  Biso   1.000  H
  C167     1.0000 0.00980  0.94660  0.72460  Biso   1.000  C
  C168     1.0000 0.00780  0.88450  0.65130  Biso   1.000  C
  C169     1.0000 0.95060  0.32050  0.91450  Biso   1.000  C
  C170     1.0000 0.95460  0.40320  0.84980  Biso   1.000  C
  C171     1.0000 0.97480  0.47680  0.83640  Biso   1.000  C
  H63      1.0000 0.98910  0.48540  0.86890  Biso   1.000  H
  C172     1.0000 0.97190  0.53960  0.76800  Biso   1.000  C
  H64      1.0000 0.98390  0.59530  0.75070  Biso   1.000  H
  C173     1.0000 0.94970  0.50950  0.73030  Biso   1.000  C
  C174     1.0000 0.94130  0.55650  0.65540  Biso   1.000  C
  C175     1.0000 0.95290  0.36010  0.14040  Biso   1.000  C
  C176     1.0000 0.94400  0.41310  0.21170  Biso   1.000  C
  C177     1.0000 0.92060  0.39950  0.24590  Biso   1.000  C
  H65      1.0000 0.90650  0.35930  0.22420  Biso   1.000  H
  C178     1.0000 0.91950  0.45210  0.31740  Biso   1.000  C
  H66      1.0000 0.90500  0.44710  0.34940  Biso   1.000  H
  C179     1.0000 0.94180  0.51110  0.33560  Biso   1.000  C
  C180     1.0000 0.94830  0.56740  0.40970  Biso   1.000  C
  C181     1.0000 0.89010  0.03090  0.90570  Biso   1.000  C
  C182     1.0000 0.89550  0.97020  0.83170  Biso   1.000  C
  C183     1.0000 0.91720  0.91080  0.81190  Biso   1.000  C
  H67      1.0000 0.93210  0.90750  0.84220  Biso   1.000  H
  C184     1.0000 0.91530  0.85360  0.74110  Biso   1.000  C
  H68      1.0000 0.92860  0.80790  0.71970  Biso   1.000  H
  C185     1.0000 0.89181  0.87400  0.70850  Biso   1.000  C
  C186     1.0000 0.88070  0.82390  0.63660  Biso   1.000  C
  C187     1.0000 0.89330  0.01980  0.15020  Biso   1.000  C
  C188     1.0000 0.88560  0.97110  0.22480  Biso   1.000  C
  C189     1.0000 0.86260  0.99350  0.25990  Biso   1.000  C
  H69      1.0000 0.85000  0.04410  0.24010  Biso   1.000  H
  C190     1.0000 0.85940  0.93370  0.32890  Biso   1.000  C
  H70      1.0000 0.84450  0.94060  0.35950  Biso   1.000  H
  C191     1.0000 0.88023  0.86490  0.34590  Biso   1.000  C
  C192     1.0000 0.88320  0.78840  0.41140  Biso   1.000  C
  C193     1.0000 0.82780  0.36980  0.91170  Biso   1.000  C
  C194     1.0000 0.83780  0.42160  0.83940  Biso   1.000  C
  C195     1.0000 0.86170  0.40000  0.80710  Biso   1.000  C
  H71      1.0000 0.87470  0.35330  0.82880  Biso   1.000  H
  C196     1.0000 0.86420  0.45800  0.73580  Biso   1.000  C
  H72      1.0000 0.87930  0.45460  0.70580  Biso   1.000  H
  C197     1.0000 0.84250  0.51840  0.71660  Biso   1.000  C
  C198     1.0000 0.83750  0.58750  0.64730  Biso   1.000  C
  C199     1.0000 0.78720  0.08180  0.13330  Biso   1.000  C
  C200     1.0000 0.77710  0.03470  0.20610  Biso   1.000  C
  C201     1.0000 0.75240  0.04620  0.23530  Biso   1.000  C
  H73      1.0000 0.73880  0.08570  0.21120  Biso   1.000  H
  C202     1.0000 0.75020  0.99100  0.30670  Biso   1.000  C
  H74      1.0000 0.73470  0.98790  0.33450  Biso   1.000  H
  C203     1.0000 0.77290  0.94330  0.33030  Biso   1.000  C
  C204     1.0000 0.77850  0.88800  0.40590  Biso   1.000  C
  C205     1.0000 0.78520  0.12530  0.90920  Biso   1.000  C
  C206     1.0000 0.78858  0.04540  0.84440  Biso   1.000  C
  C207     1.0000 0.80970  0.97850  0.82810  Biso   1.000  C
  H75      1.0000 0.82460  0.97390  0.85860  Biso   1.000  H
  C208     1.0000 0.80670  0.91680  0.75960  Biso   1.000  C
  H76      1.0000 0.81950  0.86750  0.73950  Biso   1.000  H
  C209     1.0000 0.78320  0.93600  0.72610  Biso   1.000  C
  C210     1.0000 0.77460  0.88950  0.65070  Biso   1.000  C
  C211     1.0000 0.84090  0.54280  0.40850  Biso   1.000  C
  C212     1.0000 0.83090  0.49580  0.33370  Biso   1.000  C
  C213     1.0000 0.80690  0.51560  0.30220  Biso   1.000  C
  H77      1.0000 0.79400  0.56260  0.32380  Biso   1.000  H
  C214     1.0000 0.80430  0.45650  0.23310  Biso   1.000  C
  H78      1.0000 0.78900  0.45880  0.20390  Biso   1.000  H
  C215     1.0000 0.82630  0.39470  0.21270  Biso   1.000  C
  C216     1.0000 0.83060  0.32440  0.14370  Biso   1.000  C
  O112     1.0000 0.96716  0.04140  0.93810  Biso   1.000  O
  O113     1.0000 0.00543  0.13020  0.96310  Biso   1.000  O
  O114     1.0000 0.98726  0.82860  0.63880  Biso   1.000  O
  O115     1.0000 0.02671  0.89150  0.60550  Biso   1.000  O
  O116     1.0000 0.96862  0.30680  0.96160  Biso   1.000  O
  O117     1.0000 0.92932  0.26590  0.91790  Biso   1.000  O
  O118     1.0000 0.95782  0.61150  0.61830  Biso   1.000  O
  O119     1.0000 0.91845  0.53420  0.63400  Biso   1.000  O
  O120     1.0000 0.97646  0.37270  0.12230  Biso   1.000  O
  O121     1.0000 0.93565  0.30430  0.10320  Biso   1.000  O
  O122     1.0000 0.96830  0.63220  0.41240  Biso   1.000  O
  O123     1.0000 0.93362  0.54260  0.46470  Biso   1.000  O
  O124     1.0000 0.90778  0.02190  0.95440  Biso   1.000  O
  O125     1.0000 0.86868  0.08180  0.91280  Biso   1.000  O
  O126     1.0000 0.89754  0.76750  0.59580  Biso   1.000  O
  O127     1.0000 0.85712  0.83660  0.62240  Biso   1.000  O
  O128     1.0000 0.91731  0.02680  0.13250  Biso   1.000  O
  O129     1.0000 0.87499  0.04940  0.10790  Biso   1.000  O
  O130     1.0000 0.89066  0.24810  0.02590  Biso   1.000  O
  O131     1.0000 0.86420  0.77120  0.45590  Biso   1.000  O
  O132     1.0000 0.84380  0.31560  0.95170  Biso   1.000  O
  O133     1.0000 0.80400  0.38980  0.92710  Biso   1.000  O
  O134     1.0000 0.85498  0.58820  0.59570  Biso   1.000  O
  O135     1.0000 0.81650  0.64230  0.64010  Biso   1.000  O
  O136     1.0000 0.81122  0.06490  0.11850  Biso   1.000  O
  O137     1.0000 0.77117  0.13680  0.09290  Biso   1.000  O
  O138     1.0000 0.79934  0.83540  0.41560  Biso   1.000  O
  O139     1.0000 0.76067  0.90320  0.45470  Biso   1.000  O
  O140     1.0000 0.80406  0.13810  0.95550  Biso   1.000  O
  O141     1.0000 0.76386  0.17830  0.91780  Biso   1.000  O
  O142     1.0000 0.75135  0.87880  0.63560  Biso   1.000  O
  O143     1.0000 0.79359  0.86860  0.60610  Biso   1.000  O
  O144     1.0000 0.86416  0.52030  0.42570  Biso   1.000  O
  O145     1.0000 0.82417  0.59830  0.44750  Biso   1.000  O
  O146     1.0000 0.85249  0.27520  0.13610  Biso   1.000  O
  O147     1.0000 0.81249  0.31370  0.09670  Biso   1.000  O
  O148     1.0000 0.90504  0.73730  0.42150  Biso   1.000  O
  S28      1.0000 0.98441  0.94780  0.78661  Biso   1.000  S
  S29      1.0000 0.93169  0.40910  0.77872  Biso   1.000  S
  S30      1.0000 0.96409  0.49920  0.26496  Biso   1.000  S
  S31      1.0000 0.87176  0.96060  0.76310  Biso   1.000  S
  S32      1.0000 0.90438  0.87630  0.27784  Biso   1.000  S
  S33      1.0000 0.81854  0.50970  0.78439  Biso   1.000  S
  S34      1.0000 0.79744  0.95830  0.26526  Biso   1.000  S
  S35      1.0000 0.76433  0.03050  0.77784  Biso   1.000  S
  S36      1.0000 0.85031  0.40850  0.27923  Biso   1.000  S
  Nd19     1.0000 0.01120  0.30697  0.03209  Biso   1.000  Nd
  Nd20     1.0000 0.93724  0.13470  0.02607  Biso   1.000  Nd
  Nd21     1.0000 0.84426  0.13834  0.02713  Biso   1.000  Nd
  Nd22     1.0000 0.77310  0.31775  0.02384  Biso   1.000  Nd
  Nd23     1.0000 0.89390  0.59001  0.52216  Biso   1.000  Nd
  Nd24     1.0000 0.82340  0.76959  0.52743  Biso   1.000  Nd
  H79      1.0000 0.88650  0.27800  0.06800  Biso   1.000  H
  H80      1.0000 0.89370  0.30200  0.99400  Biso   1.000  H
