data_image0
_cell_length_a       17.3778
_cell_length_b       11.6404
_cell_length_c       18.3475
_cell_angle_alpha    90
_cell_angle_beta     110.413
_cell_angle_gamma    90

_symmetry_space_group_name_H-M    "P 1"
_symmetry_int_tables_number       1

loop_
  _symmetry_equiv_pos_as_xyz
  'x, y, z'

loop_
  _atom_site_label
  _atom_site_occupancy
  _atom_site_fract_x
  _atom_site_fract_y
  _atom_site_fract_z
  _atom_site_thermal_displace_type
  _atom_site_B_iso_or_equiv
  _atom_site_type_symbol
  Tb1      1.0000 0.00103  0.91691  0.40541  Biso   1.000  Tb
  Tb2      1.0000 0.49766  0.56926  0.60114  Biso   1.000  Tb
  S1       1.0000 0.25036  0.79523  0.41038  Biso   1.000  S
  S2       1.0000 0.24412  0.70701  0.61034  Biso   1.000  S
  S3       1.0000 0.26399  0.27363  0.55926  Biso   1.000  S
  O1       1.0000 0.10109  0.93390  0.35161  Biso   1.000  O
  O2       1.0000 0.40481  0.58300  0.66402  Biso   1.000  O
  O3       1.0000 0.40761  0.41400  0.55876  Biso   1.000  O
  O4       1.0000 0.40391  0.53700  0.78163  Biso   1.000  O
  O5       1.0000 0.07810  0.90960  0.22526  Biso   1.000  O
  O6       1.0000 0.08026  0.05270  0.49489  Biso   1.000  O
  O7       1.0000 0.07064  0.90840  0.62462  Biso   1.000  O
  O8       1.0000 0.42418  0.56860  0.43392  Biso   1.000  O
  O9       1.0000 0.42104  0.32850  0.45394  Biso   1.000  O
  O10      1.0000 0.08231  0.82060  0.51974  Biso   1.000  O
  C1       1.0000 0.11630  0.88820  0.29440  Biso   1.000  C
  O11      1.0000 0.39592  0.68690  0.51591  Biso   1.000  O
  C2       1.0000 0.37490  0.58740  0.71650  Biso   1.000  C
  C3       1.0000 0.18650  0.80730  0.31500  Biso   1.000  C
  O12      1.0000 0.11692  0.18320  0.58770  Biso   1.000  O
  C4       1.0000 0.38940  0.34010  0.50580  Biso   1.000  C
  C5       1.0000 0.29840  0.65360  0.70170  Biso   1.000  C
  C6       1.0000 0.20140  0.16100  0.51240  Biso   1.000  C
  C7       1.0000 0.19300  0.75390  0.72260  Biso   1.000  C
  H1       1.0000 0.16280  0.78420  0.75110  Biso   1.000  H
  C8       1.0000 0.26350  0.68460  0.75510  Biso   1.000  C
  H2       1.0000 0.28390  0.66250  0.80710  Biso   1.000  H
  C9       1.0000 0.10360  0.83890  0.59210  Biso   1.000  C
  C10      1.0000 0.32280  0.25810  0.50140  Biso   1.000  C
  C11      1.0000 0.17420  0.77140  0.64480  Biso   1.000  C
  C12      1.0000 0.12910  0.13100  0.53250  Biso   1.000  C
  C13      1.0000 0.22630  0.11350  0.45550  Biso   1.000  C
  H3       1.0000 0.20010  0.05180  0.42460  Biso   1.000  H
  C14      1.0000 0.38090  0.64700  0.44850  Biso   1.000  C
  C15      1.0000 0.28020  0.67090  0.30790  Biso   1.000  C
  H4       1.0000 0.30450  0.61850  0.28440  Biso   1.000  H
  C16      1.0000 0.29550  0.16880  0.44970  Biso   1.000  C
  H5       1.0000 0.32050  0.14730  0.41440  Biso   1.000  H
  C17      1.0000 0.30890  0.69380  0.38580  Biso   1.000  C
  C18      1.0000 0.20910  0.73590  0.26690  Biso   1.000  C
  H6       1.0000 0.18120  0.73050  0.21360  Biso   1.000  H
  Tb3      1.0000 0.99897  0.91691  0.09459  Biso   1.000  Tb
  Tb4      1.0000 0.50234  0.56926  0.89886  Biso   1.000  Tb
  S4       1.0000 0.74964  0.79523  0.08962  Biso   1.000  S
  S5       1.0000 0.75588  0.70701  0.88966  Biso   1.000  S
  S6       1.0000 0.73601  0.27363  0.94074  Biso   1.000  S
  O13      1.0000 0.89891  0.93390  0.14839  Biso   1.000  O
  O14      1.0000 0.59519  0.58300  0.83598  Biso   1.000  O
  O15      1.0000 0.59239  0.41400  0.94124  Biso   1.000  O
  O16      1.0000 0.59609  0.53700  0.71837  Biso   1.000  O
  O17      1.0000 0.92190  0.90960  0.27474  Biso   1.000  O
  O18      1.0000 0.91974  0.05270  0.00511  Biso   1.000  O
  O19      1.0000 0.92936  0.90840  0.87538  Biso   1.000  O
  O20      1.0000 0.57582  0.56860  0.06608  Biso   1.000  O
  O21      1.0000 0.57896  0.32850  0.04606  Biso   1.000  O
  O22      1.0000 0.91769  0.82060  0.98026  Biso   1.000  O
  C19      1.0000 0.88370  0.88820  0.20560  Biso   1.000  C
  O23      1.0000 0.60408  0.68690  0.98409  Biso   1.000  O
  C20      1.0000 0.62510  0.58740  0.78350  Biso   1.000  C
  C21      1.0000 0.81350  0.80730  0.18500  Biso   1.000  C
  O24      1.0000 0.88308  0.18320  0.91230  Biso   1.000  O
  C22      1.0000 0.61060  0.34010  0.99420  Biso   1.000  C
  C23      1.0000 0.70160  0.65360  0.79830  Biso   1.000  C
  C24      1.0000 0.79860  0.16100  0.98760  Biso   1.000  C
  C25      1.0000 0.80700  0.75390  0.77740  Biso   1.000  C
  H7       1.0000 0.83720  0.78420  0.74890  Biso   1.000  H
  C26      1.0000 0.73650  0.68460  0.74490  Biso   1.000  C
  H8       1.0000 0.71610  0.66250  0.69290  Biso   1.000  H
  C27      1.0000 0.89640  0.83890  0.90790  Biso   1.000  C
  C28      1.0000 0.67720  0.25810  0.99860  Biso   1.000  C
  C29      1.0000 0.82580  0.77140  0.85520  Biso   1.000  C
  C30      1.0000 0.87090  0.13100  0.96750  Biso   1.000  C
  C31      1.0000 0.77370  0.11350  0.04450  Biso   1.000  C
  H9       1.0000 0.79990  0.05180  0.07540  Biso   1.000  H
  C32      1.0000 0.61910  0.64700  0.05150  Biso   1.000  C
  C33      1.0000 0.71980  0.67090  0.19210  Biso   1.000  C
  H10      1.0000 0.69550  0.61850  0.21560  Biso   1.000  H
  C34      1.0000 0.70450  0.16880  0.05030  Biso   1.000  C
  H11      1.0000 0.67950  0.14730  0.08560  Biso   1.000  H
  C35      1.0000 0.69110  0.69380  0.11420  Biso   1.000  C
  C36      1.0000 0.79090  0.73590  0.23310  Biso   1.000  C
  H12      1.0000 0.81880  0.73050  0.28640  Biso   1.000  H
  Tb5      1.0000 0.99897  0.08309  0.59459  Biso   1.000  Tb
  Tb6      1.0000 0.50234  0.43074  0.39886  Biso   1.000  Tb
  S7       1.0000 0.74964  0.20477  0.58962  Biso   1.000  S
  S8       1.0000 0.75588  0.29299  0.38966  Biso   1.000  S
  S9       1.0000 0.73601  0.72637  0.44074  Biso   1.000  S
  O25      1.0000 0.89891  0.06610  0.64839  Biso   1.000  O
  O26      1.0000 0.59519  0.41700  0.33598  Biso   1.000  O
  O27      1.0000 0.59239  0.58600  0.44124  Biso   1.000  O
  O28      1.0000 0.59609  0.46300  0.21837  Biso   1.000  O
  O29      1.0000 0.92190  0.09040  0.77474  Biso   1.000  O
  O30      1.0000 0.91974  0.94730  0.50511  Biso   1.000  O
  O31      1.0000 0.92936  0.09160  0.37538  Biso   1.000  O
  O32      1.0000 0.57582  0.43140  0.56608  Biso   1.000  O
  O33      1.0000 0.57896  0.67150  0.54606  Biso   1.000  O
  O34      1.0000 0.91769  0.17940  0.48026  Biso   1.000  O
  C37      1.0000 0.88370  0.11180  0.70560  Biso   1.000  C
  O35      1.0000 0.60408  0.31310  0.48409  Biso   1.000  O
  C38      1.0000 0.62510  0.41260  0.28350  Biso   1.000  C
  C39      1.0000 0.81350  0.19270  0.68500  Biso   1.000  C
  O36      1.0000 0.88308  0.81680  0.41230  Biso   1.000  O
  C40      1.0000 0.61060  0.65990  0.49420  Biso   1.000  C
  C41      1.0000 0.70160  0.34640  0.29830  Biso   1.000  C
  C42      1.0000 0.79860  0.83900  0.48760  Biso   1.000  C
  C43      1.0000 0.80700  0.24610  0.27740  Biso   1.000  C
  H13      1.0000 0.83720  0.21580  0.24890  Biso   1.000  H
  C44      1.0000 0.73650  0.31540  0.24490  Biso   1.000  C
  H14      1.0000 0.71610  0.33750  0.19290  Biso   1.000  H
  C45      1.0000 0.89640  0.16110  0.40790  Biso   1.000  C
  C46      1.0000 0.67720  0.74190  0.49860  Biso   1.000  C
  C47      1.0000 0.82580  0.22860  0.35520  Biso   1.000  C
  C48      1.0000 0.87090  0.86900  0.46750  Biso   1.000  C
  C49      1.0000 0.77370  0.88650  0.54450  Biso   1.000  C
  H15      1.0000 0.79990  0.94820  0.57540  Biso   1.000  H
  C50      1.0000 0.61910  0.35300  0.55150  Biso   1.000  C
  C51      1.0000 0.71980  0.32910  0.69210  Biso   1.000  C
  H16      1.0000 0.69550  0.38150  0.71560  Biso   1.000  H
  C52      1.0000 0.70450  0.83120  0.55030  Biso   1.000  C
  H17      1.0000 0.67950  0.85270  0.58560  Biso   1.000  H
  C53      1.0000 0.69110  0.30620  0.61420  Biso   1.000  C
  C54      1.0000 0.79090  0.26410  0.73310  Biso   1.000  C
  H18      1.0000 0.81880  0.26950  0.78640  Biso   1.000  H
  Tb7      1.0000 0.00103  0.08309  0.90541  Biso   1.000  Tb
  Tb8      1.0000 0.49766  0.43074  0.10114  Biso   1.000  Tb
  S10      1.0000 0.25036  0.20477  0.91038  Biso   1.000  S
  S11      1.0000 0.24412  0.29299  0.11034  Biso   1.000  S
  S12      1.0000 0.26399  0.72637  0.05926  Biso   1.000  S
  O37      1.0000 0.10109  0.06610  0.85161  Biso   1.000  O
  O38      1.0000 0.40481  0.41700  0.16402  Biso   1.000  O
  O39      1.0000 0.40761  0.58600  0.05876  Biso   1.000  O
  O40      1.0000 0.40391  0.46300  0.28163  Biso   1.000  O
  O41      1.0000 0.07810  0.09040  0.72526  Biso   1.000  O
  O42      1.0000 0.08026  0.94730  0.99489  Biso   1.000  O
  O43      1.0000 0.07064  0.09160  0.12462  Biso   1.000  O
  O44      1.0000 0.42418  0.43140  0.93392  Biso   1.000  O
  O45      1.0000 0.42104  0.67150  0.95394  Biso   1.000  O
  O46      1.0000 0.08231  0.17940  0.01974  Biso   1.000  O
  C55      1.0000 0.11630  0.11180  0.79440  Biso   1.000  C
  O47      1.0000 0.39592  0.31310  0.01591  Biso   1.000  O
  C56      1.0000 0.37490  0.41260  0.21650  Biso   1.000  C
  C57      1.0000 0.18650  0.19270  0.81500  Biso   1.000  C
  O48      1.0000 0.11692  0.81680  0.08770  Biso   1.000  O
  C58      1.0000 0.38940  0.65990  0.00580  Biso   1.000  C
  C59      1.0000 0.29840  0.34640  0.20170  Biso   1.000  C
  C60      1.0000 0.20140  0.83900  0.01240  Biso   1.000  C
  C61      1.0000 0.19300  0.24610  0.22260  Biso   1.000  C
  H19      1.0000 0.16280  0.21580  0.25110  Biso   1.000  H
  C62      1.0000 0.26350  0.31540  0.25510  Biso   1.000  C
  H20      1.0000 0.28390  0.33750  0.30710  Biso   1.000  H
  C63      1.0000 0.10360  0.16110  0.09210  Biso   1.000  C
  C64      1.0000 0.32280  0.74190  0.00140  Biso   1.000  C
  C65      1.0000 0.17420  0.22860  0.14480  Biso   1.000  C
  C66      1.0000 0.12910  0.86900  0.03250  Biso   1.000  C
  C67      1.0000 0.22630  0.88650  0.95550  Biso   1.000  C
  H21      1.0000 0.20010  0.94820  0.92460  Biso   1.000  H
  C68      1.0000 0.38090  0.35300  0.94850  Biso   1.000  C
  C69      1.0000 0.28020  0.32910  0.80790  Biso   1.000  C
  H22      1.0000 0.30450  0.38150  0.78440  Biso   1.000  H
  C70      1.0000 0.29550  0.83120  0.94970  Biso   1.000  C
  H23      1.0000 0.32050  0.85270  0.91440  Biso   1.000  H
  C71      1.0000 0.30890  0.30620  0.88580  Biso   1.000  C
  C72      1.0000 0.20910  0.26410  0.76690  Biso   1.000  C
  H24      1.0000 0.18120  0.26950  0.71360  Biso   1.000  H
