data_image0
_cell_length_a       17.2053
_cell_length_b       11.6462
_cell_length_c       18.2629
_cell_angle_alpha    90
_cell_angle_beta     110.462
_cell_angle_gamma    90

_symmetry_space_group_name_H-M    "P 1"
_symmetry_int_tables_number       1

loop_
  _symmetry_equiv_pos_as_xyz
  'x, y, z'

loop_
  _atom_site_label
  _atom_site_occupancy
  _atom_site_fract_x
  _atom_site_fract_y
  _atom_site_fract_z
  _atom_site_thermal_displace_type
  _atom_site_B_iso_or_equiv
  _atom_site_type_symbol
  Yb1      1.0000 0.49724  0.07133  0.10204  Biso   1.000  Yb
  Yb2      1.0000 0.99839  0.41658  0.59569  Biso   1.000  Yb
  S1       1.0000 0.75521  0.21080  0.39112  Biso   1.000  S
  S2       1.0000 0.26288  0.22461  0.55761  Biso   1.000  S
  S3       1.0000 0.25117  0.29118  0.90790  Biso   1.000  S
  O1       1.0000 0.07640  0.41120  0.72370  Biso   1.000  O
  C1       1.0000 0.62290  0.09260  0.28480  Biso   1.000  C
  O2       1.0000 0.59440  0.08460  0.33830  Biso   1.000  O
  O3       1.0000 0.40630  0.07880  0.55690  Biso   1.000  O
  O4       1.0000 0.91870  0.32570  0.48280  Biso   1.000  O
  C2       1.0000 0.38280  0.14170  0.94320  Biso   1.000  C
  C3       1.0000 0.29650  0.32530  0.44860  Biso   1.000  C
  H1       1.0000 0.32160  0.34530  0.41280  Biso   1.000  H
  C4       1.0000 0.11480  0.38850  0.79320  Biso   1.000  C
  O5       1.0000 0.39740  0.17500  0.01150  Biso   1.000  O
  C5       1.0000 0.82520  0.27730  0.35750  Biso   1.000  C
  C6       1.0000 0.39030  0.15170  0.50460  Biso   1.000  C
  C7       1.0000 0.12690  0.37200  0.52720  Biso   1.000  C
  O6       1.0000 0.42540  0.06790  0.92350  Biso   1.000  O
  C8       1.0000 0.20920  0.24130  0.76180  Biso   1.000  C
  H2       1.0000 0.18160  0.23960  0.70800  Biso   1.000  H
  C9       1.0000 0.89550  0.34650  0.41050  Biso   1.000  C
  O7       1.0000 0.10090  0.43060  0.85200  Biso   1.000  O
  O8       1.0000 0.08050  0.44890  0.48730  Biso   1.000  O
  O9       1.0000 0.42220  0.16550  0.45320  Biso   1.000  O
  O10      1.0000 0.11350  0.32620  0.58360  Biso   1.000  O
  O11      1.0000 0.59200  0.04440  0.21850  Biso   1.000  O
  C10      1.0000 0.70010  0.15950  0.29940  Biso   1.000  C
  C11      1.0000 0.18670  0.30760  0.81210  Biso   1.000  C
  C12      1.0000 0.22800  0.38350  0.45380  Biso   1.000  C
  H3       1.0000 0.20330  0.44630  0.42300  Biso   1.000  H
  C13      1.0000 0.32390  0.23680  0.50010  Biso   1.000  C
  C14      1.0000 0.73570  0.19040  0.24530  Biso   1.000  C
  H4       1.0000 0.71570  0.16810  0.19310  Biso   1.000  H
  C15      1.0000 0.31070  0.19430  0.88080  Biso   1.000  C
  C16      1.0000 0.80590  0.25960  0.27900  Biso   1.000  C
  H5       1.0000 0.83650  0.29050  0.25060  Biso   1.000  H
  C17      1.0000 0.28040  0.17520  0.80210  Biso   1.000  C
  H6       1.0000 0.30430  0.12360  0.77720  Biso   1.000  H
  C18      1.0000 0.20130  0.33760  0.50940  Biso   1.000  C
  O12      1.0000 0.92650  0.41810  0.37770  Biso   1.000  O
  Yb3      1.0000 0.50276  0.07133  0.39796  Biso   1.000  Yb
  Yb4      1.0000 0.00161  0.41658  0.90431  Biso   1.000  Yb
  S4       1.0000 0.24479  0.21080  0.10888  Biso   1.000  S
  S5       1.0000 0.73712  0.22461  0.94239  Biso   1.000  S
  S6       1.0000 0.74883  0.29118  0.59210  Biso   1.000  S
  O13      1.0000 0.92360  0.41120  0.77630  Biso   1.000  O
  C19      1.0000 0.37710  0.09260  0.21520  Biso   1.000  C
  O14      1.0000 0.40560  0.08460  0.16170  Biso   1.000  O
  O15      1.0000 0.59370  0.07880  0.94310  Biso   1.000  O
  O16      1.0000 0.08130  0.32570  0.01720  Biso   1.000  O
  C20      1.0000 0.61720  0.14170  0.55680  Biso   1.000  C
  C21      1.0000 0.70350  0.32530  0.05140  Biso   1.000  C
  H7       1.0000 0.67840  0.34530  0.08720  Biso   1.000  H
  C22      1.0000 0.88520  0.38850  0.70680  Biso   1.000  C
  O17      1.0000 0.60260  0.17500  0.48850  Biso   1.000  O
  C23      1.0000 0.17480  0.27730  0.14250  Biso   1.000  C
  C24      1.0000 0.60970  0.15170  0.99540  Biso   1.000  C
  C25      1.0000 0.87310  0.37200  0.97280  Biso   1.000  C
  O18      1.0000 0.57460  0.06790  0.57650  Biso   1.000  O
  C26      1.0000 0.79080  0.24130  0.73820  Biso   1.000  C
  H8       1.0000 0.81840  0.23960  0.79200  Biso   1.000  H
  C27      1.0000 0.10450  0.34650  0.08950  Biso   1.000  C
  O19      1.0000 0.89910  0.43060  0.64800  Biso   1.000  O
  O20      1.0000 0.91950  0.44890  0.01270  Biso   1.000  O
  O21      1.0000 0.57780  0.16550  0.04680  Biso   1.000  O
  O22      1.0000 0.88650  0.32620  0.91640  Biso   1.000  O
  O23      1.0000 0.40800  0.04440  0.28150  Biso   1.000  O
  C28      1.0000 0.29990  0.15950  0.20060  Biso   1.000  C
  C29      1.0000 0.81330  0.30760  0.68790  Biso   1.000  C
  C30      1.0000 0.77200  0.38350  0.04620  Biso   1.000  C
  H9       1.0000 0.79670  0.44630  0.07700  Biso   1.000  H
  C31      1.0000 0.67610  0.23680  0.99990  Biso   1.000  C
  C32      1.0000 0.26430  0.19040  0.25470  Biso   1.000  C
  H10      1.0000 0.28430  0.16810  0.30690  Biso   1.000  H
  C33      1.0000 0.68930  0.19430  0.61920  Biso   1.000  C
  C34      1.0000 0.19410  0.25960  0.22100  Biso   1.000  C
  H11      1.0000 0.16350  0.29050  0.24940  Biso   1.000  H
  C35      1.0000 0.71960  0.17520  0.69790  Biso   1.000  C
  H12      1.0000 0.69570  0.12360  0.72280  Biso   1.000  H
  C36      1.0000 0.79870  0.33760  0.99060  Biso   1.000  C
  O24      1.0000 0.07350  0.41810  0.12230  Biso   1.000  O
  Yb5      1.0000 0.50276  0.92867  0.89796  Biso   1.000  Yb
  Yb6      1.0000 0.00161  0.58342  0.40431  Biso   1.000  Yb
  S7       1.0000 0.24479  0.78920  0.60888  Biso   1.000  S
  S8       1.0000 0.73712  0.77539  0.44239  Biso   1.000  S
  S9       1.0000 0.74883  0.70882  0.09210  Biso   1.000  S
  O25      1.0000 0.92360  0.58880  0.27630  Biso   1.000  O
  C37      1.0000 0.37710  0.90740  0.71520  Biso   1.000  C
  O26      1.0000 0.40560  0.91540  0.66170  Biso   1.000  O
  O27      1.0000 0.59370  0.92120  0.44310  Biso   1.000  O
  O28      1.0000 0.08130  0.67430  0.51720  Biso   1.000  O
  C38      1.0000 0.61720  0.85830  0.05680  Biso   1.000  C
  C39      1.0000 0.70350  0.67470  0.55140  Biso   1.000  C
  H13      1.0000 0.67840  0.65470  0.58720  Biso   1.000  H
  C40      1.0000 0.88520  0.61150  0.20680  Biso   1.000  C
  O29      1.0000 0.60260  0.82500  0.98850  Biso   1.000  O
  C41      1.0000 0.17480  0.72270  0.64250  Biso   1.000  C
  C42      1.0000 0.60970  0.84830  0.49540  Biso   1.000  C
  C43      1.0000 0.87310  0.62800  0.47280  Biso   1.000  C
  O30      1.0000 0.57460  0.93210  0.07650  Biso   1.000  O
  C44      1.0000 0.79080  0.75870  0.23820  Biso   1.000  C
  H14      1.0000 0.81840  0.76040  0.29200  Biso   1.000  H
  C45      1.0000 0.10450  0.65350  0.58950  Biso   1.000  C
  O31      1.0000 0.89910  0.56940  0.14800  Biso   1.000  O
  O32      1.0000 0.91950  0.55110  0.51270  Biso   1.000  O
  O33      1.0000 0.57780  0.83450  0.54680  Biso   1.000  O
  O34      1.0000 0.88650  0.67380  0.41640  Biso   1.000  O
  O35      1.0000 0.40800  0.95560  0.78150  Biso   1.000  O
  C46      1.0000 0.29990  0.84050  0.70060  Biso   1.000  C
  C47      1.0000 0.81330  0.69240  0.18790  Biso   1.000  C
  C48      1.0000 0.77200  0.61650  0.54620  Biso   1.000  C
  H15      1.0000 0.79670  0.55370  0.57700  Biso   1.000  H
  C49      1.0000 0.67610  0.76320  0.49990  Biso   1.000  C
  C50      1.0000 0.26430  0.80960  0.75470  Biso   1.000  C
  H16      1.0000 0.28430  0.83190  0.80690  Biso   1.000  H
  C51      1.0000 0.68930  0.80570  0.11920  Biso   1.000  C
  C52      1.0000 0.19410  0.74040  0.72100  Biso   1.000  C
  H17      1.0000 0.16350  0.70950  0.74940  Biso   1.000  H
  C53      1.0000 0.71960  0.82480  0.19790  Biso   1.000  C
  H18      1.0000 0.69570  0.87640  0.22280  Biso   1.000  H
  C54      1.0000 0.79870  0.66240  0.49060  Biso   1.000  C
  O36      1.0000 0.07350  0.58190  0.62230  Biso   1.000  O
  Yb7      1.0000 0.49724  0.92867  0.60204  Biso   1.000  Yb
  Yb8      1.0000 0.99839  0.58342  0.09569  Biso   1.000  Yb
  S10      1.0000 0.75521  0.78920  0.89112  Biso   1.000  S
  S11      1.0000 0.26288  0.77539  0.05761  Biso   1.000  S
  S12      1.0000 0.25117  0.70882  0.40790  Biso   1.000  S
  O37      1.0000 0.07640  0.58880  0.22370  Biso   1.000  O
  C55      1.0000 0.62290  0.90740  0.78480  Biso   1.000  C
  O38      1.0000 0.59440  0.91540  0.83830  Biso   1.000  O
  O39      1.0000 0.40630  0.92120  0.05690  Biso   1.000  O
  O40      1.0000 0.91870  0.67430  0.98280  Biso   1.000  O
  C56      1.0000 0.38280  0.85830  0.44320  Biso   1.000  C
  C57      1.0000 0.29650  0.67470  0.94860  Biso   1.000  C
  H19      1.0000 0.32160  0.65470  0.91280  Biso   1.000  H
  C58      1.0000 0.11480  0.61150  0.29320  Biso   1.000  C
  O41      1.0000 0.39740  0.82500  0.51150  Biso   1.000  O
  C59      1.0000 0.82520  0.72270  0.85750  Biso   1.000  C
  C60      1.0000 0.39030  0.84830  0.00460  Biso   1.000  C
  C61      1.0000 0.12690  0.62800  0.02720  Biso   1.000  C
  O42      1.0000 0.42540  0.93210  0.42350  Biso   1.000  O
  C62      1.0000 0.20920  0.75870  0.26180  Biso   1.000  C
  H20      1.0000 0.18160  0.76040  0.20800  Biso   1.000  H
  C63      1.0000 0.89550  0.65350  0.91050  Biso   1.000  C
  O43      1.0000 0.10090  0.56940  0.35200  Biso   1.000  O
  O44      1.0000 0.08050  0.55110  0.98730  Biso   1.000  O
  O45      1.0000 0.42220  0.83450  0.95320  Biso   1.000  O
  O46      1.0000 0.11350  0.67380  0.08360  Biso   1.000  O
  O47      1.0000 0.59200  0.95560  0.71850  Biso   1.000  O
  C64      1.0000 0.70010  0.84050  0.79940  Biso   1.000  C
  C65      1.0000 0.18670  0.69240  0.31210  Biso   1.000  C
  C66      1.0000 0.22800  0.61650  0.95380  Biso   1.000  C
  H21      1.0000 0.20330  0.55370  0.92300  Biso   1.000  H
  C67      1.0000 0.32390  0.76320  0.00010  Biso   1.000  C
  C68      1.0000 0.73570  0.80960  0.74530  Biso   1.000  C
  H22      1.0000 0.71570  0.83190  0.69310  Biso   1.000  H
  C69      1.0000 0.31070  0.80570  0.38080  Biso   1.000  C
  C70      1.0000 0.80590  0.74040  0.77900  Biso   1.000  C
  H23      1.0000 0.83650  0.70950  0.75060  Biso   1.000  H
  C71      1.0000 0.28040  0.82480  0.30210  Biso   1.000  C
  H24      1.0000 0.30430  0.87640  0.27720  Biso   1.000  H
  C72      1.0000 0.20130  0.66240  0.00940  Biso   1.000  C
  O48      1.0000 0.92650  0.58190  0.87770  Biso   1.000  O
