data_image0
_cell_length_a       17.3974
_cell_length_b       11.6453
_cell_length_c       18.375
_cell_angle_alpha    90
_cell_angle_beta     110.319
_cell_angle_gamma    90

_symmetry_space_group_name_H-M    "P 1"
_symmetry_int_tables_number       1

loop_
  _symmetry_equiv_pos_as_xyz
  'x, y, z'

loop_
  _atom_site_label
  _atom_site_occupancy
  _atom_site_fract_x
  _atom_site_fract_y
  _atom_site_fract_z
  _atom_site_thermal_displace_type
  _atom_site_B_iso_or_equiv
  _atom_site_type_symbol
  Gd1      1.0000 0.99877  0.58356  0.59425  Biso   1.000  Gd
  Gd2      1.0000 0.50253  0.93123  0.39947  Biso   1.000  Gd
  S1       1.0000 0.75579  0.79396  0.38899  Biso   1.000  S
  S2       1.0000 0.74986  0.70412  0.58934  Biso   1.000  S
  S3       1.0000 0.73507  0.22755  0.44019  Biso   1.000  S
  O1       1.0000 0.59578  0.91940  0.33596  Biso   1.000  O
  O2       1.0000 0.88271  0.31480  0.41234  Biso   1.000  O
  C1       1.0000 0.88330  0.61170  0.70570  Biso   1.000  C
  O3       1.0000 0.60550  0.81180  0.48312  Biso   1.000  O
  O4       1.0000 0.91653  0.68010  0.47910  Biso   1.000  O
  C2       1.0000 0.79810  0.33900  0.48740  Biso   1.000  C
  C3       1.0000 0.81300  0.69280  0.68450  Biso   1.000  C
  C4       1.0000 0.60880  0.16330  0.49320  Biso   1.000  C
  C5       1.0000 0.80610  0.74500  0.27660  Biso   1.000  C
  H1       1.0000 0.83630  0.71460  0.24820  Biso   1.000  H
  C6       1.0000 0.78990  0.76490  0.73250  Biso   1.000  C
  H2       1.0000 0.81730  0.77000  0.78570  Biso   1.000  H
  O5       1.0000 0.59683  0.96370  0.21825  Biso   1.000  O
  O6       1.0000 0.57689  0.93250  0.56289  Biso   1.000  O
  C7       1.0000 0.62020  0.85300  0.55000  Biso   1.000  C
  O7       1.0000 0.59030  0.09090  0.43950  Biso   1.000  O
  O8       1.0000 0.91952  0.44630  0.50394  Biso   1.000  O
  C8       1.0000 0.69100  0.80610  0.61340  Biso   1.000  C
  C9       1.0000 0.67590  0.24450  0.49780  Biso   1.000  C
  C10      1.0000 0.77370  0.38790  0.54260  Biso   1.000  C
  H3       1.0000 0.79970  0.45020  0.57270  Biso   1.000  H
  C11      1.0000 0.89620  0.66160  0.40790  Biso   1.000  C
  O9       1.0000 0.57757  0.17440  0.54478  Biso   1.000  O
  C12      1.0000 0.82540  0.72760  0.35500  Biso   1.000  C
  C13      1.0000 0.70200  0.84610  0.29750  Biso   1.000  C
  C14      1.0000 0.73610  0.81370  0.24380  Biso   1.000  C
  H4       1.0000 0.71530  0.83470  0.19180  Biso   1.000  H
  C15      1.0000 0.70380  0.33260  0.54900  Biso   1.000  C
  H5       1.0000 0.67940  0.35440  0.58460  Biso   1.000  H
  C16      1.0000 0.71980  0.83050  0.69140  Biso   1.000  C
  H6       1.0000 0.69590  0.88400  0.71460  Biso   1.000  H
  O10      1.0000 0.89851  0.56530  0.64898  Biso   1.000  O
  O11      1.0000 0.92125  0.59200  0.77493  Biso   1.000  O
  O12      1.0000 0.92930  0.59250  0.37504  Biso   1.000  O
  C17      1.0000 0.62580  0.91370  0.28320  Biso   1.000  C
  C18      1.0000 0.87010  0.36840  0.46660  Biso   1.000  C
  Gd3      1.0000 0.00123  0.58356  0.90575  Biso   1.000  Gd
  Gd4      1.0000 0.49747  0.93123  0.10053  Biso   1.000  Gd
  S4       1.0000 0.24421  0.79396  0.11101  Biso   1.000  S
  S5       1.0000 0.25014  0.70412  0.91066  Biso   1.000  S
  S6       1.0000 0.26493  0.22755  0.05981  Biso   1.000  S
  O13      1.0000 0.40422  0.91940  0.16404  Biso   1.000  O
  O14      1.0000 0.11729  0.31480  0.08766  Biso   1.000  O
  C19      1.0000 0.11670  0.61170  0.79430  Biso   1.000  C
  O15      1.0000 0.39450  0.81180  0.01688  Biso   1.000  O
  O16      1.0000 0.08347  0.68010  0.02090  Biso   1.000  O
  C20      1.0000 0.20190  0.33900  0.01260  Biso   1.000  C
  C21      1.0000 0.18700  0.69280  0.81550  Biso   1.000  C
  C22      1.0000 0.39120  0.16330  0.00680  Biso   1.000  C
  C23      1.0000 0.19390  0.74500  0.22340  Biso   1.000  C
  H7       1.0000 0.16370  0.71460  0.25180  Biso   1.000  H
  C24      1.0000 0.21010  0.76490  0.76750  Biso   1.000  C
  H8       1.0000 0.18270  0.77000  0.71430  Biso   1.000  H
  O17      1.0000 0.40317  0.96370  0.28175  Biso   1.000  O
  O18      1.0000 0.42311  0.93250  0.93711  Biso   1.000  O
  C25      1.0000 0.37980  0.85300  0.95000  Biso   1.000  C
  O19      1.0000 0.40970  0.09090  0.06050  Biso   1.000  O
  O20      1.0000 0.08048  0.44630  0.99606  Biso   1.000  O
  C26      1.0000 0.30900  0.80610  0.88660  Biso   1.000  C
  C27      1.0000 0.32410  0.24450  0.00220  Biso   1.000  C
  C28      1.0000 0.22630  0.38790  0.95740  Biso   1.000  C
  H9       1.0000 0.20030  0.45020  0.92730  Biso   1.000  H
  C29      1.0000 0.10380  0.66160  0.09210  Biso   1.000  C
  O21      1.0000 0.42243  0.17440  0.95522  Biso   1.000  O
  C30      1.0000 0.17460  0.72760  0.14500  Biso   1.000  C
  C31      1.0000 0.29800  0.84610  0.20250  Biso   1.000  C
  C32      1.0000 0.26390  0.81370  0.25620  Biso   1.000  C
  H10      1.0000 0.28470  0.83470  0.30820  Biso   1.000  H
  C33      1.0000 0.29620  0.33260  0.95100  Biso   1.000  C
  H11      1.0000 0.32060  0.35440  0.91540  Biso   1.000  H
  C34      1.0000 0.28020  0.83050  0.80860  Biso   1.000  C
  H12      1.0000 0.30410  0.88400  0.78540  Biso   1.000  H
  O22      1.0000 0.10149  0.56530  0.85102  Biso   1.000  O
  O23      1.0000 0.07875  0.59200  0.72507  Biso   1.000  O
  O24      1.0000 0.07070  0.59250  0.12496  Biso   1.000  O
  C35      1.0000 0.37420  0.91370  0.21680  Biso   1.000  C
  C36      1.0000 0.12990  0.36840  0.03340  Biso   1.000  C
  Gd5      1.0000 0.00123  0.41644  0.40574  Biso   1.000  Gd
  Gd6      1.0000 0.49747  0.06877  0.60053  Biso   1.000  Gd
  S7       1.0000 0.24421  0.20604  0.61101  Biso   1.000  S
  S8       1.0000 0.25014  0.29588  0.41066  Biso   1.000  S
  S9       1.0000 0.26493  0.77245  0.55981  Biso   1.000  S
  O25      1.0000 0.40422  0.08060  0.66404  Biso   1.000  O
  O26      1.0000 0.11729  0.68520  0.58766  Biso   1.000  O
  C37      1.0000 0.11670  0.38830  0.29430  Biso   1.000  C
  O27      1.0000 0.39450  0.18820  0.51688  Biso   1.000  O
  O28      1.0000 0.08347  0.31990  0.52090  Biso   1.000  O
  C38      1.0000 0.20190  0.66100  0.51260  Biso   1.000  C
  C39      1.0000 0.18700  0.30720  0.31550  Biso   1.000  C
  C40      1.0000 0.39120  0.83670  0.50680  Biso   1.000  C
  C41      1.0000 0.19390  0.25500  0.72340  Biso   1.000  C
  H13      1.0000 0.16370  0.28540  0.75180  Biso   1.000  H
  C42      1.0000 0.21010  0.23510  0.26750  Biso   1.000  C
  H14      1.0000 0.18270  0.23000  0.21430  Biso   1.000  H
  O29      1.0000 0.40317  0.03630  0.78175  Biso   1.000  O
  O30      1.0000 0.42311  0.06750  0.43711  Biso   1.000  O
  C43      1.0000 0.37980  0.14700  0.45000  Biso   1.000  C
  O31      1.0000 0.40970  0.90910  0.56050  Biso   1.000  O
  O32      1.0000 0.08048  0.55370  0.49606  Biso   1.000  O
  C44      1.0000 0.30900  0.19390  0.38660  Biso   1.000  C
  C45      1.0000 0.32410  0.75550  0.50220  Biso   1.000  C
  C46      1.0000 0.22630  0.61210  0.45740  Biso   1.000  C
  H15      1.0000 0.20030  0.54980  0.42730  Biso   1.000  H
  C47      1.0000 0.10380  0.33840  0.59210  Biso   1.000  C
  O33      1.0000 0.42243  0.82560  0.45522  Biso   1.000  O
  C48      1.0000 0.17460  0.27240  0.64500  Biso   1.000  C
  C49      1.0000 0.29800  0.15390  0.70250  Biso   1.000  C
  C50      1.0000 0.26390  0.18630  0.75620  Biso   1.000  C
  H16      1.0000 0.28470  0.16530  0.80820  Biso   1.000  H
  C51      1.0000 0.29620  0.66740  0.45100  Biso   1.000  C
  H17      1.0000 0.32060  0.64560  0.41540  Biso   1.000  H
  C52      1.0000 0.28020  0.16950  0.30860  Biso   1.000  C
  H18      1.0000 0.30410  0.11600  0.28540  Biso   1.000  H
  O34      1.0000 0.10149  0.43470  0.35102  Biso   1.000  O
  O35      1.0000 0.07875  0.40800  0.22507  Biso   1.000  O
  O36      1.0000 0.07070  0.40750  0.62496  Biso   1.000  O
  C53      1.0000 0.37420  0.08630  0.71680  Biso   1.000  C
  C54      1.0000 0.12990  0.63160  0.53340  Biso   1.000  C
  Gd7      1.0000 0.99877  0.41644  0.09425  Biso   1.000  Gd
  Gd8      1.0000 0.50253  0.06877  0.89947  Biso   1.000  Gd
  S10      1.0000 0.75579  0.20604  0.88899  Biso   1.000  S
  S11      1.0000 0.74986  0.29588  0.08934  Biso   1.000  S
  S12      1.0000 0.73507  0.77245  0.94019  Biso   1.000  S
  O37      1.0000 0.59578  0.08060  0.83596  Biso   1.000  O
  O38      1.0000 0.88271  0.68520  0.91234  Biso   1.000  O
  C55      1.0000 0.88330  0.38830  0.20570  Biso   1.000  C
  O39      1.0000 0.60550  0.18820  0.98312  Biso   1.000  O
  O40      1.0000 0.91653  0.31990  0.97910  Biso   1.000  O
  C56      1.0000 0.79810  0.66100  0.98740  Biso   1.000  C
  C57      1.0000 0.81300  0.30720  0.18450  Biso   1.000  C
  C58      1.0000 0.60880  0.83670  0.99320  Biso   1.000  C
  C59      1.0000 0.80610  0.25500  0.77660  Biso   1.000  C
  H19      1.0000 0.83630  0.28540  0.74820  Biso   1.000  H
  C60      1.0000 0.78990  0.23510  0.23250  Biso   1.000  C
  H20      1.0000 0.81730  0.23000  0.28570  Biso   1.000  H
  O41      1.0000 0.59683  0.03630  0.71825  Biso   1.000  O
  O42      1.0000 0.57689  0.06750  0.06289  Biso   1.000  O
  C61      1.0000 0.62020  0.14700  0.05000  Biso   1.000  C
  O43      1.0000 0.59030  0.90910  0.93950  Biso   1.000  O
  O44      1.0000 0.91952  0.55370  0.00394  Biso   1.000  O
  C62      1.0000 0.69100  0.19390  0.11340  Biso   1.000  C
  C63      1.0000 0.67590  0.75550  0.99780  Biso   1.000  C
  C64      1.0000 0.77370  0.61210  0.04260  Biso   1.000  C
  H21      1.0000 0.79970  0.54980  0.07270  Biso   1.000  H
  C65      1.0000 0.89620  0.33840  0.90790  Biso   1.000  C
  O45      1.0000 0.57757  0.82560  0.04478  Biso   1.000  O
  C66      1.0000 0.82540  0.27240  0.85500  Biso   1.000  C
  C67      1.0000 0.70200  0.15390  0.79750  Biso   1.000  C
  C68      1.0000 0.73610  0.18630  0.74380  Biso   1.000  C
  H22      1.0000 0.71530  0.16530  0.69180  Biso   1.000  H
  C69      1.0000 0.70380  0.66740  0.04900  Biso   1.000  C
  H23      1.0000 0.67940  0.64560  0.08460  Biso   1.000  H
  C70      1.0000 0.71980  0.16950  0.19140  Biso   1.000  C
  H24      1.0000 0.69590  0.11600  0.21460  Biso   1.000  H
  O46      1.0000 0.89851  0.43470  0.14898  Biso   1.000  O
  O47      1.0000 0.92125  0.40800  0.27493  Biso   1.000  O
  O48      1.0000 0.92930  0.40750  0.87504  Biso   1.000  O
  C71      1.0000 0.62580  0.08630  0.78320  Biso   1.000  C
  C72      1.0000 0.87010  0.63160  0.96660  Biso   1.000  C
