data_image0
_cell_length_a       15.486
_cell_length_b       9.815
_cell_length_c       9.8365
_cell_angle_alpha    90
_cell_angle_beta     105.99
_cell_angle_gamma    90

_symmetry_space_group_name_H-M    "P 1"
_symmetry_int_tables_number       1

loop_
  _symmetry_equiv_pos_as_xyz
  'x, y, z'

loop_
  _atom_site_label
  _atom_site_occupancy
  _atom_site_fract_x
  _atom_site_fract_y
  _atom_site_fract_z
  _atom_site_thermal_displace_type
  _atom_site_B_iso_or_equiv
  _atom_site_type_symbol
  Zn1      1.0000 0.55238  0.17945  0.44840  Biso   1.000  Zn
  Zn2      1.0000 0.94569  0.08485  0.67825  Biso   1.000  Zn
  P1       1.0000 0.73378  0.01800  0.59808  Biso   1.000  P
  H1       1.0000 0.33800  0.41200  0.13000  Biso   1.000  H
  H2       1.0000 0.63800  0.94500  0.68200  Biso   1.000  H
  P2       1.0000 0.48399  0.39513  0.20839  Biso   1.000  P
  P3       1.0000 0.98531  0.79078  0.56132  Biso   1.000  P
  H3       1.0000 0.85600  0.82500  0.46500  Biso   1.000  H
  O1       1.0000 0.67627  0.13880  0.53710  Biso   1.000  O
  O2       1.0000 0.54566  0.35340  0.35270  Biso   1.000  O
  O3       1.0000 0.82369  0.05610  0.69640  Biso   1.000  O
  O4       1.0000 0.99415  0.90700  0.66430  Biso   1.000  O
  O5       1.0000 0.74734  0.92500  0.47960  Biso   1.000  O
  O6       1.0000 0.68613  0.92950  0.68850  Biso   1.000  O
  O7       1.0000 0.48733  0.29380  0.09210  Biso   1.000  O
  O8       1.0000 0.51586  0.53680  0.17400  Biso   1.000  O
  O9       1.0000 0.38724  0.40210  0.22100  Biso   1.000  O
  O10      1.0000 0.05563  0.79500  0.47850  Biso   1.000  O
  O11      1.0000 0.99089  0.65310  0.63500  Biso   1.000  O
  O12      1.0000 0.89213  0.79620  0.44520  Biso   1.000  O
  Zn3      1.0000 0.44762  0.67945  0.05160  Biso   1.000  Zn
  Zn4      1.0000 0.05431  0.58485  0.82175  Biso   1.000  Zn
  P4       1.0000 0.26622  0.51800  0.90192  Biso   1.000  P
  H4       1.0000 0.66200  0.91200  0.37000  Biso   1.000  H
  H5       1.0000 0.36200  0.44500  0.81800  Biso   1.000  H
  P5       1.0000 0.51601  0.89513  0.29161  Biso   1.000  P
  P6       1.0000 0.01469  0.29078  0.93868  Biso   1.000  P
  H6       1.0000 0.14400  0.32500  0.03500  Biso   1.000  H
  O13      1.0000 0.32373  0.63880  0.96290  Biso   1.000  O
  O14      1.0000 0.45434  0.85340  0.14730  Biso   1.000  O
  O15      1.0000 0.17631  0.55610  0.80360  Biso   1.000  O
  O16      1.0000 0.00585  0.40700  0.83570  Biso   1.000  O
  O17      1.0000 0.25266  0.42500  0.02040  Biso   1.000  O
  O18      1.0000 0.31387  0.42950  0.81150  Biso   1.000  O
  O19      1.0000 0.51267  0.79380  0.40790  Biso   1.000  O
  O20      1.0000 0.48414  0.03680  0.32600  Biso   1.000  O
  O21      1.0000 0.61276  0.90210  0.27900  Biso   1.000  O
  O22      1.0000 0.94437  0.29500  0.02150  Biso   1.000  O
  O23      1.0000 0.00911  0.15310  0.86500  Biso   1.000  O
  O24      1.0000 0.10787  0.29620  0.05480  Biso   1.000  O
  Zn5      1.0000 0.44762  0.82055  0.55160  Biso   1.000  Zn
  Zn6      1.0000 0.05431  0.91515  0.32175  Biso   1.000  Zn
  P7       1.0000 0.26622  0.98200  0.40192  Biso   1.000  P
  H7       1.0000 0.66200  0.58800  0.87000  Biso   1.000  H
  H8       1.0000 0.36200  0.05500  0.31800  Biso   1.000  H
  P8       1.0000 0.51601  0.60487  0.79161  Biso   1.000  P
  P9       1.0000 0.01469  0.20922  0.43868  Biso   1.000  P
  H9       1.0000 0.14400  0.17500  0.53500  Biso   1.000  H
  O25      1.0000 0.32373  0.86120  0.46290  Biso   1.000  O
  O26      1.0000 0.45434  0.64660  0.64730  Biso   1.000  O
  O27      1.0000 0.17631  0.94390  0.30360  Biso   1.000  O
  O28      1.0000 0.00585  0.09300  0.33570  Biso   1.000  O
  O29      1.0000 0.25266  0.07500  0.52040  Biso   1.000  O
  O30      1.0000 0.31387  0.07050  0.31150  Biso   1.000  O
  O31      1.0000 0.51267  0.70620  0.90790  Biso   1.000  O
  O32      1.0000 0.48414  0.46320  0.82600  Biso   1.000  O
  O33      1.0000 0.61276  0.59790  0.77900  Biso   1.000  O
  O34      1.0000 0.94437  0.20500  0.52150  Biso   1.000  O
  O35      1.0000 0.00911  0.34690  0.36500  Biso   1.000  O
  O36      1.0000 0.10787  0.20380  0.55480  Biso   1.000  O
  Zn7      1.0000 0.55238  0.32055  0.94840  Biso   1.000  Zn
  Zn8      1.0000 0.94569  0.41515  0.17825  Biso   1.000  Zn
  P10      1.0000 0.73378  0.48200  0.09808  Biso   1.000  P
  H10      1.0000 0.33800  0.08800  0.63000  Biso   1.000  H
  H11      1.0000 0.63800  0.55500  0.18200  Biso   1.000  H
  P11      1.0000 0.48399  0.10487  0.70839  Biso   1.000  P
  P12      1.0000 0.98531  0.70922  0.06132  Biso   1.000  P
  H12      1.0000 0.85600  0.67500  0.96500  Biso   1.000  H
  O37      1.0000 0.67627  0.36120  0.03710  Biso   1.000  O
  O38      1.0000 0.54566  0.14660  0.85270  Biso   1.000  O
  O39      1.0000 0.82369  0.44390  0.19640  Biso   1.000  O
  O40      1.0000 0.99415  0.59300  0.16430  Biso   1.000  O
  O41      1.0000 0.74734  0.57500  0.97960  Biso   1.000  O
  O42      1.0000 0.68613  0.57050  0.18850  Biso   1.000  O
  O43      1.0000 0.48733  0.20620  0.59210  Biso   1.000  O
  O44      1.0000 0.51586  0.96320  0.67400  Biso   1.000  O
  O45      1.0000 0.38724  0.09790  0.72100  Biso   1.000  O
  O46      1.0000 0.05563  0.70500  0.97850  Biso   1.000  O
  O47      1.0000 0.99089  0.84690  0.13500  Biso   1.000  O
  O48      1.0000 0.89213  0.70380  0.94520  Biso   1.000  O
