data_image0
_cell_length_a       7.4196
_cell_length_b       16.7276
_cell_length_c       15.4905
_cell_angle_alpha    90
_cell_angle_beta     113.207
_cell_angle_gamma    90

_symmetry_space_group_name_H-M    "P 1"
_symmetry_int_tables_number       1

loop_
  _symmetry_equiv_pos_as_xyz
  'x, y, z'

loop_
  _atom_site_label
  _atom_site_occupancy
  _atom_site_fract_x
  _atom_site_fract_y
  _atom_site_fract_z
  _atom_site_thermal_displace_type
  _atom_site_B_iso_or_equiv
  _atom_site_type_symbol
  Zn1      1.0000 0.46318  0.98302  0.18370  Biso   1.000  Zn
  Zn2      1.0000 0.28995  0.87559  0.97764  Biso   1.000  Zn
  C1       1.0000 0.06630  0.84010  0.09480  Biso   1.000  C
  C2       1.0000 0.00820  0.77760  0.14800  Biso   1.000  C
  C3       1.0000 0.13260  0.71310  0.18420  Biso   1.000  C
  H1       1.0000 0.24280  0.70790  0.17020  Biso   1.000  H
  C4       1.0000 0.83770  0.78350  0.16520  Biso   1.000  C
  C5       1.0000 0.09760  0.65610  0.24110  Biso   1.000  C
  C6       1.0000 0.92660  0.66140  0.25830  Biso   1.000  C
  C7       1.0000 0.79760  0.72420  0.21820  Biso   1.000  C
  H2       1.0000 0.68090  0.72670  0.22710  Biso   1.000  H
  C8       1.0000 0.68730  0.84830  0.12820  Biso   1.000  C
  C9       1.0000 0.86970  0.60140  0.31490  Biso   1.000  C
  C10      1.0000 0.25090  0.59280  0.28010  Biso   1.000  C
  O1       1.0000 0.19380  0.81900  0.06450  Biso   1.000  O
  O2       1.0000 0.98510  0.90630  0.08410  Biso   1.000  O
  O3       1.0000 0.57900  0.84670  0.04210  Biso   1.000  O
  O4       1.0000 0.67440  0.89610  0.18710  Biso   1.000  O
  O5       1.0000 0.99260  0.58460  0.39500  Biso   1.000  O
  O6       1.0000 0.70050  0.57390  0.27900  Biso   1.000  O
  O7       1.0000 0.34390  0.58500  0.36680  Biso   1.000  O
  O8       1.0000 0.29340  0.55080  0.22390  Biso   1.000  O
  O9       1.0000 0.29910  0.98440  0.04390  Biso   1.000  O
  H3       1.0000 0.34010  0.03020  0.02270  Biso   1.000  H
  Zn3      1.0000 0.53682  0.48302  0.31630  Biso   1.000  Zn
  Zn4      1.0000 0.71005  0.37559  0.52236  Biso   1.000  Zn
  C11      1.0000 0.93370  0.34010  0.40520  Biso   1.000  C
  C12      1.0000 0.99180  0.27760  0.35200  Biso   1.000  C
  C13      1.0000 0.86740  0.21310  0.31580  Biso   1.000  C
  H4       1.0000 0.75720  0.20790  0.32980  Biso   1.000  H
  C14      1.0000 0.16230  0.28350  0.33480  Biso   1.000  C
  C15      1.0000 0.90240  0.15610  0.25890  Biso   1.000  C
  C16      1.0000 0.07340  0.16140  0.24170  Biso   1.000  C
  C17      1.0000 0.20240  0.22420  0.28180  Biso   1.000  C
  H5       1.0000 0.31910  0.22670  0.27290  Biso   1.000  H
  C18      1.0000 0.31270  0.34830  0.37180  Biso   1.000  C
  C19      1.0000 0.13030  0.10140  0.18510  Biso   1.000  C
  C20      1.0000 0.74910  0.09280  0.21990  Biso   1.000  C
  O10      1.0000 0.80620  0.31900  0.43550  Biso   1.000  O
  O11      1.0000 0.01490  0.40630  0.41590  Biso   1.000  O
  O12      1.0000 0.42100  0.34670  0.45790  Biso   1.000  O
  O13      1.0000 0.32560  0.39610  0.31290  Biso   1.000  O
  O14      1.0000 0.00740  0.08460  0.10500  Biso   1.000  O
  O15      1.0000 0.29950  0.07390  0.22100  Biso   1.000  O
  O16      1.0000 0.65610  0.08500  0.13320  Biso   1.000  O
  O17      1.0000 0.70660  0.05080  0.27610  Biso   1.000  O
  O18      1.0000 0.70090  0.48440  0.45610  Biso   1.000  O
  H6       1.0000 0.65990  0.53020  0.47730  Biso   1.000  H
  Zn5      1.0000 0.53682  0.01698  0.81630  Biso   1.000  Zn
  Zn6      1.0000 0.71005  0.12441  0.02236  Biso   1.000  Zn
  C21      1.0000 0.93370  0.15990  0.90520  Biso   1.000  C
  C22      1.0000 0.99180  0.22240  0.85200  Biso   1.000  C
  C23      1.0000 0.86740  0.28690  0.81580  Biso   1.000  C
  H7       1.0000 0.75720  0.29210  0.82980  Biso   1.000  H
  C24      1.0000 0.16230  0.21650  0.83480  Biso   1.000  C
  C25      1.0000 0.90240  0.34390  0.75890  Biso   1.000  C
  C26      1.0000 0.07340  0.33860  0.74170  Biso   1.000  C
  C27      1.0000 0.20240  0.27580  0.78180  Biso   1.000  C
  H8       1.0000 0.31910  0.27330  0.77290  Biso   1.000  H
  C28      1.0000 0.31270  0.15170  0.87180  Biso   1.000  C
  C29      1.0000 0.13030  0.39860  0.68510  Biso   1.000  C
  C30      1.0000 0.74910  0.40720  0.71990  Biso   1.000  C
  O19      1.0000 0.80620  0.18100  0.93550  Biso   1.000  O
  O20      1.0000 0.01490  0.09370  0.91590  Biso   1.000  O
  O21      1.0000 0.42100  0.15330  0.95790  Biso   1.000  O
  O22      1.0000 0.32560  0.10390  0.81290  Biso   1.000  O
  O23      1.0000 0.00740  0.41540  0.60500  Biso   1.000  O
  O24      1.0000 0.29950  0.42610  0.72100  Biso   1.000  O
  O25      1.0000 0.65610  0.41500  0.63320  Biso   1.000  O
  O26      1.0000 0.70660  0.44920  0.77610  Biso   1.000  O
  O27      1.0000 0.70090  0.01560  0.95610  Biso   1.000  O
  H9       1.0000 0.65990  0.96980  0.97730  Biso   1.000  H
  Zn7      1.0000 0.46318  0.51698  0.68370  Biso   1.000  Zn
  Zn8      1.0000 0.28995  0.62441  0.47764  Biso   1.000  Zn
  C31      1.0000 0.06630  0.65990  0.59480  Biso   1.000  C
  C32      1.0000 0.00820  0.72240  0.64800  Biso   1.000  C
  C33      1.0000 0.13260  0.78690  0.68420  Biso   1.000  C
  H10      1.0000 0.24280  0.79210  0.67020  Biso   1.000  H
  C34      1.0000 0.83770  0.71650  0.66520  Biso   1.000  C
  C35      1.0000 0.09760  0.84390  0.74110  Biso   1.000  C
  C36      1.0000 0.92660  0.83860  0.75830  Biso   1.000  C
  C37      1.0000 0.79760  0.77580  0.71820  Biso   1.000  C
  H11      1.0000 0.68090  0.77330  0.72710  Biso   1.000  H
  C38      1.0000 0.68730  0.65170  0.62820  Biso   1.000  C
  C39      1.0000 0.86970  0.89860  0.81490  Biso   1.000  C
  C40      1.0000 0.25090  0.90720  0.78010  Biso   1.000  C
  O28      1.0000 0.19380  0.68100  0.56450  Biso   1.000  O
  O29      1.0000 0.98510  0.59370  0.58410  Biso   1.000  O
  O30      1.0000 0.57900  0.65330  0.54210  Biso   1.000  O
  O31      1.0000 0.67440  0.60390  0.68710  Biso   1.000  O
  O32      1.0000 0.99260  0.91540  0.89500  Biso   1.000  O
  O33      1.0000 0.70050  0.92610  0.77900  Biso   1.000  O
  O34      1.0000 0.34390  0.91500  0.86680  Biso   1.000  O
  O35      1.0000 0.29340  0.94920  0.72390  Biso   1.000  O
  O36      1.0000 0.29910  0.51560  0.54390  Biso   1.000  O
  H12      1.0000 0.34010  0.46980  0.52270  Biso   1.000  H
  Zn9      1.0000 0.00000  0.00000  0.00000  Biso   1.000  Zn
  Zn10     1.0000 0.00000  0.50000  0.50000  Biso   1.000  Zn
