data_image0
_cell_length_a       20.508
_cell_length_b       20.508
_cell_length_c       17.792
_cell_angle_alpha    90
_cell_angle_beta     90
_cell_angle_gamma    90

_symmetry_space_group_name_H-M    "P 1"
_symmetry_int_tables_number       1

loop_
  _symmetry_equiv_pos_as_xyz
  'x, y, z'

loop_
  _atom_site_label
  _atom_site_occupancy
  _atom_site_fract_x
  _atom_site_fract_y
  _atom_site_fract_z
  _atom_site_thermal_displace_type
  _atom_site_B_iso_or_equiv
  _atom_site_type_symbol
  Zn1      1.0000 0.74291  0.88078  0.78977  Biso   1.000  Zn
  O1       1.0000 0.66349  0.05693  0.43090  Biso   1.000  O
  O2       1.0000 0.84010  0.75990  0.45090  Biso   1.000  O
  C1       1.0000 0.72560  0.96130  0.44400  Biso   1.000  C
  O3       1.0000 0.76510  0.86770  0.68450  Biso   1.000  O
  O4       1.0000 0.82810  0.81120  0.33970  Biso   1.000  O
  C2       1.0000 0.72720  0.90460  0.64550  Biso   1.000  C
  O5       1.0000 0.68470  0.94100  0.67360  Biso   1.000  O
  C3       1.0000 0.71140  0.95750  0.51980  Biso   1.000  C
  H1       1.0000 0.68490  0.98970  0.54310  Biso   1.000  H
  C4       1.0000 0.73700  0.90510  0.56220  Biso   1.000  C
  C5       1.0000 0.78250  0.85740  0.44870  Biso   1.000  C
  C6       1.0000 0.77260  0.85670  0.52550  Biso   1.000  C
  H2       1.0000 0.79070  0.82210  0.55420  Biso   1.000  H
  C7       1.0000 0.81870  0.80420  0.41120  Biso   1.000  C
  C8       1.0000 0.75970  0.91060  0.40980  Biso   1.000  C
  H3       1.0000 0.76750  0.91290  0.35730  Biso   1.000  H
  O6       1.0000 0.73930  0.03470  0.34280  Biso   1.000  O
  C9       1.0000 0.70690  0.02220  0.40270  Biso   1.000  C
  Zn2      1.0000 0.24291  0.38078  0.28977  Biso   1.000  Zn
  O7       1.0000 0.16349  0.55693  0.93090  Biso   1.000  O
  O8       1.0000 0.34010  0.25990  0.95090  Biso   1.000  O
  C10      1.0000 0.22560  0.46130  0.94400  Biso   1.000  C
  O9       1.0000 0.26510  0.36770  0.18450  Biso   1.000  O
  O10      1.0000 0.32810  0.31120  0.83970  Biso   1.000  O
  C11      1.0000 0.22720  0.40460  0.14550  Biso   1.000  C
  O11      1.0000 0.18470  0.44100  0.17360  Biso   1.000  O
  C12      1.0000 0.21140  0.45750  0.01980  Biso   1.000  C
  H4       1.0000 0.18490  0.48970  0.04310  Biso   1.000  H
  C13      1.0000 0.23700  0.40510  0.06220  Biso   1.000  C
  C14      1.0000 0.28250  0.35740  0.94870  Biso   1.000  C
  C15      1.0000 0.27260  0.35670  0.02550  Biso   1.000  C
  H5       1.0000 0.29070  0.32210  0.05420  Biso   1.000  H
  C16      1.0000 0.31870  0.30420  0.91120  Biso   1.000  C
  C17      1.0000 0.25970  0.41060  0.90980  Biso   1.000  C
  H6       1.0000 0.26750  0.41290  0.85730  Biso   1.000  H
  O12      1.0000 0.23930  0.53470  0.84280  Biso   1.000  O
  C18      1.0000 0.20690  0.52220  0.90270  Biso   1.000  C
  Zn3      1.0000 0.25709  0.11922  0.78977  Biso   1.000  Zn
  O13      1.0000 0.33651  0.94307  0.43090  Biso   1.000  O
  O14      1.0000 0.15990  0.24010  0.45090  Biso   1.000  O
  C19      1.0000 0.27440  0.03870  0.44400  Biso   1.000  C
  O15      1.0000 0.23490  0.13230  0.68450  Biso   1.000  O
  O16      1.0000 0.17190  0.18880  0.33970  Biso   1.000  O
  C20      1.0000 0.27280  0.09540  0.64550  Biso   1.000  C
  O17      1.0000 0.31530  0.05900  0.67360  Biso   1.000  O
  C21      1.0000 0.28860  0.04250  0.51980  Biso   1.000  C
  H7       1.0000 0.31510  0.01030  0.54310  Biso   1.000  H
  C22      1.0000 0.26300  0.09490  0.56220  Biso   1.000  C
  C23      1.0000 0.21750  0.14260  0.44870  Biso   1.000  C
  C24      1.0000 0.22740  0.14330  0.52550  Biso   1.000  C
  H8       1.0000 0.20930  0.17790  0.55420  Biso   1.000  H
  C25      1.0000 0.18130  0.19580  0.41120  Biso   1.000  C
  C26      1.0000 0.24030  0.08940  0.40980  Biso   1.000  C
  H9       1.0000 0.23250  0.08710  0.35730  Biso   1.000  H
  O18      1.0000 0.26070  0.96530  0.34280  Biso   1.000  O
  C27      1.0000 0.29310  0.97780  0.40270  Biso   1.000  C
  Zn4      1.0000 0.75709  0.61922  0.28977  Biso   1.000  Zn
  O19      1.0000 0.83651  0.44307  0.93090  Biso   1.000  O
  O20      1.0000 0.65990  0.74010  0.95090  Biso   1.000  O
  C28      1.0000 0.77440  0.53870  0.94400  Biso   1.000  C
  O21      1.0000 0.73490  0.63230  0.18450  Biso   1.000  O
  O22      1.0000 0.67190  0.68880  0.83970  Biso   1.000  O
  C29      1.0000 0.77280  0.59540  0.14550  Biso   1.000  C
  O23      1.0000 0.81530  0.55900  0.17360  Biso   1.000  O
  C30      1.0000 0.78860  0.54250  0.01980  Biso   1.000  C
  H10      1.0000 0.81510  0.51030  0.04310  Biso   1.000  H
  C31      1.0000 0.76300  0.59490  0.06220  Biso   1.000  C
  C32      1.0000 0.71750  0.64260  0.94870  Biso   1.000  C
  C33      1.0000 0.72740  0.64330  0.02550  Biso   1.000  C
  H11      1.0000 0.70930  0.67790  0.05420  Biso   1.000  H
  C34      1.0000 0.68130  0.69580  0.91120  Biso   1.000  C
  C35      1.0000 0.74030  0.58940  0.90980  Biso   1.000  C
  H12      1.0000 0.73250  0.58710  0.85730  Biso   1.000  H
  O24      1.0000 0.76070  0.46530  0.84280  Biso   1.000  O
  C36      1.0000 0.79310  0.47780  0.90270  Biso   1.000  C
  Zn5      1.0000 0.11922  0.74291  0.78977  Biso   1.000  Zn
  O25      1.0000 0.94307  0.66349  0.43090  Biso   1.000  O
  O26      1.0000 0.24010  0.84010  0.45090  Biso   1.000  O
  C37      1.0000 0.03870  0.72560  0.44400  Biso   1.000  C
  O27      1.0000 0.13230  0.76510  0.68450  Biso   1.000  O
  O28      1.0000 0.18880  0.82810  0.33970  Biso   1.000  O
  C38      1.0000 0.09540  0.72720  0.64550  Biso   1.000  C
  O29      1.0000 0.05900  0.68470  0.67360  Biso   1.000  O
  C39      1.0000 0.04250  0.71140  0.51980  Biso   1.000  C
  H13      1.0000 0.01030  0.68490  0.54310  Biso   1.000  H
  C40      1.0000 0.09490  0.73700  0.56220  Biso   1.000  C
  C41      1.0000 0.14260  0.78250  0.44870  Biso   1.000  C
  C42      1.0000 0.14330  0.77260  0.52550  Biso   1.000  C
  H14      1.0000 0.17790  0.79070  0.55420  Biso   1.000  H
  C43      1.0000 0.19580  0.81870  0.41120  Biso   1.000  C
  C44      1.0000 0.08940  0.75970  0.40980  Biso   1.000  C
  H15      1.0000 0.08710  0.76750  0.35730  Biso   1.000  H
  O30      1.0000 0.96530  0.73930  0.34280  Biso   1.000  O
  C45      1.0000 0.97780  0.70690  0.40270  Biso   1.000  C
  Zn6      1.0000 0.61922  0.24291  0.28977  Biso   1.000  Zn
  O31      1.0000 0.44307  0.16349  0.93090  Biso   1.000  O
  O32      1.0000 0.74010  0.34010  0.95090  Biso   1.000  O
  C46      1.0000 0.53870  0.22560  0.94400  Biso   1.000  C
  O33      1.0000 0.63230  0.26510  0.18450  Biso   1.000  O
  O34      1.0000 0.68880  0.32810  0.83970  Biso   1.000  O
  C47      1.0000 0.59540  0.22720  0.14550  Biso   1.000  C
  O35      1.0000 0.55900  0.18470  0.17360  Biso   1.000  O
  C48      1.0000 0.54250  0.21140  0.01980  Biso   1.000  C
  H16      1.0000 0.51030  0.18490  0.04310  Biso   1.000  H
  C49      1.0000 0.59490  0.23700  0.06220  Biso   1.000  C
  C50      1.0000 0.64260  0.28250  0.94870  Biso   1.000  C
  C51      1.0000 0.64330  0.27260  0.02550  Biso   1.000  C
  H17      1.0000 0.67790  0.29070  0.05420  Biso   1.000  H
  C52      1.0000 0.69580  0.31870  0.91120  Biso   1.000  C
  C53      1.0000 0.58940  0.25970  0.90980  Biso   1.000  C
  H18      1.0000 0.58710  0.26750  0.85730  Biso   1.000  H
  O36      1.0000 0.46530  0.23930  0.84280  Biso   1.000  O
  C54      1.0000 0.47780  0.20690  0.90270  Biso   1.000  C
  Zn7      1.0000 0.88078  0.25709  0.78977  Biso   1.000  Zn
  O37      1.0000 0.05693  0.33651  0.43090  Biso   1.000  O
  O38      1.0000 0.75990  0.15990  0.45090  Biso   1.000  O
  C55      1.0000 0.96130  0.27440  0.44400  Biso   1.000  C
  O39      1.0000 0.86770  0.23490  0.68450  Biso   1.000  O
  O40      1.0000 0.81120  0.17190  0.33970  Biso   1.000  O
  C56      1.0000 0.90460  0.27280  0.64550  Biso   1.000  C
  O41      1.0000 0.94100  0.31530  0.67360  Biso   1.000  O
  C57      1.0000 0.95750  0.28860  0.51980  Biso   1.000  C
  H19      1.0000 0.98970  0.31510  0.54310  Biso   1.000  H
  C58      1.0000 0.90510  0.26300  0.56220  Biso   1.000  C
  C59      1.0000 0.85740  0.21750  0.44870  Biso   1.000  C
  C60      1.0000 0.85670  0.22740  0.52550  Biso   1.000  C
  H20      1.0000 0.82210  0.20930  0.55420  Biso   1.000  H
  C61      1.0000 0.80420  0.18130  0.41120  Biso   1.000  C
  C62      1.0000 0.91060  0.24030  0.40980  Biso   1.000  C
  H21      1.0000 0.91290  0.23250  0.35730  Biso   1.000  H
  O42      1.0000 0.03470  0.26070  0.34280  Biso   1.000  O
  C63      1.0000 0.02220  0.29310  0.40270  Biso   1.000  C
  Zn8      1.0000 0.38078  0.75709  0.28977  Biso   1.000  Zn
  O43      1.0000 0.55693  0.83651  0.93090  Biso   1.000  O
  O44      1.0000 0.25990  0.65990  0.95090  Biso   1.000  O
  C64      1.0000 0.46130  0.77440  0.94400  Biso   1.000  C
  O45      1.0000 0.36770  0.73490  0.18450  Biso   1.000  O
  O46      1.0000 0.31120  0.67190  0.83970  Biso   1.000  O
  C65      1.0000 0.40460  0.77280  0.14550  Biso   1.000  C
  O47      1.0000 0.44100  0.81530  0.17360  Biso   1.000  O
  C66      1.0000 0.45750  0.78860  0.01980  Biso   1.000  C
  H22      1.0000 0.48970  0.81510  0.04310  Biso   1.000  H
  C67      1.0000 0.40510  0.76300  0.06220  Biso   1.000  C
  C68      1.0000 0.35740  0.71750  0.94870  Biso   1.000  C
  C69      1.0000 0.35670  0.72740  0.02550  Biso   1.000  C
  H23      1.0000 0.32210  0.70930  0.05420  Biso   1.000  H
  C70      1.0000 0.30420  0.68130  0.91120  Biso   1.000  C
  C71      1.0000 0.41060  0.74030  0.90980  Biso   1.000  C
  H24      1.0000 0.41290  0.73250  0.85730  Biso   1.000  H
  O48      1.0000 0.53470  0.76070  0.84280  Biso   1.000  O
  C72      1.0000 0.52220  0.79310  0.90270  Biso   1.000  C
  Zn9      1.0000 0.74291  0.11922  0.28977  Biso   1.000  Zn
  O49      1.0000 0.66349  0.94307  0.93090  Biso   1.000  O
  O50      1.0000 0.84010  0.24010  0.95090  Biso   1.000  O
  C73      1.0000 0.72560  0.03870  0.94400  Biso   1.000  C
  O51      1.0000 0.76510  0.13230  0.18450  Biso   1.000  O
  O52      1.0000 0.82810  0.18880  0.83970  Biso   1.000  O
  C74      1.0000 0.72720  0.09540  0.14550  Biso   1.000  C
  O53      1.0000 0.68470  0.05900  0.17360  Biso   1.000  O
  C75      1.0000 0.71140  0.04250  0.01980  Biso   1.000  C
  H25      1.0000 0.68490  0.01030  0.04310  Biso   1.000  H
  C76      1.0000 0.73700  0.09490  0.06220  Biso   1.000  C
  C77      1.0000 0.78250  0.14260  0.94870  Biso   1.000  C
  C78      1.0000 0.77260  0.14330  0.02550  Biso   1.000  C
  H26      1.0000 0.79070  0.17790  0.05420  Biso   1.000  H
  C79      1.0000 0.81870  0.19580  0.91120  Biso   1.000  C
  C80      1.0000 0.75970  0.08940  0.90980  Biso   1.000  C
  H27      1.0000 0.76750  0.08710  0.85730  Biso   1.000  H
  O54      1.0000 0.73930  0.96530  0.84280  Biso   1.000  O
  C81      1.0000 0.70690  0.97780  0.90270  Biso   1.000  C
  Zn10     1.0000 0.24291  0.61922  0.78977  Biso   1.000  Zn
  O55      1.0000 0.16349  0.44307  0.43090  Biso   1.000  O
  O56      1.0000 0.34010  0.74010  0.45090  Biso   1.000  O
  C82      1.0000 0.22560  0.53870  0.44400  Biso   1.000  C
  O57      1.0000 0.26510  0.63230  0.68450  Biso   1.000  O
  O58      1.0000 0.32810  0.68880  0.33970  Biso   1.000  O
  C83      1.0000 0.22720  0.59540  0.64550  Biso   1.000  C
  O59      1.0000 0.18470  0.55900  0.67360  Biso   1.000  O
  C84      1.0000 0.21140  0.54250  0.51980  Biso   1.000  C
  H28      1.0000 0.18490  0.51030  0.54310  Biso   1.000  H
  C85      1.0000 0.23700  0.59490  0.56220  Biso   1.000  C
  C86      1.0000 0.28250  0.64260  0.44870  Biso   1.000  C
  C87      1.0000 0.27260  0.64330  0.52550  Biso   1.000  C
  H29      1.0000 0.29070  0.67790  0.55420  Biso   1.000  H
  C88      1.0000 0.31870  0.69580  0.41120  Biso   1.000  C
  C89      1.0000 0.25970  0.58940  0.40980  Biso   1.000  C
  H30      1.0000 0.26750  0.58710  0.35730  Biso   1.000  H
  O60      1.0000 0.23930  0.46530  0.34280  Biso   1.000  O
  C90      1.0000 0.20690  0.47780  0.40270  Biso   1.000  C
  Zn11     1.0000 0.25709  0.88078  0.28977  Biso   1.000  Zn
  O61      1.0000 0.33651  0.05693  0.93090  Biso   1.000  O
  O62      1.0000 0.15990  0.75990  0.95090  Biso   1.000  O
  C91      1.0000 0.27440  0.96130  0.94400  Biso   1.000  C
  O63      1.0000 0.23490  0.86770  0.18450  Biso   1.000  O
  O64      1.0000 0.17190  0.81120  0.83970  Biso   1.000  O
  C92      1.0000 0.27280  0.90460  0.14550  Biso   1.000  C
  O65      1.0000 0.31530  0.94100  0.17360  Biso   1.000  O
  C93      1.0000 0.28860  0.95750  0.01980  Biso   1.000  C
  H31      1.0000 0.31510  0.98970  0.04310  Biso   1.000  H
  C94      1.0000 0.26300  0.90510  0.06220  Biso   1.000  C
  C95      1.0000 0.21750  0.85740  0.94870  Biso   1.000  C
  C96      1.0000 0.22740  0.85670  0.02550  Biso   1.000  C
  H32      1.0000 0.20930  0.82210  0.05420  Biso   1.000  H
  C97      1.0000 0.18130  0.80420  0.91120  Biso   1.000  C
  C98      1.0000 0.24030  0.91060  0.90980  Biso   1.000  C
  H33      1.0000 0.23250  0.91290  0.85730  Biso   1.000  H
  O66      1.0000 0.26070  0.03470  0.84280  Biso   1.000  O
  C99      1.0000 0.29310  0.02220  0.90270  Biso   1.000  C
  Zn12     1.0000 0.75709  0.38078  0.78977  Biso   1.000  Zn
  O67      1.0000 0.83651  0.55693  0.43090  Biso   1.000  O
  O68      1.0000 0.65990  0.25990  0.45090  Biso   1.000  O
  C100     1.0000 0.77440  0.46130  0.44400  Biso   1.000  C
  O69      1.0000 0.73490  0.36770  0.68450  Biso   1.000  O
  O70      1.0000 0.67190  0.31120  0.33970  Biso   1.000  O
  C101     1.0000 0.77280  0.40460  0.64550  Biso   1.000  C
  O71      1.0000 0.81530  0.44100  0.67360  Biso   1.000  O
  C102     1.0000 0.78860  0.45750  0.51980  Biso   1.000  C
  H34      1.0000 0.81510  0.48970  0.54310  Biso   1.000  H
  C103     1.0000 0.76300  0.40510  0.56220  Biso   1.000  C
  C104     1.0000 0.71750  0.35740  0.44870  Biso   1.000  C
  C105     1.0000 0.72740  0.35670  0.52550  Biso   1.000  C
  H35      1.0000 0.70930  0.32210  0.55420  Biso   1.000  H
  C106     1.0000 0.68130  0.30420  0.41120  Biso   1.000  C
  C107     1.0000 0.74030  0.41060  0.40980  Biso   1.000  C
  H36      1.0000 0.73250  0.41290  0.35730  Biso   1.000  H
  O72      1.0000 0.76070  0.53470  0.34280  Biso   1.000  O
  C108     1.0000 0.79310  0.52220  0.40270  Biso   1.000  C
  Zn13     1.0000 0.11922  0.25709  0.28977  Biso   1.000  Zn
  O73      1.0000 0.94307  0.33651  0.93090  Biso   1.000  O
  O74      1.0000 0.24010  0.15990  0.95090  Biso   1.000  O
  C109     1.0000 0.03870  0.27440  0.94400  Biso   1.000  C
  O75      1.0000 0.13230  0.23490  0.18450  Biso   1.000  O
  O76      1.0000 0.18880  0.17190  0.83970  Biso   1.000  O
  C110     1.0000 0.09540  0.27280  0.14550  Biso   1.000  C
  O77      1.0000 0.05900  0.31530  0.17360  Biso   1.000  O
  C111     1.0000 0.04250  0.28860  0.01980  Biso   1.000  C
  H37      1.0000 0.01030  0.31510  0.04310  Biso   1.000  H
  C112     1.0000 0.09490  0.26300  0.06220  Biso   1.000  C
  C113     1.0000 0.14260  0.21750  0.94870  Biso   1.000  C
  C114     1.0000 0.14330  0.22740  0.02550  Biso   1.000  C
  H38      1.0000 0.17790  0.20930  0.05420  Biso   1.000  H
  C115     1.0000 0.19580  0.18130  0.91120  Biso   1.000  C
  C116     1.0000 0.08940  0.24030  0.90980  Biso   1.000  C
  H39      1.0000 0.08710  0.23250  0.85730  Biso   1.000  H
  O78      1.0000 0.96530  0.26070  0.84280  Biso   1.000  O
  C117     1.0000 0.97780  0.29310  0.90270  Biso   1.000  C
  Zn14     1.0000 0.61922  0.75709  0.78977  Biso   1.000  Zn
  O79      1.0000 0.44307  0.83651  0.43090  Biso   1.000  O
  O80      1.0000 0.74010  0.65990  0.45090  Biso   1.000  O
  C118     1.0000 0.53870  0.77440  0.44400  Biso   1.000  C
  O81      1.0000 0.63230  0.73490  0.68450  Biso   1.000  O
  O82      1.0000 0.68880  0.67190  0.33970  Biso   1.000  O
  C119     1.0000 0.59540  0.77280  0.64550  Biso   1.000  C
  O83      1.0000 0.55900  0.81530  0.67360  Biso   1.000  O
  C120     1.0000 0.54250  0.78860  0.51980  Biso   1.000  C
  H40      1.0000 0.51030  0.81510  0.54310  Biso   1.000  H
  C121     1.0000 0.59490  0.76300  0.56220  Biso   1.000  C
  C122     1.0000 0.64260  0.71750  0.44870  Biso   1.000  C
  C123     1.0000 0.64330  0.72740  0.52550  Biso   1.000  C
  H41      1.0000 0.67790  0.70930  0.55420  Biso   1.000  H
  C124     1.0000 0.69580  0.68130  0.41120  Biso   1.000  C
  C125     1.0000 0.58940  0.74030  0.40980  Biso   1.000  C
  H42      1.0000 0.58710  0.73250  0.35730  Biso   1.000  H
  O84      1.0000 0.46530  0.76070  0.34280  Biso   1.000  O
  C126     1.0000 0.47780  0.79310  0.40270  Biso   1.000  C
  Zn15     1.0000 0.88078  0.74291  0.28977  Biso   1.000  Zn
  O85      1.0000 0.05693  0.66349  0.93090  Biso   1.000  O
  O86      1.0000 0.75990  0.84010  0.95090  Biso   1.000  O
  C127     1.0000 0.96130  0.72560  0.94400  Biso   1.000  C
  O87      1.0000 0.86770  0.76510  0.18450  Biso   1.000  O
  O88      1.0000 0.81120  0.82810  0.83970  Biso   1.000  O
  C128     1.0000 0.90460  0.72720  0.14550  Biso   1.000  C
  O89      1.0000 0.94100  0.68470  0.17360  Biso   1.000  O
  C129     1.0000 0.95750  0.71140  0.01980  Biso   1.000  C
  H43      1.0000 0.98970  0.68490  0.04310  Biso   1.000  H
  C130     1.0000 0.90510  0.73700  0.06220  Biso   1.000  C
  C131     1.0000 0.85740  0.78250  0.94870  Biso   1.000  C
  C132     1.0000 0.85670  0.77260  0.02550  Biso   1.000  C
  H44      1.0000 0.82210  0.79070  0.05420  Biso   1.000  H
  C133     1.0000 0.80420  0.81870  0.91120  Biso   1.000  C
  C134     1.0000 0.91060  0.75970  0.90980  Biso   1.000  C
  H45      1.0000 0.91290  0.76750  0.85730  Biso   1.000  H
  O90      1.0000 0.03470  0.73930  0.84280  Biso   1.000  O
  C135     1.0000 0.02220  0.70690  0.90270  Biso   1.000  C
  Zn16     1.0000 0.38078  0.24291  0.78977  Biso   1.000  Zn
  O91      1.0000 0.55693  0.16349  0.43090  Biso   1.000  O
  O92      1.0000 0.25990  0.34010  0.45090  Biso   1.000  O
  C136     1.0000 0.46130  0.22560  0.44400  Biso   1.000  C
  O93      1.0000 0.36770  0.26510  0.68450  Biso   1.000  O
  O94      1.0000 0.31120  0.32810  0.33970  Biso   1.000  O
  C137     1.0000 0.40460  0.22720  0.64550  Biso   1.000  C
  O95      1.0000 0.44100  0.18470  0.67360  Biso   1.000  O
  C138     1.0000 0.45750  0.21140  0.51980  Biso   1.000  C
  H46      1.0000 0.48970  0.18490  0.54310  Biso   1.000  H
  C139     1.0000 0.40510  0.23700  0.56220  Biso   1.000  C
  C140     1.0000 0.35740  0.28250  0.44870  Biso   1.000  C
  C141     1.0000 0.35670  0.27260  0.52550  Biso   1.000  C
  H47      1.0000 0.32210  0.29070  0.55420  Biso   1.000  H
  C142     1.0000 0.30420  0.31870  0.41120  Biso   1.000  C
  C143     1.0000 0.41060  0.25970  0.40980  Biso   1.000  C
  H48      1.0000 0.41290  0.26750  0.35730  Biso   1.000  H
  O96      1.0000 0.53470  0.23930  0.34280  Biso   1.000  O
  C144     1.0000 0.52220  0.20690  0.40270  Biso   1.000  C
  Co1      1.0000 0.65818  0.84182  0.93856  Biso   1.000  Co
  O97      1.0000 0.66237  0.83763  0.81950  Biso   1.000  O
  Co2      1.0000 0.34182  0.15818  0.93856  Biso   1.000  Co
  O98      1.0000 0.33763  0.16237  0.81950  Biso   1.000  O
  Co3      1.0000 0.15818  0.65818  0.93856  Biso   1.000  Co
  O99      1.0000 0.16237  0.66237  0.81950  Biso   1.000  O
  Co4      1.0000 0.84182  0.34182  0.93856  Biso   1.000  Co
  O100     1.0000 0.83763  0.33763  0.81950  Biso   1.000  O
  Co5      1.0000 0.65818  0.15818  0.43856  Biso   1.000  Co
  O101     1.0000 0.66237  0.16237  0.31950  Biso   1.000  O
  Co6      1.0000 0.34182  0.84182  0.43856  Biso   1.000  Co
  O102     1.0000 0.33763  0.83763  0.31950  Biso   1.000  O
  Co7      1.0000 0.15818  0.34182  0.43856  Biso   1.000  Co
  O103     1.0000 0.16237  0.33763  0.31950  Biso   1.000  O
  Co8      1.0000 0.84182  0.65818  0.43856  Biso   1.000  Co
  O104     1.0000 0.83763  0.66237  0.31950  Biso   1.000  O
