data_image0
_cell_length_a       12.115
_cell_length_b       25.751
_cell_length_c       35.588
_cell_angle_alpha    90
_cell_angle_beta     90.639
_cell_angle_gamma    90

_symmetry_space_group_name_H-M    "P 1"
_symmetry_int_tables_number       1

loop_
  _symmetry_equiv_pos_as_xyz
  'x, y, z'

loop_
  _atom_site_label
  _atom_site_occupancy
  _atom_site_fract_x
  _atom_site_fract_y
  _atom_site_fract_z
  _atom_site_thermal_displace_type
  _atom_site_B_iso_or_equiv
  _atom_site_type_symbol
  Zn1      1.0000 0.78299  0.79148  0.33474  Biso   1.000  Zn
  Zn2      1.0000 0.77465  0.82646  0.19303  Biso   1.000  Zn
  Zn3      1.0000 0.10025  0.71289  0.48166  Biso   1.000  Zn
  N1       1.0000 0.78820  0.78607  0.39055  Biso   1.000  N
  N2       1.0000 0.74800  0.76501  0.44843  Biso   1.000  N
  N3       1.0000 0.79310  0.69391  0.63895  Biso   1.000  N
  N4       1.0000 0.75950  0.71153  0.57915  Biso   1.000  N
  N5       1.0000 0.25120  0.68589  0.49521  Biso   1.000  N
  N6       1.0000 0.42880  0.68246  0.50441  Biso   1.000  N
  N7       1.0000 0.62960  0.80543  0.31485  Biso   1.000  N
  N8       1.0000 0.45300  0.80686  0.30239  Biso   1.000  N
  N9       1.0000 0.09880  0.71553  0.42481  Biso   1.000  N
  N10      1.0000 0.13750  0.73364  0.36641  Biso   1.000  N
  N11      1.0000 0.93570  0.82633  0.21128  Biso   1.000  N
  N12      1.0000 0.08670  0.81296  0.24420  Biso   1.000  N
  N13      1.0000 0.75480  0.50250  0.29816  Biso   1.000  N
  N14      1.0000 0.74530  0.48570  0.20811  Biso   1.000  N
  N15      1.0000 0.25930  0.66440  0.22524  Biso   1.000  N
  N16      1.0000 0.26750  0.62034  0.31099  Biso   1.000  N
  O1       1.0000 0.66090  0.50689  0.30947  Biso   1.000  O
  O2       1.0000 0.80260  0.46210  0.29668  Biso   1.000  O
  O3       1.0000 0.71200  0.52850  0.21409  Biso   1.000  O
  O4       1.0000 0.68340  0.45140  0.19780  Biso   1.000  O
  O5       1.0000 0.70730  0.76614  0.21721  Biso   1.000  O
  O6       1.0000 0.55780  0.79228  0.18652  Biso   1.000  O
  O7       1.0000 0.29220  0.39005  0.28922  Biso   1.000  O
  O8       1.0000 0.19360  0.43126  0.33133  Biso   1.000  O
  O9       1.0000 0.20910  0.70330  0.21586  Biso   1.000  O
  O10      1.0000 0.21450  0.62360  0.22630  Biso   1.000  O
  O11      1.0000 0.32960  0.65750  0.31417  Biso   1.000  O
  O12      1.0000 0.18490  0.61910  0.32480  Biso   1.000  O
  O13      1.0000 0.85190  0.73250  0.30687  Biso   1.000  O
  O14      1.0000 0.71900  0.69130  0.33605  Biso   1.000  O
  O15      1.0000 0.14580  0.35205  0.18708  Biso   1.000  O
  O16      1.0000 0.99850  0.35338  0.14924  Biso   1.000  O
  C1       1.0000 0.30680  0.48134  0.29163  Biso   1.000  C
  C2       1.0000 0.58880  0.72191  0.47564  Biso   1.000  C
  H1       1.0000 0.55080  0.72460  0.45290  Biso   1.000  H
  C3       1.0000 0.69550  0.74046  0.47975  Biso   1.000  C
  C4       1.0000 0.75300  0.73694  0.51336  Biso   1.000  C
  H2       1.0000 0.82460  0.74970  0.51550  Biso   1.000  H
  C5       1.0000 0.70250  0.71425  0.54365  Biso   1.000  C
  C6       1.0000 0.59560  0.69471  0.54080  Biso   1.000  C
  H3       1.0000 0.56200  0.67900  0.56120  Biso   1.000  H
  C7       1.0000 0.54100  0.69932  0.50665  Biso   1.000  C
  C8       1.0000 0.72560  0.75668  0.41200  Biso   1.000  C
  H4       1.0000 0.67300  0.73330  0.40300  Biso   1.000  H
  C9       1.0000 0.85300  0.81340  0.41439  Biso   1.000  C
  H5       1.0000 0.90600  0.83750  0.40740  Biso   1.000  H
  C10      1.0000 0.82900  0.80010  0.45002  Biso   1.000  C
  H6       1.0000 0.86260  0.81310  0.47170  Biso   1.000  H
  C11      1.0000 0.72000  0.69100  0.61130  Biso   1.000  C
  H7       1.0000 0.65000  0.67660  0.61360  Biso   1.000  H
  C12      1.0000 0.88190  0.71680  0.62392  Biso   1.000  C
  H8       1.0000 0.94730  0.72350  0.63690  Biso   1.000  H
  C13      1.0000 0.86370  0.72880  0.58720  Biso   1.000  C
  H9       1.0000 0.91200  0.74530  0.57100  Biso   1.000  H
  C14      1.0000 0.34430  0.70996  0.49018  Biso   1.000  C
  H10      1.0000 0.35120  0.74190  0.47830  Biso   1.000  H
  C15      1.0000 0.27600  0.64050  0.51355  Biso   1.000  C
  H11      1.0000 0.22490  0.61560  0.52070  Biso   1.000  H
  C16      1.0000 0.38520  0.63761  0.51966  Biso   1.000  C
  H12      1.0000 0.42370  0.61100  0.53170  Biso   1.000  H
  C17      1.0000 0.27100  0.80789  0.27264  Biso   1.000  C
  H13      1.0000 0.30050  0.82410  0.25160  Biso   1.000  H
  C18      1.0000 0.33710  0.79493  0.30337  Biso   1.000  C
  C19      1.0000 0.29530  0.77038  0.33459  Biso   1.000  C
  H14      1.0000 0.34030  0.76250  0.35510  Biso   1.000  H
  C20      1.0000 0.18430  0.75797  0.33434  Biso   1.000  C
  C21      1.0000 0.11500  0.77081  0.30450  Biso   1.000  C
  H15      1.0000 0.04030  0.76250  0.30500  Biso   1.000  H
  C22      1.0000 0.15880  0.79584  0.27434  Biso   1.000  C
  C23      1.0000 0.53400  0.78375  0.32170  Biso   1.000  C
  H16      1.0000 0.52400  0.75590  0.33790  Biso   1.000  H
  C24      1.0000 0.60810  0.84370  0.28913  Biso   1.000  C
  H17      1.0000 0.66100  0.86550  0.27890  Biso   1.000  H
  C25      1.0000 0.50150  0.84521  0.28090  Biso   1.000  C
  H18      1.0000 0.46620  0.86750  0.26410  Biso   1.000  H
  C26      1.0000 0.16380  0.74190  0.40232  Biso   1.000  C
  H19      1.0000 0.22070  0.76350  0.41050  Biso   1.000  H
  C27      1.0000 0.02660  0.68960  0.40203  Biso   1.000  C
  H20      1.0000 0.97030  0.66790  0.41020  Biso   1.000  H
  C28      1.0000 0.04930  0.70000  0.36620  Biso   1.000  C
  H21      1.0000 0.01250  0.68710  0.34510  Biso   1.000  H
  C29      1.0000 0.98080  0.80036  0.23943  Biso   1.000  C
  H22      1.0000 0.94350  0.77630  0.25410  Biso   1.000  H
  C30      1.0000 0.01740  0.85711  0.19737  Biso   1.000  C
  H23      1.0000 0.00960  0.88000  0.17730  Biso   1.000  H
  C31      1.0000 0.11150  0.84910  0.21734  Biso   1.000  C
  H24      1.0000 0.17950  0.86500  0.21360  Biso   1.000  H
  C32      1.0000 0.79850  0.69130  0.31443  Biso   1.000  C
  C33      1.0000 0.83490  0.64177  0.29636  Biso   1.000  C
  C34      1.0000 0.78440  0.59533  0.30506  Biso   1.000  C
  H25      1.0000 0.73030  0.59450  0.32340  Biso   1.000  H
  C35      1.0000 0.81300  0.55067  0.28698  Biso   1.000  C
  C36      1.0000 0.89390  0.54889  0.25912  Biso   1.000  C
  C37      1.0000 0.94570  0.59535  0.25140  Biso   1.000  C
  H26      1.0000 0.00100  0.59590  0.23350  Biso   1.000  H
  C38      1.0000 0.91840  0.64072  0.26930  Biso   1.000  C
  H27      1.0000 0.95580  0.67120  0.26340  Biso   1.000  H
  C39      1.0000 0.92830  0.50140  0.23801  Biso   1.000  C
  C40      1.0000 0.03660  0.48480  0.24265  Biso   1.000  C
  H28      1.0000 0.08330  0.50260  0.25910  Biso   1.000  H
  C41      1.0000 0.07620  0.44240  0.22325  Biso   1.000  C
  H29      1.0000 0.14880  0.43190  0.22730  Biso   1.000  H
  C42      1.0000 0.01120  0.41548  0.19821  Biso   1.000  C
  C43      1.0000 0.90240  0.43087  0.19396  Biso   1.000  C
  H30      1.0000 0.85570  0.41290  0.17760  Biso   1.000  H
  C44      1.0000 0.86360  0.47241  0.21370  Biso   1.000  C
  C45      1.0000 0.05330  0.36994  0.17584  Biso   1.000  C
  C46      1.0000 0.60600  0.76198  0.20743  Biso   1.000  C
  C47      1.0000 0.54590  0.71489  0.22267  Biso   1.000  C
  C48      1.0000 0.60240  0.67546  0.24088  Biso   1.000  C
  H31      1.0000 0.67830  0.67830  0.24460  Biso   1.000  H
  C49      1.0000 0.54800  0.63200  0.25352  Biso   1.000  C
  H32      1.0000 0.58840  0.60560  0.26510  Biso   1.000  H
  C50      1.0000 0.43450  0.62657  0.24948  Biso   1.000  C
  C51      1.0000 0.37950  0.66639  0.23107  Biso   1.000  C
  C52      1.0000 0.43330  0.71058  0.21856  Biso   1.000  C
  H33      1.0000 0.39310  0.73730  0.20740  Biso   1.000  H
  C53      1.0000 0.38610  0.57729  0.26429  Biso   1.000  C
  C54      1.0000 0.42400  0.53020  0.25011  Biso   1.000  C
  H34      1.0000 0.47730  0.53030  0.23150  Biso   1.000  H
  C55      1.0000 0.38400  0.48322  0.26304  Biso   1.000  C
  H35      1.0000 0.40920  0.45250  0.25250  Biso   1.000  H
  C56      1.0000 0.27190  0.52679  0.30679  Biso   1.000  C
  H36      1.0000 0.22180  0.52630  0.32640  Biso   1.000  H
  C57      1.0000 0.31030  0.57380  0.29337  Biso   1.000  C
  C58      1.0000 0.26080  0.43082  0.30596  Biso   1.000  C
  Zn4      1.0000 0.21701  0.29148  0.16526  Biso   1.000  Zn
  Zn5      1.0000 0.22535  0.32646  0.30697  Biso   1.000  Zn
  Zn6      1.0000 0.89975  0.21289  0.01834  Biso   1.000  Zn
  N17      1.0000 0.21180  0.28607  0.10945  Biso   1.000  N
  N18      1.0000 0.25200  0.26501  0.05157  Biso   1.000  N
  N19      1.0000 0.20690  0.19391  0.86105  Biso   1.000  N
  N20      1.0000 0.24050  0.21153  0.92085  Biso   1.000  N
  N21      1.0000 0.74880  0.18589  0.00479  Biso   1.000  N
  N22      1.0000 0.57120  0.18246  0.99559  Biso   1.000  N
  N23      1.0000 0.37040  0.30543  0.18515  Biso   1.000  N
  N24      1.0000 0.54700  0.30686  0.19761  Biso   1.000  N
  N25      1.0000 0.90120  0.21553  0.07519  Biso   1.000  N
  N26      1.0000 0.86250  0.23364  0.13359  Biso   1.000  N
  N27      1.0000 0.06430  0.32633  0.28872  Biso   1.000  N
  N28      1.0000 0.91330  0.31296  0.25580  Biso   1.000  N
  N29      1.0000 0.24520  0.00250  0.20184  Biso   1.000  N
  N30      1.0000 0.25470  0.98570  0.29189  Biso   1.000  N
  N31      1.0000 0.74070  0.16440  0.27476  Biso   1.000  N
  N32      1.0000 0.73250  0.12034  0.18901  Biso   1.000  N
  O17      1.0000 0.33910  0.00689  0.19053  Biso   1.000  O
  O18      1.0000 0.19740  0.96210  0.20332  Biso   1.000  O
  O19      1.0000 0.28800  0.02850  0.28591  Biso   1.000  O
  O20      1.0000 0.31660  0.95140  0.30220  Biso   1.000  O
  O21      1.0000 0.29270  0.26614  0.28279  Biso   1.000  O
  O22      1.0000 0.44220  0.29228  0.31348  Biso   1.000  O
  O23      1.0000 0.70780  0.89005  0.21078  Biso   1.000  O
  O24      1.0000 0.80640  0.93126  0.16867  Biso   1.000  O
  O25      1.0000 0.79090  0.20330  0.28414  Biso   1.000  O
  O26      1.0000 0.78550  0.12360  0.27370  Biso   1.000  O
  O27      1.0000 0.67040  0.15750  0.18583  Biso   1.000  O
  O28      1.0000 0.81510  0.11910  0.17520  Biso   1.000  O
  O29      1.0000 0.14810  0.23250  0.19313  Biso   1.000  O
  O30      1.0000 0.28100  0.19130  0.16395  Biso   1.000  O
  O31      1.0000 0.85420  0.85205  0.31292  Biso   1.000  O
  O32      1.0000 0.00150  0.85338  0.35076  Biso   1.000  O
  C59      1.0000 0.69320  0.98134  0.20837  Biso   1.000  C
  C60      1.0000 0.41120  0.22191  0.02436  Biso   1.000  C
  H37      1.0000 0.44920  0.22460  0.04710  Biso   1.000  H
  C61      1.0000 0.30450  0.24046  0.02025  Biso   1.000  C
  C62      1.0000 0.24700  0.23694  0.98664  Biso   1.000  C
  H38      1.0000 0.17540  0.24970  0.98450  Biso   1.000  H
  C63      1.0000 0.29750  0.21425  0.95635  Biso   1.000  C
  C64      1.0000 0.40440  0.19471  0.95920  Biso   1.000  C
  H39      1.0000 0.43800  0.17900  0.93880  Biso   1.000  H
  C65      1.0000 0.45900  0.19932  0.99335  Biso   1.000  C
  C66      1.0000 0.27440  0.25668  0.08800  Biso   1.000  C
  H40      1.0000 0.32700  0.23330  0.09700  Biso   1.000  H
  C67      1.0000 0.14700  0.31340  0.08561  Biso   1.000  C
  H41      1.0000 0.09400  0.33750  0.09260  Biso   1.000  H
  C68      1.0000 0.17100  0.30010  0.04998  Biso   1.000  C
  H42      1.0000 0.13740  0.31310  0.02830  Biso   1.000  H
  C69      1.0000 0.28000  0.19100  0.88870  Biso   1.000  C
  H43      1.0000 0.35000  0.17660  0.88640  Biso   1.000  H
  C70      1.0000 0.11810  0.21680  0.87608  Biso   1.000  C
  H44      1.0000 0.05270  0.22350  0.86310  Biso   1.000  H
  C71      1.0000 0.13630  0.22880  0.91280  Biso   1.000  C
  H45      1.0000 0.08800  0.24530  0.92900  Biso   1.000  H
  C72      1.0000 0.65570  0.20996  0.00982  Biso   1.000  C
  H46      1.0000 0.64880  0.24190  0.02170  Biso   1.000  H
  C73      1.0000 0.72400  0.14050  0.98645  Biso   1.000  C
  H47      1.0000 0.77510  0.11560  0.97930  Biso   1.000  H
  C74      1.0000 0.61480  0.13761  0.98034  Biso   1.000  C
  H48      1.0000 0.57630  0.11100  0.96830  Biso   1.000  H
  C75      1.0000 0.72900  0.30789  0.22736  Biso   1.000  C
  H49      1.0000 0.69950  0.32410  0.24840  Biso   1.000  H
  C76      1.0000 0.66290  0.29493  0.19663  Biso   1.000  C
  C77      1.0000 0.70470  0.27038  0.16541  Biso   1.000  C
  H50      1.0000 0.65970  0.26250  0.14490  Biso   1.000  H
  C78      1.0000 0.81570  0.25797  0.16566  Biso   1.000  C
  C79      1.0000 0.88500  0.27081  0.19550  Biso   1.000  C
  H51      1.0000 0.95970  0.26250  0.19500  Biso   1.000  H
  C80      1.0000 0.84120  0.29584  0.22566  Biso   1.000  C
  C81      1.0000 0.46600  0.28375  0.17830  Biso   1.000  C
  H52      1.0000 0.47600  0.25590  0.16210  Biso   1.000  H
  C82      1.0000 0.39190  0.34370  0.21087  Biso   1.000  C
  H53      1.0000 0.33900  0.36550  0.22110  Biso   1.000  H
  C83      1.0000 0.49850  0.34521  0.21910  Biso   1.000  C
  H54      1.0000 0.53380  0.36750  0.23590  Biso   1.000  H
  C84      1.0000 0.83620  0.24190  0.09768  Biso   1.000  C
  H55      1.0000 0.77930  0.26350  0.08950  Biso   1.000  H
  C85      1.0000 0.97340  0.18960  0.09797  Biso   1.000  C
  H56      1.0000 0.02970  0.16790  0.08980  Biso   1.000  H
  C86      1.0000 0.95070  0.20000  0.13380  Biso   1.000  C
  H57      1.0000 0.98750  0.18710  0.15490  Biso   1.000  H
  C87      1.0000 0.01920  0.30036  0.26057  Biso   1.000  C
  H58      1.0000 0.05650  0.27630  0.24590  Biso   1.000  H
  C88      1.0000 0.98260  0.35711  0.30263  Biso   1.000  C
  H59      1.0000 0.99040  0.38000  0.32270  Biso   1.000  H
  C89      1.0000 0.88850  0.34910  0.28266  Biso   1.000  C
  H60      1.0000 0.82050  0.36500  0.28640  Biso   1.000  H
  C90      1.0000 0.20150  0.19130  0.18557  Biso   1.000  C
  C91      1.0000 0.16510  0.14177  0.20364  Biso   1.000  C
  C92      1.0000 0.21560  0.09533  0.19494  Biso   1.000  C
  H61      1.0000 0.26970  0.09450  0.17660  Biso   1.000  H
  C93      1.0000 0.18700  0.05067  0.21302  Biso   1.000  C
  C94      1.0000 0.10610  0.04889  0.24088  Biso   1.000  C
  C95      1.0000 0.05430  0.09535  0.24860  Biso   1.000  C
  H62      1.0000 0.99900  0.09590  0.26650  Biso   1.000  H
  C96      1.0000 0.08160  0.14072  0.23070  Biso   1.000  C
  H63      1.0000 0.04420  0.17120  0.23660  Biso   1.000  H
  C97      1.0000 0.07170  0.00140  0.26199  Biso   1.000  C
  C98      1.0000 0.96340  0.98480  0.25735  Biso   1.000  C
  H64      1.0000 0.91670  0.00260  0.24090  Biso   1.000  H
  C99      1.0000 0.92380  0.94240  0.27675  Biso   1.000  C
  H65      1.0000 0.85120  0.93190  0.27270  Biso   1.000  H
  C100     1.0000 0.98880  0.91548  0.30179  Biso   1.000  C
  C101     1.0000 0.09760  0.93087  0.30604  Biso   1.000  C
  H66      1.0000 0.14430  0.91290  0.32240  Biso   1.000  H
  C102     1.0000 0.13640  0.97241  0.28630  Biso   1.000  C
  C103     1.0000 0.94670  0.86994  0.32416  Biso   1.000  C
  C104     1.0000 0.39400  0.26198  0.29257  Biso   1.000  C
  C105     1.0000 0.45410  0.21489  0.27733  Biso   1.000  C
  C106     1.0000 0.39760  0.17546  0.25912  Biso   1.000  C
  H67      1.0000 0.32170  0.17830  0.25540  Biso   1.000  H
  C107     1.0000 0.45200  0.13200  0.24648  Biso   1.000  C
  H68      1.0000 0.41160  0.10560  0.23490  Biso   1.000  H
  C108     1.0000 0.56550  0.12657  0.25052  Biso   1.000  C
  C109     1.0000 0.62050  0.16639  0.26893  Biso   1.000  C
  C110     1.0000 0.56670  0.21058  0.28144  Biso   1.000  C
  H69      1.0000 0.60690  0.23730  0.29260  Biso   1.000  H
  C111     1.0000 0.61390  0.07729  0.23571  Biso   1.000  C
  C112     1.0000 0.57600  0.03020  0.24989  Biso   1.000  C
  H70      1.0000 0.52270  0.03030  0.26850  Biso   1.000  H
  C113     1.0000 0.61600  0.98322  0.23696  Biso   1.000  C
  H71      1.0000 0.59080  0.95250  0.24750  Biso   1.000  H
  C114     1.0000 0.72810  0.02679  0.19321  Biso   1.000  C
  H72      1.0000 0.77820  0.02630  0.17360  Biso   1.000  H
  C115     1.0000 0.68970  0.07380  0.20663  Biso   1.000  C
  C116     1.0000 0.73920  0.93082  0.19404  Biso   1.000  C
  Zn7      1.0000 0.21701  0.20852  0.66526  Biso   1.000  Zn
  Zn8      1.0000 0.22535  0.17354  0.80697  Biso   1.000  Zn
  Zn9      1.0000 0.89975  0.28711  0.51834  Biso   1.000  Zn
  N33      1.0000 0.21180  0.21393  0.60945  Biso   1.000  N
  N34      1.0000 0.25200  0.23499  0.55157  Biso   1.000  N
  N35      1.0000 0.20690  0.30609  0.36105  Biso   1.000  N
  N36      1.0000 0.24050  0.28847  0.42085  Biso   1.000  N
  N37      1.0000 0.74880  0.31411  0.50479  Biso   1.000  N
  N38      1.0000 0.57120  0.31754  0.49559  Biso   1.000  N
  N39      1.0000 0.37040  0.19457  0.68515  Biso   1.000  N
  N40      1.0000 0.54700  0.19314  0.69761  Biso   1.000  N
  N41      1.0000 0.90120  0.28447  0.57519  Biso   1.000  N
  N42      1.0000 0.86250  0.26636  0.63359  Biso   1.000  N
  N43      1.0000 0.06430  0.17367  0.78872  Biso   1.000  N
  N44      1.0000 0.91330  0.18704  0.75580  Biso   1.000  N
  N45      1.0000 0.24520  0.49750  0.70184  Biso   1.000  N
  N46      1.0000 0.25470  0.51430  0.79189  Biso   1.000  N
  N47      1.0000 0.74070  0.33560  0.77476  Biso   1.000  N
  N48      1.0000 0.73250  0.37966  0.68901  Biso   1.000  N
  O33      1.0000 0.33910  0.49311  0.69053  Biso   1.000  O
  O34      1.0000 0.19740  0.53790  0.70332  Biso   1.000  O
  O35      1.0000 0.28800  0.47150  0.78591  Biso   1.000  O
  O36      1.0000 0.31660  0.54860  0.80220  Biso   1.000  O
  O37      1.0000 0.29270  0.23386  0.78279  Biso   1.000  O
  O38      1.0000 0.44220  0.20772  0.81348  Biso   1.000  O
  O39      1.0000 0.70780  0.60995  0.71078  Biso   1.000  O
  O40      1.0000 0.80640  0.56874  0.66867  Biso   1.000  O
  O41      1.0000 0.79090  0.29670  0.78414  Biso   1.000  O
  O42      1.0000 0.78550  0.37640  0.77370  Biso   1.000  O
  O43      1.0000 0.67040  0.34250  0.68583  Biso   1.000  O
  O44      1.0000 0.81510  0.38090  0.67520  Biso   1.000  O
  O45      1.0000 0.14810  0.26750  0.69313  Biso   1.000  O
  O46      1.0000 0.28100  0.30870  0.66395  Biso   1.000  O
  O47      1.0000 0.85420  0.64795  0.81292  Biso   1.000  O
  O48      1.0000 0.00150  0.64662  0.85076  Biso   1.000  O
  C117     1.0000 0.69320  0.51866  0.70837  Biso   1.000  C
  C118     1.0000 0.41120  0.27809  0.52436  Biso   1.000  C
  H73      1.0000 0.44920  0.27540  0.54710  Biso   1.000  H
  C119     1.0000 0.30450  0.25954  0.52025  Biso   1.000  C
  C120     1.0000 0.24700  0.26306  0.48664  Biso   1.000  C
  H74      1.0000 0.17540  0.25030  0.48450  Biso   1.000  H
  C121     1.0000 0.29750  0.28575  0.45635  Biso   1.000  C
  C122     1.0000 0.40440  0.30529  0.45920  Biso   1.000  C
  H75      1.0000 0.43800  0.32100  0.43880  Biso   1.000  H
  C123     1.0000 0.45900  0.30068  0.49335  Biso   1.000  C
  C124     1.0000 0.27440  0.24332  0.58800  Biso   1.000  C
  H76      1.0000 0.32700  0.26670  0.59700  Biso   1.000  H
  C125     1.0000 0.14700  0.18660  0.58561  Biso   1.000  C
  H77      1.0000 0.09400  0.16250  0.59260  Biso   1.000  H
  C126     1.0000 0.17100  0.19990  0.54998  Biso   1.000  C
  H78      1.0000 0.13740  0.18690  0.52830  Biso   1.000  H
  C127     1.0000 0.28000  0.30900  0.38870  Biso   1.000  C
  H79      1.0000 0.35000  0.32340  0.38640  Biso   1.000  H
  C128     1.0000 0.11810  0.28320  0.37608  Biso   1.000  C
  H80      1.0000 0.05270  0.27650  0.36310  Biso   1.000  H
  C129     1.0000 0.13630  0.27120  0.41280  Biso   1.000  C
  H81      1.0000 0.08800  0.25470  0.42900  Biso   1.000  H
  C130     1.0000 0.65570  0.29004  0.50982  Biso   1.000  C
  H82      1.0000 0.64880  0.25810  0.52170  Biso   1.000  H
  C131     1.0000 0.72400  0.35950  0.48645  Biso   1.000  C
  H83      1.0000 0.77510  0.38440  0.47930  Biso   1.000  H
  C132     1.0000 0.61480  0.36239  0.48034  Biso   1.000  C
  H84      1.0000 0.57630  0.38900  0.46830  Biso   1.000  H
  C133     1.0000 0.72900  0.19211  0.72736  Biso   1.000  C
  H85      1.0000 0.69950  0.17590  0.74840  Biso   1.000  H
  C134     1.0000 0.66290  0.20507  0.69663  Biso   1.000  C
  C135     1.0000 0.70470  0.22962  0.66541  Biso   1.000  C
  H86      1.0000 0.65970  0.23750  0.64490  Biso   1.000  H
  C136     1.0000 0.81570  0.24203  0.66566  Biso   1.000  C
  C137     1.0000 0.88500  0.22919  0.69550  Biso   1.000  C
  H87      1.0000 0.95970  0.23750  0.69500  Biso   1.000  H
  C138     1.0000 0.84120  0.20416  0.72566  Biso   1.000  C
  C139     1.0000 0.46600  0.21625  0.67830  Biso   1.000  C
  H88      1.0000 0.47600  0.24410  0.66210  Biso   1.000  H
  C140     1.0000 0.39190  0.15630  0.71087  Biso   1.000  C
  H89      1.0000 0.33900  0.13450  0.72110  Biso   1.000  H
  C141     1.0000 0.49850  0.15479  0.71910  Biso   1.000  C
  H90      1.0000 0.53380  0.13250  0.73590  Biso   1.000  H
  C142     1.0000 0.83620  0.25810  0.59768  Biso   1.000  C
  H91      1.0000 0.77930  0.23650  0.58950  Biso   1.000  H
  C143     1.0000 0.97340  0.31040  0.59797  Biso   1.000  C
  H92      1.0000 0.02970  0.33210  0.58980  Biso   1.000  H
  C144     1.0000 0.95070  0.30000  0.63380  Biso   1.000  C
  H93      1.0000 0.98750  0.31290  0.65490  Biso   1.000  H
  C145     1.0000 0.01920  0.19964  0.76057  Biso   1.000  C
  H94      1.0000 0.05650  0.22370  0.74590  Biso   1.000  H
  C146     1.0000 0.98260  0.14289  0.80263  Biso   1.000  C
  H95      1.0000 0.99040  0.12000  0.82270  Biso   1.000  H
  C147     1.0000 0.88850  0.15090  0.78266  Biso   1.000  C
  H96      1.0000 0.82050  0.13500  0.78640  Biso   1.000  H
  C148     1.0000 0.20150  0.30870  0.68557  Biso   1.000  C
  C149     1.0000 0.16510  0.35823  0.70364  Biso   1.000  C
  C150     1.0000 0.21560  0.40467  0.69494  Biso   1.000  C
  H97      1.0000 0.26970  0.40550  0.67660  Biso   1.000  H
  C151     1.0000 0.18700  0.44933  0.71302  Biso   1.000  C
  C152     1.0000 0.10610  0.45111  0.74088  Biso   1.000  C
  C153     1.0000 0.05430  0.40465  0.74860  Biso   1.000  C
  H98      1.0000 0.99900  0.40410  0.76650  Biso   1.000  H
  C154     1.0000 0.08160  0.35928  0.73070  Biso   1.000  C
  H99      1.0000 0.04420  0.32880  0.73660  Biso   1.000  H
  C155     1.0000 0.07170  0.49860  0.76199  Biso   1.000  C
  C156     1.0000 0.96340  0.51520  0.75735  Biso   1.000  C
  H100     1.0000 0.91670  0.49740  0.74090  Biso   1.000  H
  C157     1.0000 0.92380  0.55760  0.77675  Biso   1.000  C
  H101     1.0000 0.85120  0.56810  0.77270  Biso   1.000  H
  C158     1.0000 0.98880  0.58452  0.80179  Biso   1.000  C
  C159     1.0000 0.09760  0.56913  0.80604  Biso   1.000  C
  H102     1.0000 0.14430  0.58710  0.82240  Biso   1.000  H
  C160     1.0000 0.13640  0.52759  0.78630  Biso   1.000  C
  C161     1.0000 0.94670  0.63006  0.82416  Biso   1.000  C
  C162     1.0000 0.39400  0.23802  0.79257  Biso   1.000  C
  C163     1.0000 0.45410  0.28511  0.77733  Biso   1.000  C
  C164     1.0000 0.39760  0.32454  0.75912  Biso   1.000  C
  H103     1.0000 0.32170  0.32170  0.75540  Biso   1.000  H
  C165     1.0000 0.45200  0.36800  0.74648  Biso   1.000  C
  H104     1.0000 0.41160  0.39440  0.73490  Biso   1.000  H
  C166     1.0000 0.56550  0.37343  0.75052  Biso   1.000  C
  C167     1.0000 0.62050  0.33361  0.76893  Biso   1.000  C
  C168     1.0000 0.56670  0.28942  0.78144  Biso   1.000  C
  H105     1.0000 0.60690  0.26270  0.79260  Biso   1.000  H
  C169     1.0000 0.61390  0.42271  0.73571  Biso   1.000  C
  C170     1.0000 0.57600  0.46980  0.74989  Biso   1.000  C
  H106     1.0000 0.52270  0.46970  0.76850  Biso   1.000  H
  C171     1.0000 0.61600  0.51678  0.73696  Biso   1.000  C
  H107     1.0000 0.59080  0.54750  0.74750  Biso   1.000  H
  C172     1.0000 0.72810  0.47321  0.69321  Biso   1.000  C
  H108     1.0000 0.77820  0.47370  0.67360  Biso   1.000  H
  C173     1.0000 0.68970  0.42620  0.70663  Biso   1.000  C
  C174     1.0000 0.73920  0.56918  0.69404  Biso   1.000  C
  Zn10     1.0000 0.78299  0.70852  0.83474  Biso   1.000  Zn
  Zn11     1.0000 0.77465  0.67354  0.69303  Biso   1.000  Zn
  Zn12     1.0000 0.10025  0.78711  0.98166  Biso   1.000  Zn
  N49      1.0000 0.78820  0.71393  0.89055  Biso   1.000  N
  N50      1.0000 0.74800  0.73499  0.94843  Biso   1.000  N
  N51      1.0000 0.79310  0.80609  0.13895  Biso   1.000  N
  N52      1.0000 0.75950  0.78847  0.07915  Biso   1.000  N
  N53      1.0000 0.25120  0.81411  0.99521  Biso   1.000  N
  N54      1.0000 0.42880  0.81754  0.00441  Biso   1.000  N
  N55      1.0000 0.62960  0.69457  0.81485  Biso   1.000  N
  N56      1.0000 0.45300  0.69314  0.80239  Biso   1.000  N
  N57      1.0000 0.09880  0.78447  0.92481  Biso   1.000  N
  N58      1.0000 0.13750  0.76636  0.86641  Biso   1.000  N
  N59      1.0000 0.93570  0.67367  0.71128  Biso   1.000  N
  N60      1.0000 0.08670  0.68704  0.74420  Biso   1.000  N
  N61      1.0000 0.75480  0.99750  0.79816  Biso   1.000  N
  N62      1.0000 0.74530  0.01430  0.70811  Biso   1.000  N
  N63      1.0000 0.25930  0.83560  0.72524  Biso   1.000  N
  N64      1.0000 0.26750  0.87966  0.81099  Biso   1.000  N
  O49      1.0000 0.66090  0.99311  0.80947  Biso   1.000  O
  O50      1.0000 0.80260  0.03790  0.79668  Biso   1.000  O
  O51      1.0000 0.71200  0.97150  0.71409  Biso   1.000  O
  O52      1.0000 0.68340  0.04860  0.69780  Biso   1.000  O
  O53      1.0000 0.70730  0.73386  0.71721  Biso   1.000  O
  O54      1.0000 0.55780  0.70772  0.68652  Biso   1.000  O
  O55      1.0000 0.29220  0.10995  0.78922  Biso   1.000  O
  O56      1.0000 0.19360  0.06874  0.83133  Biso   1.000  O
  O57      1.0000 0.20910  0.79670  0.71586  Biso   1.000  O
  O58      1.0000 0.21450  0.87640  0.72630  Biso   1.000  O
  O59      1.0000 0.32960  0.84250  0.81417  Biso   1.000  O
  O60      1.0000 0.18490  0.88090  0.82480  Biso   1.000  O
  O61      1.0000 0.85190  0.76750  0.80687  Biso   1.000  O
  O62      1.0000 0.71900  0.80870  0.83605  Biso   1.000  O
  O63      1.0000 0.14580  0.14795  0.68708  Biso   1.000  O
  O64      1.0000 0.99850  0.14662  0.64924  Biso   1.000  O
  C175     1.0000 0.30680  0.01866  0.79163  Biso   1.000  C
  C176     1.0000 0.58880  0.77809  0.97564  Biso   1.000  C
  H109     1.0000 0.55080  0.77540  0.95290  Biso   1.000  H
  C177     1.0000 0.69550  0.75954  0.97975  Biso   1.000  C
  C178     1.0000 0.75300  0.76306  0.01336  Biso   1.000  C
  H110     1.0000 0.82460  0.75030  0.01550  Biso   1.000  H
  C179     1.0000 0.70250  0.78575  0.04365  Biso   1.000  C
  C180     1.0000 0.59560  0.80529  0.04080  Biso   1.000  C
  H111     1.0000 0.56200  0.82100  0.06120  Biso   1.000  H
  C181     1.0000 0.54100  0.80068  0.00665  Biso   1.000  C
  C182     1.0000 0.72560  0.74332  0.91200  Biso   1.000  C
  H112     1.0000 0.67300  0.76670  0.90300  Biso   1.000  H
  C183     1.0000 0.85300  0.68660  0.91439  Biso   1.000  C
  H113     1.0000 0.90600  0.66250  0.90740  Biso   1.000  H
  C184     1.0000 0.82900  0.69990  0.95002  Biso   1.000  C
  H114     1.0000 0.86260  0.68690  0.97170  Biso   1.000  H
  C185     1.0000 0.72000  0.80900  0.11130  Biso   1.000  C
  H115     1.0000 0.65000  0.82340  0.11360  Biso   1.000  H
  C186     1.0000 0.88190  0.78320  0.12392  Biso   1.000  C
  H116     1.0000 0.94730  0.77650  0.13690  Biso   1.000  H
  C187     1.0000 0.86370  0.77120  0.08720  Biso   1.000  C
  H117     1.0000 0.91200  0.75470  0.07100  Biso   1.000  H
  C188     1.0000 0.34430  0.79004  0.99018  Biso   1.000  C
  H118     1.0000 0.35120  0.75810  0.97830  Biso   1.000  H
  C189     1.0000 0.27600  0.85950  0.01355  Biso   1.000  C
  H119     1.0000 0.22490  0.88440  0.02070  Biso   1.000  H
  C190     1.0000 0.38520  0.86239  0.01966  Biso   1.000  C
  H120     1.0000 0.42370  0.88900  0.03170  Biso   1.000  H
  C191     1.0000 0.27100  0.69211  0.77264  Biso   1.000  C
  H121     1.0000 0.30050  0.67590  0.75160  Biso   1.000  H
  C192     1.0000 0.33710  0.70507  0.80337  Biso   1.000  C
  C193     1.0000 0.29530  0.72962  0.83459  Biso   1.000  C
  H122     1.0000 0.34030  0.73750  0.85510  Biso   1.000  H
  C194     1.0000 0.18430  0.74203  0.83434  Biso   1.000  C
  C195     1.0000 0.11500  0.72919  0.80450  Biso   1.000  C
  H123     1.0000 0.04030  0.73750  0.80500  Biso   1.000  H
  C196     1.0000 0.15880  0.70416  0.77434  Biso   1.000  C
  C197     1.0000 0.53400  0.71625  0.82170  Biso   1.000  C
  H124     1.0000 0.52400  0.74410  0.83790  Biso   1.000  H
  C198     1.0000 0.60810  0.65630  0.78913  Biso   1.000  C
  H125     1.0000 0.66100  0.63450  0.77890  Biso   1.000  H
  C199     1.0000 0.50150  0.65479  0.78090  Biso   1.000  C
  H126     1.0000 0.46620  0.63250  0.76410  Biso   1.000  H
  C200     1.0000 0.16380  0.75810  0.90232  Biso   1.000  C
  H127     1.0000 0.22070  0.73650  0.91050  Biso   1.000  H
  C201     1.0000 0.02660  0.81040  0.90203  Biso   1.000  C
  H128     1.0000 0.97030  0.83210  0.91020  Biso   1.000  H
  C202     1.0000 0.04930  0.80000  0.86620  Biso   1.000  C
  H129     1.0000 0.01250  0.81290  0.84510  Biso   1.000  H
  C203     1.0000 0.98080  0.69964  0.73943  Biso   1.000  C
  H130     1.0000 0.94350  0.72370  0.75410  Biso   1.000  H
  C204     1.0000 0.01740  0.64289  0.69737  Biso   1.000  C
  H131     1.0000 0.00960  0.62000  0.67730  Biso   1.000  H
  C205     1.0000 0.11150  0.65090  0.71734  Biso   1.000  C
  H132     1.0000 0.17950  0.63500  0.71360  Biso   1.000  H
  C206     1.0000 0.79850  0.80870  0.81443  Biso   1.000  C
  C207     1.0000 0.83490  0.85823  0.79636  Biso   1.000  C
  C208     1.0000 0.78440  0.90467  0.80506  Biso   1.000  C
  H133     1.0000 0.73030  0.90550  0.82340  Biso   1.000  H
  C209     1.0000 0.81300  0.94933  0.78698  Biso   1.000  C
  C210     1.0000 0.89390  0.95111  0.75912  Biso   1.000  C
  C211     1.0000 0.94570  0.90465  0.75140  Biso   1.000  C
  H134     1.0000 0.00100  0.90410  0.73350  Biso   1.000  H
  C212     1.0000 0.91840  0.85928  0.76930  Biso   1.000  C
  H135     1.0000 0.95580  0.82880  0.76340  Biso   1.000  H
  C213     1.0000 0.92830  0.99860  0.73801  Biso   1.000  C
  C214     1.0000 0.03660  0.01520  0.74265  Biso   1.000  C
  H136     1.0000 0.08330  0.99740  0.75910  Biso   1.000  H
  C215     1.0000 0.07620  0.05760  0.72325  Biso   1.000  C
  H137     1.0000 0.14880  0.06810  0.72730  Biso   1.000  H
  C216     1.0000 0.01120  0.08452  0.69821  Biso   1.000  C
  C217     1.0000 0.90240  0.06913  0.69396  Biso   1.000  C
  H138     1.0000 0.85570  0.08710  0.67760  Biso   1.000  H
  C218     1.0000 0.86360  0.02759  0.71370  Biso   1.000  C
  C219     1.0000 0.05330  0.13006  0.67584  Biso   1.000  C
  C220     1.0000 0.60600  0.73802  0.70743  Biso   1.000  C
  C221     1.0000 0.54590  0.78511  0.72267  Biso   1.000  C
  C222     1.0000 0.60240  0.82454  0.74088  Biso   1.000  C
  H139     1.0000 0.67830  0.82170  0.74460  Biso   1.000  H
  C223     1.0000 0.54800  0.86800  0.75352  Biso   1.000  C
  H140     1.0000 0.58840  0.89440  0.76510  Biso   1.000  H
  C224     1.0000 0.43450  0.87343  0.74948  Biso   1.000  C
  C225     1.0000 0.37950  0.83361  0.73107  Biso   1.000  C
  C226     1.0000 0.43330  0.78942  0.71856  Biso   1.000  C
  H141     1.0000 0.39310  0.76270  0.70740  Biso   1.000  H
  C227     1.0000 0.38610  0.92271  0.76429  Biso   1.000  C
  C228     1.0000 0.42400  0.96980  0.75011  Biso   1.000  C
  H142     1.0000 0.47730  0.96970  0.73150  Biso   1.000  H
  C229     1.0000 0.38400  0.01678  0.76304  Biso   1.000  C
  H143     1.0000 0.40920  0.04750  0.75250  Biso   1.000  H
  C230     1.0000 0.27190  0.97321  0.80679  Biso   1.000  C
  H144     1.0000 0.22180  0.97370  0.82640  Biso   1.000  H
  C231     1.0000 0.31030  0.92620  0.79337  Biso   1.000  C
  C232     1.0000 0.26080  0.06918  0.80596  Biso   1.000  C
