data_UMORIY_clean
_audit_creation_date              2014-07-02
_audit_creation_method            'Materials Studio'
_symmetry_space_group_name_H-M    'P1'
_symmetry_Int_Tables_number       1
_symmetry_cell_setting            triclinic
loop_
_symmetry_equiv_pos_as_xyz
  x,y,z
_cell_length_a                    8.8216
_cell_length_b                    8.8216
_cell_length_c                    10.0755
_cell_angle_alpha                 102.6700
_cell_angle_beta                  102.6700
_cell_angle_gamma                 119.9320
loop_
_atom_site_label
_atom_site_type_symbol
_atom_site_fract_x
_atom_site_fract_y
_atom_site_fract_z
_atom_site_U_iso_or_equiv
_atom_site_adp_type
_atom_site_occupancy
Cd1    Cd    0.47211   0.97211   0.94422   0.01267  Uiso   1.00
Cd2    Cd    0.72211   0.72211   0.44422   0.01267  Uiso   1.00
Cd3    Cd    0.24081   0.24081   0.48162   0.01267  Uiso   1.00
Cd4    Cd    0.99081   0.49081   0.98162   0.01267  Uiso   1.00
C1     C     0.62800   0.88760   0.70620   0.01267  Uiso   1.00
C2     C     0.49840   0.68720   0.68960   0.01267  Uiso   1.00
C3     C     0.07820   0.81860   0.70620   0.01267  Uiso   1.00
C4     C     0.19120   0.00240   0.68960   0.01267  Uiso   1.00
C5     C     0.63760   0.87800   0.20620   0.01267  Uiso   1.00
C6     C     0.43720   0.74840   0.18960   0.01267  Uiso   1.00
C7     C     0.56860   0.32820   0.20620   0.01267  Uiso   1.00
C8     C     0.75240   0.44120   0.18960   0.01267  Uiso   1.00
N1     N     0.65420   0.03340   0.80500   0.01267  Uiso   1.00
N2     N     0.77490   0.18550   0.78260   0.01267  Uiso   1.00
N3     N     0.81710   0.12970   0.67280   0.01267  Uiso   1.00
N4     N     0.72520   0.94060   0.62160   0.01267  Uiso   1.00
N5     N     0.15080   0.77160   0.80500   0.01267  Uiso   1.00
N6     N     0.00770   0.59710   0.78260   0.01267  Uiso   1.00
N7     N     0.85570   0.54310   0.67280   0.01267  Uiso   1.00
N8     N     0.89640   0.68100   0.62160   0.01267  Uiso   1.00
N9     N     0.78340   0.90420   0.30500   0.01267  Uiso   1.00
N10    N     0.93550   0.02490   0.28260   0.01267  Uiso   1.00
N11    N     0.87970   0.06710   0.17280   0.01267  Uiso   1.00
N12    N     0.69060   0.97520   0.12160   0.01267  Uiso   1.00
N13    N     0.52160   0.40080   0.30500   0.01267  Uiso   1.00
N14    N     0.34710   0.25770   0.28260   0.01267  Uiso   1.00
N15    N     0.29310   0.10570   0.17280   0.01267  Uiso   1.00
N16    N     0.43100   0.14640   0.12160   0.01267  Uiso   1.00
O1     O     0.42430   0.66310   0.78060   0.01267  Uiso   1.00
O2     O     0.47840   0.56260   0.58280   0.01267  Uiso   1.00
O3     O     0.35630   0.11750   0.78060   0.01267  Uiso   1.00
O4     O     0.10440   0.02020   0.58280   0.01267  Uiso   1.00
O5     O     0.41310   0.67430   0.28060   0.01267  Uiso   1.00
O6     O     0.31260   0.72840   0.08280   0.01267  Uiso   1.00
O7     O     0.86750   0.60630   0.28060   0.01267  Uiso   1.00
O8     O     0.77020   0.35440   0.08280   0.01267  Uiso   1.00
