data_UMUTOM_clean
_audit_creation_date              2014-07-02
_audit_creation_method            'Materials Studio'
_symmetry_space_group_name_H-M    'P1'
_symmetry_Int_Tables_number       1
_symmetry_cell_setting            triclinic
loop_
_symmetry_equiv_pos_as_xyz
  x,y,z
_cell_length_a                    9.3669
_cell_length_b                    14.1543
_cell_length_c                    21.7897
_cell_angle_alpha                 95.0750
_cell_angle_beta                  94.3150
_cell_angle_gamma                 104.7230
loop_
_atom_site_label
_atom_site_type_symbol
_atom_site_fract_x
_atom_site_fract_y
_atom_site_fract_z
_atom_site_U_iso_or_equiv
_atom_site_adp_type
_atom_site_occupancy
Eu1    Eu    0.43186   0.71214   0.90318   0.01267  Uiso   1.00
Eu2    Eu    0.84927   0.06885   0.77928   0.01267  Uiso   1.00
Eu3    Eu    0.23857   0.82914   0.61812   0.01267  Uiso   1.00
Eu4    Eu    0.78852   0.38725   0.56013   0.01267  Uiso   1.00
Eu5    Eu    0.07689   0.30851   0.93708   0.01267  Uiso   1.00
Eu6    Eu    0.56814   0.28786   0.09682   0.01267  Uiso   1.00
Eu7    Eu    0.15073   0.93115   0.22072   0.01267  Uiso   1.00
Eu8    Eu    0.76143   0.17086   0.38188   0.01267  Uiso   1.00
Eu9    Eu    0.21148   0.61275   0.43987   0.01267  Uiso   1.00
Eu10   Eu    0.92311   0.69149   0.06292   0.01267  Uiso   1.00
H1     H     0.53240   0.10990   0.92210   0.01267  Uiso   1.00
H2     H     0.14760   0.98110   0.98470   0.01267  Uiso   1.00
H3     H     0.45090   0.66030   0.65480   0.01267  Uiso   1.00
H4     H     0.67850   0.49930   0.74480   0.01267  Uiso   1.00
H5     H     0.50490   0.29970   0.86730   0.01267  Uiso   1.00
H6     H     0.28650   0.09220   0.72990   0.01267  Uiso   1.00
H7     H     0.68780   0.88010   0.62430   0.01267  Uiso   1.00
H8     H     0.70570   0.68470   0.48060   0.01267  Uiso   1.00
H9     H     0.99160   0.32790   0.78650   0.01267  Uiso   1.00
H10    H     0.13870   0.61050   0.75400   0.01267  Uiso   1.00
H11    H     0.46760   0.89010   0.07790   0.01267  Uiso   1.00
H12    H     0.85240   0.01890   0.01530   0.01267  Uiso   1.00
H13    H     0.54910   0.33970   0.34520   0.01267  Uiso   1.00
H14    H     0.32150   0.50070   0.25520   0.01267  Uiso   1.00
H15    H     0.49510   0.70030   0.13270   0.01267  Uiso   1.00
H16    H     0.71350   0.90780   0.27010   0.01267  Uiso   1.00
H17    H     0.31220   0.11990   0.37570   0.01267  Uiso   1.00
H18    H     0.29430   0.31530   0.51940   0.01267  Uiso   1.00
H19    H     0.00840   0.67210   0.21350   0.01267  Uiso   1.00
H20    H     0.86130   0.38950   0.24600   0.01267  Uiso   1.00
C1     C     0.48160   0.96070   0.91480   0.01267  Uiso   1.00
C2     C     0.46140   0.05410   0.92950   0.01267  Uiso   1.00
C3     C     0.33500   0.06240   0.95510   0.01267  Uiso   1.00
C4     C     0.23450   0.97790   0.96750   0.01267  Uiso   1.00
C5     C     0.26580   0.88890   0.95390   0.01267  Uiso   1.00
C6     C     0.61280   0.94260   0.88230   0.01267  Uiso   1.00
C7     C     0.31180   0.16300   0.97200   0.01267  Uiso   1.00
C8     C     0.16530   0.79280   0.96680   0.01267  Uiso   1.00
C9     C     0.46760   0.68270   0.74880   0.01267  Uiso   1.00
C10    C     0.48760   0.64070   0.69100   0.01267  Uiso   1.00
C11    C     0.56480   0.56800   0.68910   0.01267  Uiso   1.00
C12    C     0.62360   0.54560   0.74460   0.01267  Uiso   1.00
C13    C     0.60000   0.59250   0.79960   0.01267  Uiso   1.00
C14    C     0.37610   0.75720   0.75670   0.01267  Uiso   1.00
C15    C     0.58310   0.51730   0.62710   0.01267  Uiso   1.00
C16    C     0.65790   0.57250   0.86320   0.01267  Uiso   1.00
C17    C     0.62900   0.21570   0.82820   0.01267  Uiso   1.00
C18    C     0.50140   0.24780   0.83740   0.01267  Uiso   1.00
C19    C     0.36920   0.20060   0.80100   0.01267  Uiso   1.00
C20    C     0.37190   0.12490   0.75550   0.01267  Uiso   1.00
C21    C     0.50450   0.09920   0.74910   0.01267  Uiso   1.00
C22    C     0.77520   0.25210   0.86910   0.01267  Uiso   1.00
C23    C     0.22200   0.21990   0.81300   0.01267  Uiso   1.00
C24    C     0.51740   0.01370   0.70450   0.01267  Uiso   1.00
C25    C     0.89160   0.86100   0.61280   0.01267  Uiso   1.00
C26    C     0.74060   0.84640   0.60010   0.01267  Uiso   1.00
C27    C     0.67040   0.77960   0.54970   0.01267  Uiso   1.00
C28    C     0.75150   0.72970   0.51450   0.01267  Uiso   1.00
C29    C     0.90190   0.74900   0.53120   0.01267  Uiso   1.00
C30    C     0.98220   0.92920   0.66700   0.01267  Uiso   1.00
C31    C     0.50390   0.75730   0.53480   0.01267  Uiso   1.00
C32    C     0.00400   0.70130   0.49820   0.01267  Uiso   1.00
C33    C     0.93070   0.35650   0.70070   0.01267  Uiso   1.00
C34    C     0.99760   0.37730   0.76060   0.01267  Uiso   1.00
C35    C     0.07450   0.47430   0.78150   0.01267  Uiso   1.00
C36    C     0.08580   0.54570   0.74150   0.01267  Uiso   1.00
C37    C     0.01550   0.51730   0.68190   0.01267  Uiso   1.00
C38    C     0.84270   0.25490   0.67300   0.01267  Uiso   1.00
C39    C     0.14600   0.49900   0.84770   0.01267  Uiso   1.00
C40    C     0.02060   0.58810   0.63250   0.01267  Uiso   1.00
C41    C     0.51840   0.03930   0.08520   0.01267  Uiso   1.00
C42    C     0.53860   0.94590   0.07050   0.01267  Uiso   1.00
C43    C     0.66500   0.93760   0.04490   0.01267  Uiso   1.00
C44    C     0.76550   0.02210   0.03250   0.01267  Uiso   1.00
C45    C     0.73420   0.11110   0.04610   0.01267  Uiso   1.00
C46    C     0.38720   0.05740   0.11770   0.01267  Uiso   1.00
C47    C     0.68820   0.83700   0.02800   0.01267  Uiso   1.00
C48    C     0.83470   0.20720   0.03320   0.01267  Uiso   1.00
C49    C     0.53240   0.31730   0.25120   0.01267  Uiso   1.00
C50    C     0.51240   0.35930   0.30900   0.01267  Uiso   1.00
C51    C     0.43520   0.43200   0.31090   0.01267  Uiso   1.00
C52    C     0.37640   0.45440   0.25540   0.01267  Uiso   1.00
C53    C     0.40000   0.40750   0.20040   0.01267  Uiso   1.00
C54    C     0.62390   0.24280   0.24330   0.01267  Uiso   1.00
C55    C     0.41690   0.48270   0.37290   0.01267  Uiso   1.00
C56    C     0.34210   0.42750   0.13680   0.01267  Uiso   1.00
C57    C     0.37100   0.78430   0.17180   0.01267  Uiso   1.00
C58    C     0.49860   0.75220   0.16260   0.01267  Uiso   1.00
C59    C     0.63080   0.79940   0.19900   0.01267  Uiso   1.00
C60    C     0.62810   0.87510   0.24450   0.01267  Uiso   1.00
C61    C     0.49550   0.90080   0.25090   0.01267  Uiso   1.00
C62    C     0.22480   0.74790   0.13090   0.01267  Uiso   1.00
C63    C     0.77800   0.78010   0.18700   0.01267  Uiso   1.00
C64    C     0.48260   0.98630   0.29550   0.01267  Uiso   1.00
C65    C     0.10840   0.13900   0.38720   0.01267  Uiso   1.00
C66    C     0.25940   0.15360   0.39990   0.01267  Uiso   1.00
C67    C     0.32960   0.22040   0.45030   0.01267  Uiso   1.00
C68    C     0.24850   0.27030   0.48550   0.01267  Uiso   1.00
C69    C     0.09810   0.25100   0.46880   0.01267  Uiso   1.00
C70    C     0.01780   0.07080   0.33300   0.01267  Uiso   1.00
C71    C     0.49610   0.24270   0.46520   0.01267  Uiso   1.00
C72    C     0.99600   0.29870   0.50180   0.01267  Uiso   1.00
C73    C     0.06930   0.64350   0.29930   0.01267  Uiso   1.00
C74    C     0.00240   0.62270   0.23940   0.01267  Uiso   1.00
C75    C     0.92550   0.52570   0.21850   0.01267  Uiso   1.00
C76    C     0.91420   0.45430   0.25850   0.01267  Uiso   1.00
C77    C     0.98450   0.48270   0.31810   0.01267  Uiso   1.00
C78    C     0.15730   0.74510   0.32700   0.01267  Uiso   1.00
C79    C     0.85400   0.50100   0.15230   0.01267  Uiso   1.00
C80    C     0.97940   0.41190   0.36750   0.01267  Uiso   1.00
N1     N     0.38580   0.87980   0.92780   0.01267  Uiso   1.00
N2     N     0.51960   0.65880   0.80200   0.01267  Uiso   1.00
N3     N     0.62820   0.14220   0.78570   0.01267  Uiso   1.00
N4     N     0.97100   0.81320   0.58030   0.01267  Uiso   1.00
N5     N     0.93880   0.42550   0.66190   0.01267  Uiso   1.00
N6     N     0.61420   0.12020   0.07220   0.01267  Uiso   1.00
N7     N     0.48040   0.34120   0.19800   0.01267  Uiso   1.00
N8     N     0.37180   0.85780   0.21430   0.01267  Uiso   1.00
N9     N     0.02900   0.18680   0.41970   0.01267  Uiso   1.00
N10    N     0.06120   0.57450   0.33810   0.01267  Uiso   1.00
O1     O     0.62520   0.85590   0.87860   0.01267  Uiso   1.00
O2     O     0.69410   0.01420   0.86190   0.01267  Uiso   1.00
O3     O     0.41920   0.22620   0.00070   0.01267  Uiso   1.00
O4     O     0.18720   0.17490   0.95650   0.01267  Uiso   1.00
O5     O     0.06430   0.79600   0.99990   0.01267  Uiso   1.00
O6     O     0.19500   0.71620   0.94310   0.01267  Uiso   1.00
O7     O     0.33510   0.76970   0.81000   0.01267  Uiso   1.00
O8     O     0.34640   0.79800   0.71200   0.01267  Uiso   1.00
O9     O     0.53180   0.54190   0.57970   0.01267  Uiso   1.00
O10    O     0.65010   0.44980   0.62980   0.01267  Uiso   1.00
O11    O     0.74760   0.52350   0.86770   0.01267  Uiso   1.00
O12    O     0.60760   0.61390   0.90820   0.01267  Uiso   1.00
O13    O     0.87940   0.21360   0.85530   0.01267  Uiso   1.00
O14    O     0.79100   0.31470   0.91530   0.01267  Uiso   1.00
O15    O     0.22270   0.28510   0.85530   0.01267  Uiso   1.00
O16    O     0.10970   0.16900   0.78020   0.01267  Uiso   1.00
O17    O     0.41300   0.97950   0.66230   0.01267  Uiso   1.00
O18    O     0.63060   0.98440   0.71360   0.01267  Uiso   1.00
O19    O     0.10790   0.91720   0.68240   0.01267  Uiso   1.00
O20    O     0.93090   0.99430   0.69280   0.01267  Uiso   1.00
O21    O     0.43460   0.78700   0.57620   0.01267  Uiso   1.00
O22    O     0.44800   0.71120   0.48330   0.01267  Uiso   1.00
O23    O     0.95600   0.63480   0.45430   0.01267  Uiso   1.00
O24    O     0.14260   0.73120   0.51700   0.01267  Uiso   1.00
O25    O     0.77280   0.25000   0.62030   0.01267  Uiso   1.00
O26    O     0.84520   0.18410   0.70240   0.01267  Uiso   1.00
O27    O     0.08970   0.44550   0.88700   0.01267  Uiso   1.00
O28    O     0.25780   0.57040   0.85680   0.01267  Uiso   1.00
O29    O     0.09990   0.67340   0.64540   0.01267  Uiso   1.00
O30    O     0.94320   0.55280   0.58180   0.01267  Uiso   1.00
O31    O     0.37480   0.14410   0.12140   0.01267  Uiso   1.00
O32    O     0.30590   0.98580   0.13810   0.01267  Uiso   1.00
O33    O     0.58080   0.77380   0.99930   0.01267  Uiso   1.00
O34    O     0.81280   0.82510   0.04350   0.01267  Uiso   1.00
O35    O     0.93570   0.20400   0.00010   0.01267  Uiso   1.00
O36    O     0.80500   0.28380   0.05690   0.01267  Uiso   1.00
O37    O     0.66490   0.23030   0.19000   0.01267  Uiso   1.00
O38    O     0.65360   0.20200   0.28800   0.01267  Uiso   1.00
O39    O     0.46820   0.45810   0.42030   0.01267  Uiso   1.00
O40    O     0.34990   0.55020   0.37020   0.01267  Uiso   1.00
O41    O     0.25240   0.47650   0.13230   0.01267  Uiso   1.00
O42    O     0.39240   0.38610   0.09180   0.01267  Uiso   1.00
O43    O     0.12060   0.78640   0.14470   0.01267  Uiso   1.00
O44    O     0.20900   0.68530   0.08470   0.01267  Uiso   1.00
O45    O     0.77730   0.71490   0.14470   0.01267  Uiso   1.00
O46    O     0.89030   0.83100   0.21980   0.01267  Uiso   1.00
O47    O     0.58700   0.02050   0.33770   0.01267  Uiso   1.00
O48    O     0.36940   0.01560   0.28640   0.01267  Uiso   1.00
O49    O     0.89210   0.08280   0.31760   0.01267  Uiso   1.00
O50    O     0.06910   0.00570   0.30720   0.01267  Uiso   1.00
O51    O     0.56540   0.21300   0.42380   0.01267  Uiso   1.00
O52    O     0.55200   0.28880   0.51670   0.01267  Uiso   1.00
O53    O     0.04400   0.36520   0.54570   0.01267  Uiso   1.00
O54    O     0.85740   0.26880   0.48300   0.01267  Uiso   1.00
O55    O     0.22720   0.75000   0.37970   0.01267  Uiso   1.00
O56    O     0.15480   0.81590   0.29760   0.01267  Uiso   1.00
O57    O     0.91030   0.55450   0.11300   0.01267  Uiso   1.00
O58    O     0.74220   0.42960   0.14320   0.01267  Uiso   1.00
O59    O     0.90010   0.32660   0.35460   0.01267  Uiso   1.00
O60    O     0.05680   0.44720   0.41820   0.01267  Uiso   1.00
