data_image0
_cell_length_a       15.2229
_cell_length_b       15.2229
_cell_length_c       6.8862
_cell_angle_alpha    90
_cell_angle_beta     90
_cell_angle_gamma    120

_symmetry_space_group_name_H-M    "P 1"
_symmetry_int_tables_number       1

loop_
  _symmetry_equiv_pos_as_xyz
  'x, y, z'

loop_
  _atom_site_label
  _atom_site_occupancy
  _atom_site_fract_x
  _atom_site_fract_y
  _atom_site_fract_z
  _atom_site_thermal_displace_type
  _atom_site_B_iso_or_equiv
  _atom_site_type_symbol
  C1       1.0000 0.08560  0.46060  0.96500  Biso   1.000  C
  C2       1.0000 0.02000  0.42800  0.14500  Biso   1.000  C
  C3       1.0000 0.53940  0.62500  0.96500  Biso   1.000  C
  C4       1.0000 0.57200  0.59200  0.14500  Biso   1.000  C
  C5       1.0000 0.37500  0.91440  0.96500  Biso   1.000  C
  C6       1.0000 0.40800  0.98000  0.14500  Biso   1.000  C
  C7       1.0000 0.46060  0.08560  0.03500  Biso   1.000  C
  C8       1.0000 0.42800  0.02000  0.85500  Biso   1.000  C
  C9       1.0000 0.62500  0.53940  0.03500  Biso   1.000  C
  C10      1.0000 0.59200  0.57200  0.85500  Biso   1.000  C
  C11      1.0000 0.91440  0.37500  0.03500  Biso   1.000  C
  C12      1.0000 0.98000  0.40800  0.85500  Biso   1.000  C
  C13      1.0000 0.91440  0.53940  0.03500  Biso   1.000  C
  C14      1.0000 0.98000  0.57200  0.85500  Biso   1.000  C
  C15      1.0000 0.46060  0.37500  0.03500  Biso   1.000  C
  C16      1.0000 0.42800  0.40800  0.85500  Biso   1.000  C
  C17      1.0000 0.62500  0.08560  0.03500  Biso   1.000  C
  C18      1.0000 0.59200  0.02000  0.85500  Biso   1.000  C
  C19      1.0000 0.53940  0.91440  0.96500  Biso   1.000  C
  C20      1.0000 0.57200  0.98000  0.14500  Biso   1.000  C
  C21      1.0000 0.37500  0.46060  0.96500  Biso   1.000  C
  C22      1.0000 0.40800  0.42800  0.14500  Biso   1.000  C
  C23      1.0000 0.08560  0.62500  0.96500  Biso   1.000  C
  C24      1.0000 0.02000  0.59200  0.14500  Biso   1.000  C
  C25      1.0000 0.10800  0.55400  0.88700  Biso   1.000  C
  C26      1.0000 0.99500  0.49750  0.76500  Biso   1.000  C
  N1       1.0000 0.08570  0.54285  0.09570  Biso   1.000  N
  Cu1      1.0000 0.22046  0.61023  0.24720  Biso   1.000  Cu
  C27      1.0000 0.44600  0.55400  0.88700  Biso   1.000  C
  C28      1.0000 0.50250  0.49750  0.76500  Biso   1.000  C
  N2       1.0000 0.45715  0.54285  0.09570  Biso   1.000  N
  Cu2      1.0000 0.38977  0.61023  0.24720  Biso   1.000  Cu
  C29      1.0000 0.44600  0.89200  0.88700  Biso   1.000  C
  C30      1.0000 0.50250  0.00500  0.76500  Biso   1.000  C
  N3       1.0000 0.45715  0.91430  0.09570  Biso   1.000  N
  Cu3      1.0000 0.38977  0.77954  0.24720  Biso   1.000  Cu
  C31      1.0000 0.55400  0.10800  0.11300  Biso   1.000  C
  C32      1.0000 0.49750  0.99500  0.23500  Biso   1.000  C
  N4       1.0000 0.54285  0.08570  0.90430  Biso   1.000  N
  Cu4      1.0000 0.61023  0.22046  0.75280  Biso   1.000  Cu
  C33      1.0000 0.55400  0.44600  0.11300  Biso   1.000  C
  C34      1.0000 0.49750  0.50250  0.23500  Biso   1.000  C
  N5       1.0000 0.54285  0.45715  0.90430  Biso   1.000  N
  Cu5      1.0000 0.61023  0.38977  0.75280  Biso   1.000  Cu
  C35      1.0000 0.89200  0.44600  0.11300  Biso   1.000  C
  C36      1.0000 0.00500  0.50250  0.23500  Biso   1.000  C
  N6       1.0000 0.91430  0.45715  0.90430  Biso   1.000  N
  Cu6      1.0000 0.77954  0.38977  0.75280  Biso   1.000  Cu
  C37      1.0000 0.33333  0.66667  0.86000  Biso   1.000  C
  N7       1.0000 0.33333  0.66667  0.01800  Biso   1.000  N
  Cu7      1.0000 0.33333  0.66667  0.58060  Biso   1.000  Cu
  C38      1.0000 0.66667  0.33333  0.14000  Biso   1.000  C
  N8       1.0000 0.66667  0.33333  0.98200  Biso   1.000  N
  Cu8      1.0000 0.66667  0.33333  0.41940  Biso   1.000  Cu
  I1       1.0000 0.23508  0.47017  0.46309  Biso   1.000  I
  I2       1.0000 0.52983  0.76491  0.46309  Biso   1.000  I
  I3       1.0000 0.23509  0.76492  0.46309  Biso   1.000  I
  I4       1.0000 0.47017  0.23508  0.53691  Biso   1.000  I
  I5       1.0000 0.76491  0.52983  0.53691  Biso   1.000  I
  I6       1.0000 0.76492  0.23509  0.53691  Biso   1.000  I
