data_UNABIV_charged
_audit_creation_date              2014-07-02
_audit_creation_method            'Materials Studio'
_symmetry_space_group_name_H-M    'P1'
_symmetry_Int_Tables_number       1
_symmetry_cell_setting            triclinic
loop_
_symmetry_equiv_pos_as_xyz
  x,y,z
_cell_length_a                    13.7619
_cell_length_b                    15.3949
_cell_length_c                    17.3500
_cell_angle_alpha                 98.3477
_cell_angle_beta                  90.0000
_cell_angle_gamma                 116.5490
loop_
_atom_site_label
_atom_site_type_symbol
_atom_site_fract_x
_atom_site_fract_y
_atom_site_fract_z
_atom_site_U_iso_or_equiv
_atom_site_adp_type
_atom_site_occupancy
Cu1    Cu    0.47622   0.17918   0.73428   0.01267  Uiso   1.00
Cu2    Cu    0.47005   0.37798   0.62212   0.01267  Uiso   1.00
Cu3    Cu    0.72357   0.42140   0.73575   0.01267  Uiso   1.00
Cu4    Cu    0.29704   0.82082   0.76572   0.01267  Uiso   1.00
Cu5    Cu    0.09207   0.62202   0.87788   0.01267  Uiso   1.00
Cu6    Cu    0.30217   0.57860   0.76425   0.01267  Uiso   1.00
Cu7    Cu    0.52378   0.82082   0.26572   0.01267  Uiso   1.00
Cu8    Cu    0.52995   0.62202   0.37788   0.01267  Uiso   1.00
Cu9    Cu    0.27643   0.57860   0.26425   0.01267  Uiso   1.00
Cu10   Cu    0.70296   0.17918   0.23428   0.01267  Uiso   1.00
Cu11   Cu    0.90793   0.37798   0.12212   0.01267  Uiso   1.00
Cu12   Cu    0.69783   0.42140   0.23575   0.01267  Uiso   1.00
Mo1    Mo    0.59005   0.27954   0.62166   0.01267  Uiso   1.00
Mo2    Mo    0.31051   0.72046   0.87834   0.01267  Uiso   1.00
Mo3    Mo    0.40995   0.72046   0.37834   0.01267  Uiso   1.00
Mo4    Mo    0.68949   0.27954   0.12166   0.01267  Uiso   1.00
H1     H     0.26160   0.34460   0.53720   0.01267  Uiso   1.00
H2     H     0.17270   0.29420   0.41570   0.01267  Uiso   1.00
H3     H     0.44920   0.31640   0.32580   0.01267  Uiso   1.00
H4     H     0.53140   0.37140   0.44880   0.01267  Uiso   1.00
H5     H     0.14010   0.32280   0.29470   0.01267  Uiso   1.00
H6     H     0.05190   0.26700   0.17110   0.01267  Uiso   1.00
H7     H     0.23380   0.14120   0.10680   0.01267  Uiso   1.00
H8     H     0.32510   0.19060   0.22780   0.01267  Uiso   1.00
H9     H     0.39130   0.32880   0.77890   0.01267  Uiso   1.00
H10    H     0.36240   0.41820   0.88360   0.01267  Uiso   1.00
H11    H     0.42920   0.26140   0.02080   0.01267  Uiso   1.00
H12    H     0.46280   0.17940   0.91050   0.01267  Uiso   1.00
H13    H     0.39960   0.45060   0.22400   0.01267  Uiso   1.00
H14    H     0.42770   0.35820   0.11980   0.01267  Uiso   1.00
H15    H     0.31530   0.48500   0.98050   0.01267  Uiso   1.00
H16    H     0.29560   0.57520   0.09080   0.01267  Uiso   1.00
H17    H     0.91700   0.65540   0.96280   0.01267  Uiso   1.00
H18    H     0.87850   0.70580   0.08430   0.01267  Uiso   1.00
H19    H     0.13280   0.68360   0.17420   0.01267  Uiso   1.00
H20    H     0.16000   0.62860   0.05120   0.01267  Uiso   1.00
H21    H     0.81730   0.67720   0.20530   0.01267  Uiso   1.00
H22    H     0.78490   0.73300   0.32890   0.01267  Uiso   1.00
H23    H     0.09260   0.85880   0.39320   0.01267  Uiso   1.00
H24    H     0.13450   0.80940   0.27220   0.01267  Uiso   1.00
H25    H     0.06250   0.67120   0.72110   0.01267  Uiso   1.00
H26    H     0.94420   0.58180   0.61640   0.01267  Uiso   1.00
H27    H     0.16780   0.73860   0.47920   0.01267  Uiso   1.00
H28    H     0.28340   0.82060   0.58950   0.01267  Uiso   1.00
H29    H     0.94900   0.54940   0.27600   0.01267  Uiso   1.00
H30    H     0.06950   0.64180   0.38020   0.01267  Uiso   1.00
H31    H     0.83030   0.51500   0.51950   0.01267  Uiso   1.00
H32    H     0.72040   0.42480   0.40920   0.01267  Uiso   1.00
H33    H     0.73840   0.65540   0.46280   0.01267  Uiso   1.00
H34    H     0.82730   0.70580   0.58430   0.01267  Uiso   1.00
H35    H     0.55080   0.68360   0.67420   0.01267  Uiso   1.00
H36    H     0.46860   0.62860   0.55120   0.01267  Uiso   1.00
H37    H     0.85990   0.67720   0.70530   0.01267  Uiso   1.00
H38    H     0.94810   0.73300   0.82890   0.01267  Uiso   1.00
H39    H     0.76620   0.85880   0.89320   0.01267  Uiso   1.00
H40    H     0.67490   0.80940   0.77220   0.01267  Uiso   1.00
H41    H     0.60870   0.67120   0.22110   0.01267  Uiso   1.00
H42    H     0.63760   0.58180   0.11640   0.01267  Uiso   1.00
H43    H     0.57080   0.73860   0.97920   0.01267  Uiso   1.00
H44    H     0.53720   0.82060   0.08950   0.01267  Uiso   1.00
H45    H     0.60040   0.54940   0.77600   0.01267  Uiso   1.00
H46    H     0.57230   0.64180   0.88020   0.01267  Uiso   1.00
H47    H     0.68470   0.51500   0.01950   0.01267  Uiso   1.00
H48    H     0.70440   0.42480   0.90920   0.01267  Uiso   1.00
H49    H     0.08300   0.34460   0.03720   0.01267  Uiso   1.00
H50    H     0.12150   0.29420   0.91570   0.01267  Uiso   1.00
H51    H     0.86720   0.31640   0.82580   0.01267  Uiso   1.00
H52    H     0.84000   0.37140   0.94880   0.01267  Uiso   1.00
H53    H     0.18270   0.32280   0.79470   0.01267  Uiso   1.00
H54    H     0.21510   0.26700   0.67110   0.01267  Uiso   1.00
H55    H     0.90740   0.14120   0.60680   0.01267  Uiso   1.00
H56    H     0.86550   0.19060   0.72780   0.01267  Uiso   1.00
H57    H     0.93750   0.32880   0.27890   0.01267  Uiso   1.00
H58    H     0.05580   0.41820   0.38360   0.01267  Uiso   1.00
H59    H     0.83220   0.26140   0.52080   0.01267  Uiso   1.00
H60    H     0.71660   0.17940   0.41050   0.01267  Uiso   1.00
H61    H     0.05100   0.45060   0.72400   0.01267  Uiso   1.00
H62    H     0.93050   0.35820   0.61980   0.01267  Uiso   1.00
H63    H     0.16970   0.48500   0.48050   0.01267  Uiso   1.00
H64    H     0.27960   0.57520   0.59080   0.01267  Uiso   1.00
C1     C     0.30020   0.33940   0.49420   0.01267  Uiso   1.00
C2     C     0.24580   0.30860   0.42100   0.01267  Uiso   1.00
C3     C     0.30020   0.29860   0.35460   0.01267  Uiso   1.00
C4     C     0.40890   0.32220   0.36750   0.01267  Uiso   1.00
C5     C     0.45770   0.35440   0.44240   0.01267  Uiso   1.00
C6     C     0.24330   0.26360   0.27630   0.01267  Uiso   1.00
C7     C     0.16070   0.28540   0.25760   0.01267  Uiso   1.00
C8     C     0.10740   0.25120   0.18270   0.01267  Uiso   1.00
C9     C     0.21350   0.17740   0.14520   0.01267  Uiso   1.00
C10    C     0.26990   0.20760   0.21810   0.01267  Uiso   1.00
C11    C     0.40130   0.31600   0.82830   0.01267  Uiso   1.00
C12    C     0.38210   0.36940   0.89110   0.01267  Uiso   1.00
C13    C     0.39170   0.35100   0.96600   0.01267  Uiso   1.00
C14    C     0.42220   0.27760   0.97220   0.01267  Uiso   1.00
C15    C     0.44210   0.22820   0.90510   0.01267  Uiso   1.00
C16    C     0.38210   0.45720   0.17410   0.01267  Uiso   1.00
C17    C     0.39970   0.40140   0.11180   0.01267  Uiso   1.00
C18    C     0.33380   0.47660   0.02950   0.01267  Uiso   1.00
C19    C     0.32100   0.52960   0.09650   0.01267  Uiso   1.00
C20    C     0.37510   0.41040   0.03680   0.01267  Uiso   1.00
C21    C     0.40690   0.03580   0.74300   0.01267  Uiso   1.00
C22    C     0.40710   0.45080   0.68480   0.01267  Uiso   1.00
C23    C     0.96080   0.66060   0.00580   0.01267  Uiso   1.00
C24    C     0.93720   0.69140   0.07900   0.01267  Uiso   1.00
C25    C     0.00160   0.70140   0.14540   0.01267  Uiso   1.00
C26    C     0.08670   0.67780   0.13250   0.01267  Uiso   1.00
C27    C     0.10330   0.64560   0.05760   0.01267  Uiso   1.00
C28    C     0.97970   0.73640   0.22370   0.01267  Uiso   1.00
C29    C     0.87530   0.71460   0.24240   0.01267  Uiso   1.00
C30    C     0.85620   0.74880   0.31730   0.01267  Uiso   1.00
C31    C     0.03610   0.82260   0.35480   0.01267  Uiso   1.00
C32    C     0.06230   0.79240   0.28190   0.01267  Uiso   1.00
C33    C     0.08530   0.68400   0.67170   0.01267  Uiso   1.00
C34    C     0.01270   0.63060   0.60890   0.01267  Uiso   1.00
C35    C     0.04070   0.64900   0.53400   0.01267  Uiso   1.00
C36    C     0.14460   0.72240   0.52780   0.01267  Uiso   1.00
C37    C     0.21390   0.77180   0.59490   0.01267  Uiso   1.00
C38    C     0.92490   0.54280   0.32590   0.01267  Uiso   1.00
C39    C     0.99830   0.59860   0.38820   0.01267  Uiso   1.00
C40    C     0.85720   0.52340   0.47050   0.01267  Uiso   1.00
C41    C     0.79140   0.47040   0.40350   0.01267  Uiso   1.00
C42    C     0.96470   0.58960   0.46320   0.01267  Uiso   1.00
C43    C     0.37110   0.96420   0.75700   0.01267  Uiso   1.00
C44    C     0.95630   0.54920   0.81520   0.01267  Uiso   1.00
C45    C     0.69980   0.66060   0.50580   0.01267  Uiso   1.00
C46    C     0.75420   0.69140   0.57900   0.01267  Uiso   1.00
C47    C     0.69980   0.70140   0.64540   0.01267  Uiso   1.00
C48    C     0.59110   0.67780   0.63250   0.01267  Uiso   1.00
C49    C     0.54230   0.64560   0.55760   0.01267  Uiso   1.00
C50    C     0.75670   0.73640   0.72370   0.01267  Uiso   1.00
C51    C     0.83930   0.71460   0.74240   0.01267  Uiso   1.00
C52    C     0.89260   0.74880   0.81730   0.01267  Uiso   1.00
C53    C     0.78650   0.82260   0.85480   0.01267  Uiso   1.00
C54    C     0.73010   0.79240   0.78190   0.01267  Uiso   1.00
C55    C     0.59870   0.68400   0.17170   0.01267  Uiso   1.00
C56    C     0.61790   0.63060   0.10890   0.01267  Uiso   1.00
C57    C     0.60830   0.64900   0.03400   0.01267  Uiso   1.00
C58    C     0.57780   0.72240   0.02780   0.01267  Uiso   1.00
C59    C     0.55790   0.77180   0.09490   0.01267  Uiso   1.00
C60    C     0.61790   0.54280   0.82590   0.01267  Uiso   1.00
C61    C     0.60030   0.59860   0.88820   0.01267  Uiso   1.00
C62    C     0.66620   0.52340   0.97050   0.01267  Uiso   1.00
C63    C     0.67900   0.47040   0.90350   0.01267  Uiso   1.00
C64    C     0.62490   0.58960   0.96320   0.01267  Uiso   1.00
C65    C     0.59310   0.96420   0.25700   0.01267  Uiso   1.00
C66    C     0.59290   0.54920   0.31520   0.01267  Uiso   1.00
C67    C     0.03920   0.33940   0.99420   0.01267  Uiso   1.00
C68    C     0.06280   0.30860   0.92100   0.01267  Uiso   1.00
C69    C     0.99840   0.29860   0.85460   0.01267  Uiso   1.00
C70    C     0.91330   0.32220   0.86750   0.01267  Uiso   1.00
C71    C     0.89670   0.35440   0.94240   0.01267  Uiso   1.00
C72    C     0.02030   0.26360   0.77630   0.01267  Uiso   1.00
C73    C     0.12470   0.28540   0.75760   0.01267  Uiso   1.00
C74    C     0.14380   0.25120   0.68270   0.01267  Uiso   1.00
C75    C     0.96390   0.17740   0.64520   0.01267  Uiso   1.00
C76    C     0.93770   0.20760   0.71810   0.01267  Uiso   1.00
C77    C     0.91470   0.31600   0.32830   0.01267  Uiso   1.00
C78    C     0.98730   0.36940   0.39110   0.01267  Uiso   1.00
C79    C     0.95930   0.35100   0.46600   0.01267  Uiso   1.00
C80    C     0.85540   0.27760   0.47220   0.01267  Uiso   1.00
C81    C     0.78610   0.22820   0.40510   0.01267  Uiso   1.00
C82    C     0.07510   0.45720   0.67410   0.01267  Uiso   1.00
C83    C     0.00170   0.40140   0.61180   0.01267  Uiso   1.00
C84    C     0.14280   0.47660   0.52950   0.01267  Uiso   1.00
C85    C     0.20860   0.52960   0.59650   0.01267  Uiso   1.00
C86    C     0.03530   0.41040   0.53680   0.01267  Uiso   1.00
C87    C     0.62890   0.03580   0.24300   0.01267  Uiso   1.00
C88    C     0.04370   0.45080   0.18480   0.01267  Uiso   1.00
S1     S     0.65578   0.44414   0.62477   0.01267  Uiso   1.00
S2     S     0.40740   0.21236   0.62823   0.01267  Uiso   1.00
S3     S     0.66194   0.25538   0.72922   0.01267  Uiso   1.00
S4     S     0.21164   0.55586   0.87523   0.01267  Uiso   1.00
S5     S     0.19504   0.78764   0.87177   0.01267  Uiso   1.00
S6     S     0.40656   0.74462   0.77078   0.01267  Uiso   1.00
S7     S     0.34422   0.55586   0.37523   0.01267  Uiso   1.00
S8     S     0.59260   0.78764   0.37177   0.01267  Uiso   1.00
S9     S     0.33806   0.74462   0.27078   0.01267  Uiso   1.00
S10    S     0.78836   0.44414   0.12477   0.01267  Uiso   1.00
S11    S     0.80496   0.21236   0.12823   0.01267  Uiso   1.00
S12    S     0.59344   0.25538   0.22922   0.01267  Uiso   1.00
N1     N     0.34190   0.52020   0.16810   0.01267  Uiso   1.00
N2     N     0.43310   0.24720   0.83270   0.01267  Uiso   1.00
N3     N     0.40640   0.36260   0.50660   0.01267  Uiso   1.00
N4     N     0.13340   0.19660   0.12720   0.01267  Uiso   1.00
N5     N     0.37140   0.49800   0.72140   0.01267  Uiso   1.00
N6     N     0.82170   0.47980   0.33190   0.01267  Uiso   1.00
N7     N     0.18590   0.75280   0.66730   0.01267  Uiso   1.00
N8     N     0.04380   0.63740   0.99340   0.01267  Uiso   1.00
N9     N     0.93680   0.80340   0.37280   0.01267  Uiso   1.00
N10    N     0.87340   0.50200   0.77860   0.01267  Uiso   1.00
N11    N     0.65810   0.47980   0.83190   0.01267  Uiso   1.00
N12    N     0.56690   0.75280   0.16730   0.01267  Uiso   1.00
N13    N     0.59360   0.63740   0.49340   0.01267  Uiso   1.00
N14    N     0.86660   0.80340   0.87280   0.01267  Uiso   1.00
N15    N     0.62860   0.50200   0.27860   0.01267  Uiso   1.00
N16    N     0.17830   0.52020   0.66810   0.01267  Uiso   1.00
N17    N     0.81410   0.24720   0.33270   0.01267  Uiso   1.00
N18    N     0.95620   0.36260   0.00660   0.01267  Uiso   1.00
N19    N     0.06320   0.19660   0.62720   0.01267  Uiso   1.00
N20    N     0.12660   0.49800   0.22140   0.01267  Uiso   1.00
O1     O     0.62330   0.22760   0.53830   0.01267  Uiso   1.00
O2     O     0.39570   0.77240   0.96170   0.01267  Uiso   1.00
O3     O     0.37670   0.77240   0.46170   0.01267  Uiso   1.00
O4     O     0.60430   0.22760   0.03830   0.01267  Uiso   1.00
