data_image0
_cell_length_a       13.5715
_cell_length_b       13.5715
_cell_length_c       8.7125
_cell_angle_alpha    90
_cell_angle_beta     90
_cell_angle_gamma    120

_symmetry_space_group_name_H-M    "P 1"
_symmetry_int_tables_number       1

loop_
  _symmetry_equiv_pos_as_xyz
  'x, y, z'

loop_
  _atom_site_label
  _atom_site_occupancy
  _atom_site_fract_x
  _atom_site_fract_y
  _atom_site_fract_z
  _atom_site_thermal_displace_type
  _atom_site_B_iso_or_equiv
  _atom_site_type_symbol
  Mo1      1.0000 0.66667  0.33333  0.34380  Biso   1.000  Mo
  Mo2      1.0000 0.33333  0.66667  0.84380  Biso   1.000  Mo
  Cu1      1.0000 0.56130  0.43871  0.47814  Biso   1.000  Cu
  N1       1.0000 0.51240  0.48760  0.27140  Biso   1.000  N
  C1       1.0000 0.48600  0.51400  0.15980  Biso   1.000  C
  Cu2      1.0000 0.56130  0.12259  0.47814  Biso   1.000  Cu
  N2       1.0000 0.51240  0.02480  0.27140  Biso   1.000  N
  C2       1.0000 0.48600  0.97200  0.15980  Biso   1.000  C
  Cu3      1.0000 0.87741  0.43871  0.47814  Biso   1.000  Cu
  N3       1.0000 0.97520  0.48760  0.27140  Biso   1.000  N
  C3       1.0000 0.02800  0.51400  0.15980  Biso   1.000  C
  Cu4      1.0000 0.43870  0.56130  0.97814  Biso   1.000  Cu
  N4       1.0000 0.48760  0.51240  0.77140  Biso   1.000  N
  C4       1.0000 0.51400  0.48600  0.65980  Biso   1.000  C
  Cu5      1.0000 0.43870  0.87741  0.97814  Biso   1.000  Cu
  N5       1.0000 0.48760  0.97520  0.77140  Biso   1.000  N
  C5       1.0000 0.51400  0.02800  0.65980  Biso   1.000  C
  Cu6      1.0000 0.12259  0.56130  0.97814  Biso   1.000  Cu
  N6       1.0000 0.02480  0.51240  0.77140  Biso   1.000  N
  C6       1.0000 0.97200  0.48600  0.65980  Biso   1.000  C
  S1       1.0000 0.75628  0.51256  0.43682  Biso   1.000  S
  S2       1.0000 0.48744  0.24372  0.43682  Biso   1.000  S
  S3       1.0000 0.75628  0.24372  0.43682  Biso   1.000  S
  S4       1.0000 0.24372  0.48744  0.93682  Biso   1.000  S
  S5       1.0000 0.51256  0.75628  0.93682  Biso   1.000  S
  S6       1.0000 0.24372  0.75628  0.93682  Biso   1.000  S
  H1       1.0000 0.13400  0.38390  0.63260  Biso   1.000  H
  H2       1.0000 0.31300  0.50890  0.42110  Biso   1.000  H
  C7       1.0000 0.23470  0.28940  0.38300  Biso   1.000  C
  H3       1.0000 0.19160  0.21070  0.41600  Biso   1.000  H
  H4       1.0000 0.24270  0.29200  0.27190  Biso   1.000  H
  H5       1.0000 0.30940  0.32580  0.42990  Biso   1.000  H
  H6       1.0000 0.24990  0.38390  0.63260  Biso   1.000  H
  H7       1.0000 0.19590  0.50890  0.42110  Biso   1.000  H
  C8       1.0000 0.05470  0.28940  0.38300  Biso   1.000  C
  H8       1.0000 0.01910  0.21070  0.41600  Biso   1.000  H
  H9       1.0000 0.04930  0.29200  0.27190  Biso   1.000  H
  H10      1.0000 0.01640  0.32580  0.42990  Biso   1.000  H
  N7       1.0000 0.17455  0.34910  0.42820  Biso   1.000  N
  C9       1.0000 0.17250  0.34500  0.59370  Biso   1.000  C
  H11      1.0000 0.13315  0.26630  0.62730  Biso   1.000  H
  C10      1.0000 0.23600  0.47200  0.38130  Biso   1.000  C
  H12      1.0000 0.23865  0.47730  0.27020  Biso   1.000  H
  H13      1.0000 0.61610  0.75010  0.63260  Biso   1.000  H
  H14      1.0000 0.49110  0.80410  0.42110  Biso   1.000  H
  C11      1.0000 0.71060  0.94530  0.38300  Biso   1.000  C
  H15      1.0000 0.78930  0.98090  0.41600  Biso   1.000  H
  H16      1.0000 0.70800  0.95070  0.27190  Biso   1.000  H
  H17      1.0000 0.67420  0.98360  0.42990  Biso   1.000  H
  H18      1.0000 0.61610  0.86600  0.63260  Biso   1.000  H
  H19      1.0000 0.49110  0.68700  0.42110  Biso   1.000  H
  C12      1.0000 0.71060  0.76530  0.38300  Biso   1.000  C
  H20      1.0000 0.78930  0.80840  0.41600  Biso   1.000  H
  H21      1.0000 0.70800  0.75730  0.27190  Biso   1.000  H
  H22      1.0000 0.67420  0.69060  0.42990  Biso   1.000  H
  N8       1.0000 0.65090  0.82545  0.42820  Biso   1.000  N
  C13      1.0000 0.65500  0.82750  0.59370  Biso   1.000  C
  H23      1.0000 0.73370  0.86685  0.62730  Biso   1.000  H
  C14      1.0000 0.52800  0.76400  0.38130  Biso   1.000  C
  H24      1.0000 0.52270  0.76135  0.27020  Biso   1.000  H
  H25      1.0000 0.24990  0.86600  0.63260  Biso   1.000  H
  H26      1.0000 0.19590  0.68700  0.42110  Biso   1.000  H
  C15      1.0000 0.05470  0.76530  0.38300  Biso   1.000  C
  H27      1.0000 0.01910  0.80840  0.41600  Biso   1.000  H
  H28      1.0000 0.04930  0.75730  0.27190  Biso   1.000  H
  H29      1.0000 0.01640  0.69060  0.42990  Biso   1.000  H
  H30      1.0000 0.13400  0.75010  0.63260  Biso   1.000  H
  H31      1.0000 0.31300  0.80410  0.42110  Biso   1.000  H
  C16      1.0000 0.23470  0.94530  0.38300  Biso   1.000  C
  H32      1.0000 0.19160  0.98090  0.41600  Biso   1.000  H
  H33      1.0000 0.24270  0.95070  0.27190  Biso   1.000  H
  H34      1.0000 0.30940  0.98360  0.42990  Biso   1.000  H
  N9       1.0000 0.17455  0.82545  0.42820  Biso   1.000  N
  C17      1.0000 0.17250  0.82750  0.59370  Biso   1.000  C
  H35      1.0000 0.13315  0.86685  0.62730  Biso   1.000  H
  C18      1.0000 0.23600  0.76400  0.38130  Biso   1.000  C
  H36      1.0000 0.23865  0.76135  0.27020  Biso   1.000  H
  H37      1.0000 0.86600  0.61610  0.13260  Biso   1.000  H
  H38      1.0000 0.68700  0.49110  0.92110  Biso   1.000  H
  C19      1.0000 0.76530  0.71060  0.88300  Biso   1.000  C
  H39      1.0000 0.80840  0.78930  0.91600  Biso   1.000  H
  H40      1.0000 0.75730  0.70800  0.77190  Biso   1.000  H
  H41      1.0000 0.69060  0.67420  0.92990  Biso   1.000  H
  H42      1.0000 0.75010  0.61610  0.13260  Biso   1.000  H
  H43      1.0000 0.80410  0.49110  0.92110  Biso   1.000  H
  C20      1.0000 0.94530  0.71060  0.88300  Biso   1.000  C
  H44      1.0000 0.98090  0.78930  0.91600  Biso   1.000  H
  H45      1.0000 0.95070  0.70800  0.77190  Biso   1.000  H
  H46      1.0000 0.98360  0.67420  0.92990  Biso   1.000  H
  N10      1.0000 0.82545  0.65090  0.92820  Biso   1.000  N
  C21      1.0000 0.82750  0.65500  0.09370  Biso   1.000  C
  H47      1.0000 0.86685  0.73370  0.12730  Biso   1.000  H
  C22      1.0000 0.76400  0.52800  0.88130  Biso   1.000  C
  H48      1.0000 0.76135  0.52270  0.77020  Biso   1.000  H
  H49      1.0000 0.38390  0.24990  0.13260  Biso   1.000  H
  H50      1.0000 0.50890  0.19590  0.92110  Biso   1.000  H
  C23      1.0000 0.28940  0.05470  0.88300  Biso   1.000  C
  H51      1.0000 0.21070  0.01910  0.91600  Biso   1.000  H
  H52      1.0000 0.29200  0.04930  0.77190  Biso   1.000  H
  H53      1.0000 0.32580  0.01640  0.92990  Biso   1.000  H
  H54      1.0000 0.38390  0.13400  0.13260  Biso   1.000  H
  H55      1.0000 0.50890  0.31300  0.92110  Biso   1.000  H
  C24      1.0000 0.28940  0.23470  0.88300  Biso   1.000  C
  H56      1.0000 0.21070  0.19160  0.91600  Biso   1.000  H
  H57      1.0000 0.29200  0.24270  0.77190  Biso   1.000  H
  H58      1.0000 0.32580  0.30940  0.92990  Biso   1.000  H
  N11      1.0000 0.34910  0.17455  0.92820  Biso   1.000  N
  C25      1.0000 0.34500  0.17250  0.09370  Biso   1.000  C
  H59      1.0000 0.26630  0.13315  0.12730  Biso   1.000  H
  C26      1.0000 0.47200  0.23600  0.88130  Biso   1.000  C
  H60      1.0000 0.47730  0.23865  0.77020  Biso   1.000  H
  H61      1.0000 0.75010  0.13400  0.13260  Biso   1.000  H
  H62      1.0000 0.80410  0.31300  0.92110  Biso   1.000  H
  C27      1.0000 0.94530  0.23470  0.88300  Biso   1.000  C
  H63      1.0000 0.98090  0.19160  0.91600  Biso   1.000  H
  H64      1.0000 0.95070  0.24270  0.77190  Biso   1.000  H
  H65      1.0000 0.98360  0.30940  0.92990  Biso   1.000  H
  H66      1.0000 0.86600  0.24990  0.13260  Biso   1.000  H
  H67      1.0000 0.68700  0.19590  0.92110  Biso   1.000  H
  C28      1.0000 0.76530  0.05470  0.88300  Biso   1.000  C
  H68      1.0000 0.80840  0.01910  0.91600  Biso   1.000  H
  H69      1.0000 0.75730  0.04930  0.77190  Biso   1.000  H
  H70      1.0000 0.69060  0.01640  0.92990  Biso   1.000  H
  N12      1.0000 0.82545  0.17455  0.92820  Biso   1.000  N
  C29      1.0000 0.82750  0.17250  0.09370  Biso   1.000  C
  H71      1.0000 0.86685  0.13315  0.12730  Biso   1.000  H
  C30      1.0000 0.76400  0.23600  0.88130  Biso   1.000  C
  H72      1.0000 0.76135  0.23865  0.77020  Biso   1.000  H
