data_image0
_cell_length_a       9.1699
_cell_length_b       15.6055
_cell_length_c       13.5026
_cell_angle_alpha    90
_cell_angle_beta     107.162
_cell_angle_gamma    90

_symmetry_space_group_name_H-M    "P 1"
_symmetry_int_tables_number       1

loop_
  _symmetry_equiv_pos_as_xyz
  'x, y, z'

loop_
  _atom_site_label
  _atom_site_occupancy
  _atom_site_fract_x
  _atom_site_fract_y
  _atom_site_fract_z
  _atom_site_thermal_displace_type
  _atom_site_B_iso_or_equiv
  _atom_site_type_symbol
  Zn1      1.0000 0.61984  0.44900  0.75077  Biso   1.000  Zn
  Zn2      1.0000 0.87283  0.25382  0.74873  Biso   1.000  Zn
  O1       1.0000 0.96950  0.35912  0.81819  Biso   1.000  O
  O2       1.0000 0.80844  0.44740  0.86333  Biso   1.000  O
  C1       1.0000 0.06920  0.48540  0.90740  Biso   1.000  C
  C2       1.0000 0.05950  0.54530  0.98090  Biso   1.000  C
  H1       1.0000 0.97170  0.54940  0.00170  Biso   1.000  H
  C3       1.0000 0.18330  0.59960  0.02350  Biso   1.000  C
  C4       1.0000 0.31340  0.59360  0.99070  Biso   1.000  C
  H2       1.0000 0.39460  0.63070  0.01820  Biso   1.000  H
  C5       1.0000 0.32410  0.53340  0.91780  Biso   1.000  C
  C6       1.0000 0.20130  0.47860  0.87680  Biso   1.000  C
  H3       1.0000 0.20750  0.43710  0.82870  Biso   1.000  H
  C7       1.0000 0.93880  0.42587  0.85870  Biso   1.000  C
  O3       1.0000 0.05830  0.66637  0.13510  Biso   1.000  O
  C8       1.0000 0.17720  0.66350  0.10510  Biso   1.000  C
  O4       1.0000 0.28840  0.71132  0.14360  Biso   1.000  O
  O5       1.0000 0.56810  0.57940  0.91030  Biso   1.000  O
  C9       1.0000 0.46450  0.52640  0.88210  Biso   1.000  C
  O6       1.0000 0.46320  0.46345  0.82116  Biso   1.000  O
  O7       1.0000 0.52280  0.34390  0.68143  Biso   1.000  O
  O8       1.0000 0.68321  0.25450  0.63565  Biso   1.000  O
  C10      1.0000 0.42060  0.22090  0.58800  Biso   1.000  C
  C11      1.0000 0.43010  0.15920  0.51580  Biso   1.000  C
  H4       1.0000 0.51820  0.15480  0.49540  Biso   1.000  H
  C12      1.0000 0.30770  0.10420  0.47400  Biso   1.000  C
  C13      1.0000 0.17690  0.10970  0.50630  Biso   1.000  C
  H5       1.0000 0.09670  0.07160  0.48020  Biso   1.000  H
  C14      1.0000 0.16600  0.17190  0.57750  Biso   1.000  C
  C15      1.0000 0.28840  0.22730  0.61750  Biso   1.000  C
  H6       1.0000 0.28130  0.26930  0.66480  Biso   1.000  H
  C16      1.0000 0.55330  0.27725  0.63880  Biso   1.000  C
  O9       1.0000 0.43440  0.03677  0.36263  Biso   1.000  O
  C17      1.0000 0.31430  0.03810  0.39470  Biso   1.000  C
  O10      1.0000 0.20650  0.98908  0.35830  Biso   1.000  O
  O11      1.0000 0.92410  0.12458  0.58910  Biso   1.000  O
  C18      1.0000 0.02700  0.17760  0.61520  Biso   1.000  C
  O12      1.0000 0.02750  0.24032  0.67582  Biso   1.000  O
  Zn3      1.0000 0.38016  0.94900  0.24923  Biso   1.000  Zn
  Zn4      1.0000 0.12717  0.75382  0.25127  Biso   1.000  Zn
  O13      1.0000 0.03050  0.85912  0.18181  Biso   1.000  O
  O14      1.0000 0.19156  0.94740  0.13667  Biso   1.000  O
  C19      1.0000 0.93080  0.98540  0.09260  Biso   1.000  C
  C20      1.0000 0.94050  0.04530  0.01910  Biso   1.000  C
  H7       1.0000 0.02830  0.04940  0.99830  Biso   1.000  H
  C21      1.0000 0.81670  0.09960  0.97650  Biso   1.000  C
  C22      1.0000 0.68660  0.09360  0.00930  Biso   1.000  C
  H8       1.0000 0.60540  0.13070  0.98180  Biso   1.000  H
  C23      1.0000 0.67590  0.03340  0.08220  Biso   1.000  C
  C24      1.0000 0.79870  0.97860  0.12320  Biso   1.000  C
  H9       1.0000 0.79250  0.93710  0.17130  Biso   1.000  H
  C25      1.0000 0.06120  0.92587  0.14130  Biso   1.000  C
  O15      1.0000 0.94170  0.16637  0.86490  Biso   1.000  O
  C26      1.0000 0.82280  0.16350  0.89490  Biso   1.000  C
  O16      1.0000 0.71160  0.21132  0.85640  Biso   1.000  O
  O17      1.0000 0.43190  0.07940  0.08970  Biso   1.000  O
  C27      1.0000 0.53550  0.02640  0.11790  Biso   1.000  C
  O18      1.0000 0.53680  0.96345  0.17884  Biso   1.000  O
  O19      1.0000 0.47720  0.84390  0.31857  Biso   1.000  O
  O20      1.0000 0.31679  0.75450  0.36435  Biso   1.000  O
  C28      1.0000 0.57940  0.72090  0.41200  Biso   1.000  C
  C29      1.0000 0.56990  0.65920  0.48420  Biso   1.000  C
  H10      1.0000 0.48180  0.65480  0.50460  Biso   1.000  H
  C30      1.0000 0.69230  0.60420  0.52600  Biso   1.000  C
  C31      1.0000 0.82310  0.60970  0.49370  Biso   1.000  C
  H11      1.0000 0.90330  0.57160  0.51980  Biso   1.000  H
  C32      1.0000 0.83400  0.67190  0.42250  Biso   1.000  C
  C33      1.0000 0.71160  0.72730  0.38250  Biso   1.000  C
  H12      1.0000 0.71870  0.76930  0.33520  Biso   1.000  H
  C34      1.0000 0.44670  0.77725  0.36120  Biso   1.000  C
  O21      1.0000 0.56560  0.53677  0.63737  Biso   1.000  O
  C35      1.0000 0.68570  0.53810  0.60530  Biso   1.000  C
  O22      1.0000 0.79350  0.48908  0.64170  Biso   1.000  O
  O23      1.0000 0.07590  0.62458  0.41090  Biso   1.000  O
  C36      1.0000 0.97300  0.67760  0.38480  Biso   1.000  C
  O24      1.0000 0.97250  0.74032  0.32418  Biso   1.000  O
