data_UNEBIZ_clean
_audit_creation_date              2014-07-02
_audit_creation_method            'Materials Studio'
_symmetry_space_group_name_H-M    'P1'
_symmetry_Int_Tables_number       1
_symmetry_cell_setting            triclinic
loop_
_symmetry_equiv_pos_as_xyz
  x,y,z
_cell_length_a                    13.6630
_cell_length_b                    18.3290
_cell_length_c                    22.1730
_cell_angle_alpha                 67.2040
_cell_angle_beta                  88.2600
_cell_angle_gamma                 86.7120
loop_
_atom_site_label
_atom_site_type_symbol
_atom_site_fract_x
_atom_site_fract_y
_atom_site_fract_z
_atom_site_U_iso_or_equiv
_atom_site_adp_type
_atom_site_occupancy
Mn1    Mn    0.42318   0.21357   0.13960   0.01267  Uiso   1.00
Mn2    Mn    0.21701   0.29277   0.19467   0.01267  Uiso   1.00
Mn3    Mn    0.00892   0.37010   0.25223   0.01267  Uiso   1.00
Mn4    Mn    0.58231   0.74021   0.07275   0.01267  Uiso   1.00
Mn5    Mn    0.58174   0.99828   0.59211   0.01267  Uiso   1.00
Mn6    Mn    0.87151   0.24629   0.85024   0.01267  Uiso   1.00
Mn7    Mn    0.85257   0.84222   0.31961   0.01267  Uiso   1.00
Mn8    Mn    0.85442   0.58392   0.80034   0.01267  Uiso   1.00
Mn9    Mn    0.56047   0.33783   0.53573   0.01267  Uiso   1.00
H1     H     0.30360   0.48310   0.08890   0.01267  Uiso   1.00
H2     H     0.58720   0.43950   0.11840   0.01267  Uiso   1.00
H3     H     0.31760   0.69660   0.11220   0.01267  Uiso   1.00
H4     H     0.20830   0.71350   0.08940   0.01267  Uiso   1.00
H5     H     0.24150   0.63100   0.14260   0.01267  Uiso   1.00
H6     H     0.36290   0.73700   0.98970   0.01267  Uiso   1.00
H7     H     0.31420   0.69300   0.95110   0.01267  Uiso   1.00
H8     H     0.25010   0.74980   0.97570   0.01267  Uiso   1.00
H9     H     0.17400   0.56360   0.07680   0.01267  Uiso   1.00
H10    H     0.13870   0.64750   0.02660   0.01267  Uiso   1.00
H11    H     0.20260   0.59000   0.00260   0.01267  Uiso   1.00
H12    H     0.69090   0.53190   0.12370   0.01267  Uiso   1.00
H13    H     0.76860   0.64430   0.16490   0.01267  Uiso   1.00
H14    H     0.83880   0.54700   0.13640   0.01267  Uiso   1.00
H15    H     0.85180   0.60600   0.06370   0.01267  Uiso   1.00
H16    H     0.00280   0.59180   0.10980   0.01267  Uiso   1.00
H17    H     0.95850   0.60250   0.17210   0.01267  Uiso   1.00
H18    H     0.02950   0.71730   0.11300   0.01267  Uiso   1.00
H19    H     0.98250   0.72250   0.04790   0.01267  Uiso   1.00
H20    H     0.89870   0.81580   0.07840   0.01267  Uiso   1.00
H21    H     0.88140   0.75330   0.14960   0.01267  Uiso   1.00
H22    H     0.79900   0.74950   0.03630   0.01267  Uiso   1.00
H23    H     0.76520   0.87170   0.09690   0.01267  Uiso   1.00
H24    H     0.42020   0.05590   0.08100   0.01267  Uiso   1.00
H25    H     0.70690   0.98990   0.09750   0.01267  Uiso   1.00
H26    H     0.35230   0.81300   0.13790   0.01267  Uiso   1.00
H27    H     0.30910   0.86810   0.17240   0.01267  Uiso   1.00
H28    H     0.24280   0.84530   0.12660   0.01267  Uiso   1.00
H29    H     0.36670   0.87000   0.01300   0.01267  Uiso   1.00
H30    H     0.25700   0.90120   0.01050   0.01267  Uiso   1.00
H31    H     0.33870   0.96020   0.97490   0.01267  Uiso   1.00
H32    H     0.20120   0.98690   0.06910   0.01267  Uiso   1.00
H33    H     0.27480   0.01300   0.10890   0.01267  Uiso   1.00
H34    H     0.28240   0.04560   0.03240   0.01267  Uiso   1.00
H35    H     0.26950   0.15130   0.38010   0.01267  Uiso   1.00
H36    H     0.55140   0.11830   0.33940   0.01267  Uiso   1.00
H37    H     0.29590   0.18390   0.53230   0.01267  Uiso   1.00
H38    H     0.23460   0.12110   0.58680   0.01267  Uiso   1.00
H39    H     0.34650   0.10320   0.57800   0.01267  Uiso   1.00
H40    H     0.17640   0.18380   0.44830   0.01267  Uiso   1.00
H41    H     0.15650   0.10240   0.44430   0.01267  Uiso   1.00
H42    H     0.11670   0.12120   0.50410   0.01267  Uiso   1.00
H43    H     0.20020   0.99490   0.58010   0.01267  Uiso   1.00
H44    H     0.23880   0.97750   0.51950   0.01267  Uiso   1.00
H45    H     0.31280   0.97950   0.57140   0.01267  Uiso   1.00
H46    H     0.66070   0.05350   0.41880   0.01267  Uiso   1.00
H47    H     0.73840   0.90660   0.53290   0.01267  Uiso   1.00
H48    H     0.83500   0.04520   0.45300   0.01267  Uiso   1.00
H49    H     0.79990   0.98080   0.42920   0.01267  Uiso   1.00
H50    H     0.91310   0.88830   0.49280   0.01267  Uiso   1.00
H51    H     0.96930   0.96440   0.45200   0.01267  Uiso   1.00
H52    H     0.97390   0.99880   0.54270   0.01267  Uiso   1.00
H53    H     0.02050   0.91250   0.56160   0.01267  Uiso   1.00
H54    H     0.87070   0.85990   0.60980   0.01267  Uiso   1.00
H55    H     0.90960   0.91350   0.64380   0.01267  Uiso   1.00
H56    H     0.80720   0.02100   0.57470   0.01267  Uiso   1.00
H57    H     0.78530   0.88780   0.70630   0.01267  Uiso   1.00
H58    H     0.47990   0.85610   0.88430   0.01267  Uiso   1.00
H59    H     0.74230   0.82170   0.81640   0.01267  Uiso   1.00
H60    H     0.34910   0.94950   0.86740   0.01267  Uiso   1.00
H61    H     0.25430   0.95160   0.82850   0.01267  Uiso   1.00
H62    H     0.31850   0.87260   0.85950   0.01267  Uiso   1.00
H63    H     0.26250   0.93720   0.72070   0.01267  Uiso   1.00
H64    H     0.36480   0.92870   0.68930   0.01267  Uiso   1.00
H65    H     0.32780   0.85870   0.75140   0.01267  Uiso   1.00
H66    H     0.41640   0.05940   0.77360   0.01267  Uiso   1.00
H67    H     0.42020   0.05570   0.70410   0.01267  Uiso   1.00
H68    H     0.31890   0.06450   0.73640   0.01267  Uiso   1.00
H69    H     0.03300   0.26730   0.05380   0.01267  Uiso   1.00
H70    H     0.27510   0.20640   0.97470   0.01267  Uiso   1.00
H71    H     0.34740   0.24180   0.87440   0.01267  Uiso   1.00
H72    H     0.34180   0.15060   0.91530   0.01267  Uiso   1.00
H73    H     0.35630   0.18230   0.83920   0.01267  Uiso   1.00
H74    H     0.19660   0.07800   0.90970   0.01267  Uiso   1.00
H75    H     0.11160   0.12230   0.86120   0.01267  Uiso   1.00
H76    H     0.21450   0.10640   0.83410   0.01267  Uiso   1.00
H77    H     0.20830   0.31600   0.79540   0.01267  Uiso   1.00
H78    H     0.22390   0.25320   0.76370   0.01267  Uiso   1.00
H79    H     0.12000   0.26810   0.79000   0.01267  Uiso   1.00
H80    H     0.88080   0.28330   0.00540   0.01267  Uiso   1.00
H81    H     0.71390   0.22260   0.97020   0.01267  Uiso   1.00
H82    H     0.73250   0.31020   0.01980   0.01267  Uiso   1.00
H83    H     0.72270   0.38220   0.95210   0.01267  Uiso   1.00
H84    H     0.57280   0.36990   0.00320   0.01267  Uiso   1.00
H85    H     0.57390   0.27950   0.01690   0.01267  Uiso   1.00
H86    H     0.46790   0.34150   0.93570   0.01267  Uiso   1.00
H87    H     0.54390   0.40380   0.89660   0.01267  Uiso   1.00
H88    H     0.55120   0.24430   0.91140   0.01267  Uiso   1.00
H89    H     0.53620   0.31830   0.84520   0.01267  Uiso   1.00
H90    H     0.69480   0.35830   0.85320   0.01267  Uiso   1.00
H91    H     0.61240   0.25210   0.79550   0.01267  Uiso   1.00
H92    H     0.79940   0.10050   0.65120   0.01267  Uiso   1.00
H93    H     0.58710   0.20960   0.71430   0.01267  Uiso   1.00
H94    H     0.00640   0.22260   0.64790   0.01267  Uiso   1.00
H95    H     0.01750   0.20860   0.72180   0.01267  Uiso   1.00
H96    H     0.09180   0.16620   0.68910   0.01267  Uiso   1.00
H97    H     0.97960   0.08270   0.80610   0.01267  Uiso   1.00
H98    H     0.95370   0.01240   0.78680   0.01267  Uiso   1.00
H99    H     0.05940   0.04450   0.77350   0.01267  Uiso   1.00
H100   H     0.96180   0.11250   0.61700   0.01267  Uiso   1.00
H101   H     0.04820   0.06040   0.66030   0.01267  Uiso   1.00
H102   H     0.94160   0.02990   0.67220   0.01267  Uiso   1.00
H103   H     0.84620   0.14560   0.27110   0.01267  Uiso   1.00
H104   H     0.13490   0.09600   0.30660   0.01267  Uiso   1.00
H105   H     0.29760   0.94390   0.36030   0.01267  Uiso   1.00
H106   H     0.25710   0.02240   0.30510   0.01267  Uiso   1.00
H107   H     0.22860   0.00390   0.37840   0.01267  Uiso   1.00
H108   H     0.18850   0.83720   0.41870   0.01267  Uiso   1.00
H109   H     0.12070   0.89720   0.43750   0.01267  Uiso   1.00
H110   H     0.07650   0.84730   0.40220   0.01267  Uiso   1.00
H111   H     0.23620   0.86420   0.30560   0.01267  Uiso   1.00
H112   H     0.12620   0.87400   0.28450   0.01267  Uiso   1.00
H113   H     0.19770   0.94170   0.24850   0.01267  Uiso   1.00
H114   H     0.74310   0.04770   0.27990   0.01267  Uiso   1.00
H115   H     0.64560   0.88710   0.35250   0.01267  Uiso   1.00
H116   H     0.59860   0.01670   0.23470   0.01267  Uiso   1.00
H117   H     0.59220   0.02100   0.30430   0.01267  Uiso   1.00
H118   H     0.43930   0.99710   0.27450   0.01267  Uiso   1.00
H119   H     0.47610   0.92680   0.33780   0.01267  Uiso   1.00
H120   H     0.40860   0.87530   0.27160   0.01267  Uiso   1.00
H121   H     0.47490   0.92480   0.21240   0.01267  Uiso   1.00
H122   H     0.54760   0.79640   0.25590   0.01267  Uiso   1.00
H123   H     0.54390   0.79580   0.32690   0.01267  Uiso   1.00
H124   H     0.66220   0.89350   0.22380   0.01267  Uiso   1.00
H125   H     0.67380   0.72260   0.27920   0.01267  Uiso   1.00
H126   H     0.00840   0.52570   0.31370   0.01267  Uiso   1.00
H127   H     0.72750   0.59290   0.29170   0.01267  Uiso   1.00
H128   H     0.15550   0.57050   0.28050   0.01267  Uiso   1.00
H129   H     0.23000   0.59270   0.32240   0.01267  Uiso   1.00
H130   H     0.14710   0.53460   0.35700   0.01267  Uiso   1.00
H131   H     0.06910   0.70890   0.37970   0.01267  Uiso   1.00
H132   H     0.09670   0.61840   0.41690   0.01267  Uiso   1.00
H133   H     0.17840   0.67720   0.38120   0.01267  Uiso   1.00
H134   H     0.11010   0.70800   0.21780   0.01267  Uiso   1.00
H135   H     0.07950   0.76620   0.25220   0.01267  Uiso   1.00
H136   H     0.18790   0.73180   0.25650   0.01267  Uiso   1.00
H137   H     0.16360   0.43790   0.01420   0.01267  Uiso   1.00
H138   H     0.88160   0.46760   0.05390   0.01267  Uiso   1.00
H139   H     0.20060   0.60720   0.86840   0.01267  Uiso   1.00
H140   H     0.24690   0.58000   0.81450   0.01267  Uiso   1.00
H141   H     0.13460   0.60370   0.81310   0.01267  Uiso   1.00
H142   H     0.09000   0.46300   0.81630   0.01267  Uiso   1.00
H143   H     0.20350   0.44990   0.80940   0.01267  Uiso   1.00
H144   H     0.14580   0.38890   0.86760   0.01267  Uiso   1.00
H145   H     0.28490   0.48380   0.94630   0.01267  Uiso   1.00
H146   H     0.26350   0.40180   0.94400   0.01267  Uiso   1.00
H147   H     0.31980   0.46420   0.88600   0.01267  Uiso   1.00
H148   H     0.76560   0.51980   0.97360   0.01267  Uiso   1.00
H149   H     0.64570   0.53070   0.85180   0.01267  Uiso   1.00
H150   H     0.61120   0.51190   0.96030   0.01267  Uiso   1.00
H151   H     0.62540   0.60210   0.94400   0.01267  Uiso   1.00
H152   H     0.45520   0.58260   0.94020   0.01267  Uiso   1.00
H153   H     0.47600   0.54510   0.88800   0.01267  Uiso   1.00
H154   H     0.41890   0.67370   0.83660   0.01267  Uiso   1.00
H155   H     0.50170   0.70300   0.86800   0.01267  Uiso   1.00
H156   H     0.55040   0.72840   0.75910   0.01267  Uiso   1.00
H157   H     0.53440   0.64020   0.76850   0.01267  Uiso   1.00
H158   H     0.68000   0.68910   0.83120   0.01267  Uiso   1.00
H159   H     0.66040   0.71710   0.68920   0.01267  Uiso   1.00
H160   H     0.95550   0.71360   0.50990   0.01267  Uiso   1.00
H161   H     0.69160   0.75110   0.57790   0.01267  Uiso   1.00
H162   H     0.02660   0.53300   0.69480   0.01267  Uiso   1.00
H163   H     0.02950   0.52520   0.62690   0.01267  Uiso   1.00
H164   H     0.12750   0.52660   0.66130   0.01267  Uiso   1.00
H165   H     0.11370   0.72980   0.63280   0.01267  Uiso   1.00
H166   H     0.08240   0.66100   0.69760   0.01267  Uiso   1.00
H167   H     0.17910   0.65110   0.66100   0.01267  Uiso   1.00
H168   H     0.11170   0.71960   0.52850   0.01267  Uiso   1.00
H169   H     0.17750   0.64100   0.55610   0.01267  Uiso   1.00
H170   H     0.07680   0.64210   0.52350   0.01267  Uiso   1.00
H171   H     0.15650   0.38010   0.41170   0.01267  Uiso   1.00
H172   H     0.39800   0.31550   0.33660   0.01267  Uiso   1.00
H173   H     0.07830   0.40980   0.54930   0.01267  Uiso   1.00
H174   H     0.09330   0.44050   0.47330   0.01267  Uiso   1.00
H175   H     0.08230   0.34990   0.51440   0.01267  Uiso   1.00
H176   H     0.32570   0.45640   0.53160   0.01267  Uiso   1.00
H177   H     0.24010   0.50390   0.48470   0.01267  Uiso   1.00
H178   H     0.22380   0.47070   0.56070   0.01267  Uiso   1.00
H179   H     0.30680   0.30950   0.59740   0.01267  Uiso   1.00
H180   H     0.20550   0.33240   0.62210   0.01267  Uiso   1.00
H181   H     0.21120   0.27210   0.58750   0.01267  Uiso   1.00
H182   H     0.54770   0.28940   0.38830   0.01267  Uiso   1.00
H183   H     0.69110   0.21800   0.50320   0.01267  Uiso   1.00
H184   H     0.68640   0.21710   0.39880   0.01267  Uiso   1.00
H185   H     0.72920   0.30160   0.36920   0.01267  Uiso   1.00
H186   H     0.83210   0.16380   0.45690   0.01267  Uiso   1.00
H187   H     0.85780   0.20600   0.38220   0.01267  Uiso   1.00
H188   H     0.96550   0.24360   0.44600   0.01267  Uiso   1.00
H189   H     0.90540   0.31820   0.39830   0.01267  Uiso   1.00
H190   H     0.89960   0.32400   0.50370   0.01267  Uiso   1.00
H191   H     0.86050   0.23820   0.53510   0.01267  Uiso   1.00
H192   H     0.75520   0.37230   0.44590   0.01267  Uiso   1.00
H193   H     0.82190   0.34540   0.57720   0.01267  Uiso   1.00
H194   H     0.63510   0.47420   0.74410   0.01267  Uiso   1.00
H195   H     0.84840   0.37340   0.66910   0.01267  Uiso   1.00
H196   H     0.34270   0.41290   0.70210   0.01267  Uiso   1.00
H197   H     0.41750   0.36730   0.67250   0.01267  Uiso   1.00
H198   H     0.42910   0.35990   0.74480   0.01267  Uiso   1.00
H199   H     0.38110   0.54740   0.61030   0.01267  Uiso   1.00
H200   H     0.48950   0.57380   0.59910   0.01267  Uiso   1.00
H201   H     0.45760   0.50680   0.57760   0.01267  Uiso   1.00
H202   H     0.39530   0.52620   0.72610   0.01267  Uiso   1.00
H203   H     0.48110   0.47190   0.76850   0.01267  Uiso   1.00
H204   H     0.50330   0.55330   0.71220   0.01267  Uiso   1.00
C1     C     0.43180   0.36610   0.12060   0.01267  Uiso   1.00
C2     C     0.44330   0.44690   0.10600   0.01267  Uiso   1.00
C3     C     0.36540   0.50170   0.08940   0.01267  Uiso   1.00
C4     C     0.37130   0.58270   0.07340   0.01267  Uiso   1.00
C5     C     0.46620   0.60880   0.08130   0.01267  Uiso   1.00
C6     C     0.54840   0.55180   0.09920   0.01267  Uiso   1.00
C7     C     0.53310   0.47510   0.10900   0.01267  Uiso   1.00
C8     C     0.28530   0.64260   0.05000   0.01267  Uiso   1.00
C9     C     0.26090   0.67380   0.10350   0.01267  Uiso   1.00
C10    C     0.30500   0.71210   0.98560   0.01267  Uiso   1.00
C11    C     0.19130   0.60760   0.03790   0.01267  Uiso   1.00
C12    C     0.64310   0.57290   0.10880   0.01267  Uiso   1.00
C13    C     0.77140   0.65460   0.11810   0.01267  Uiso   1.00
C14    C     0.85160   0.60140   0.10870   0.01267  Uiso   1.00
C15    C     0.95270   0.62060   0.12500   0.01267  Uiso   1.00
C16    C     0.97070   0.70770   0.09440   0.01267  Uiso   1.00
C17    C     0.88610   0.76060   0.10390   0.01267  Uiso   1.00
C18    C     0.79060   0.74080   0.08270   0.01267  Uiso   1.00
C19    C     0.70390   0.85530   0.09170   0.01267  Uiso   1.00
C20    C     0.58850   0.10940   0.09800   0.01267  Uiso   1.00
C21    C     0.62150   0.90760   0.08950   0.01267  Uiso   1.00
C22    C     0.52510   0.89160   0.08280   0.01267  Uiso   1.00
C23    C     0.44970   0.94720   0.07960   0.01267  Uiso   1.00
C24    C     0.47060   0.01870   0.08310   0.01267  Uiso   1.00
C25    C     0.56700   0.03480   0.08980   0.01267  Uiso   1.00
C26    C     0.64240   0.97920   0.09300   0.01267  Uiso   1.00
C27    C     0.33900   0.92890   0.07590   0.01267  Uiso   1.00
C28    C     0.30800   0.85740   0.13340   0.01267  Uiso   1.00
C29    C     0.32390   0.91360   0.01250   0.01267  Uiso   1.00
C30    C     0.26740   0.00050   0.07110   0.01267  Uiso   1.00
C31    C     0.38650   0.16700   0.27680   0.01267  Uiso   1.00
C32    C     0.40840   0.13780   0.34690   0.01267  Uiso   1.00
C33    C     0.33250   0.13180   0.39460   0.01267  Uiso   1.00
C34    C     0.34930   0.09820   0.46130   0.01267  Uiso   1.00
C35    C     0.44960   0.07070   0.48220   0.01267  Uiso   1.00
C36    C     0.52090   0.08000   0.43510   0.01267  Uiso   1.00
C37    C     0.50050   0.11290   0.36940   0.01267  Uiso   1.00
C38    C     0.26340   0.09280   0.50940   0.01267  Uiso   1.00
C39    C     0.28710   0.12830   0.55560   0.01267  Uiso   1.00
C40    C     0.16980   0.12820   0.47320   0.01267  Uiso   1.00
C41    C     0.25280   0.00250   0.54890   0.01267  Uiso   1.00
C42    C     0.61750   0.04680   0.45350   0.01267  Uiso   1.00
C43    C     0.75140   0.96200   0.52340   0.01267  Uiso   1.00
C44    C     0.82530   0.98900   0.46630   0.01267  Uiso   1.00
C45    C     0.92140   0.94290   0.48680   0.01267  Uiso   1.00
C46    C     0.96010   0.94490   0.54940   0.01267  Uiso   1.00
C47    C     0.88440   0.91390   0.60320   0.01267  Uiso   1.00
C48    C     0.79050   0.96630   0.58470   0.01267  Uiso   1.00
C49    C     0.72200   0.90820   0.69350   0.01267  Uiso   1.00
C50    C     0.64920   0.89260   0.74420   0.01267  Uiso   1.00
C51    C     0.55120   0.92800   0.73290   0.01267  Uiso   1.00
C52    C     0.48530   0.91390   0.78680   0.01267  Uiso   1.00
C53    C     0.52200   0.86620   0.84850   0.01267  Uiso   1.00
C54    C     0.61560   0.83340   0.85980   0.01267  Uiso   1.00
C55    C     0.67920   0.84500   0.80880   0.01267  Uiso   1.00
C56    C     0.64740   0.78300   0.92900   0.01267  Uiso   1.00
C57    C     0.37990   0.95120   0.77600   0.01267  Uiso   1.00
C58    C     0.32000   0.92920   0.83860   0.01267  Uiso   1.00
C59    C     0.32860   0.91530   0.72970   0.01267  Uiso   1.00
C60    C     0.38430   0.04100   0.74460   0.01267  Uiso   1.00
C61    C     0.22140   0.22910   0.08260   0.01267  Uiso   1.00
C62    C     0.16110   0.23410   0.02470   0.01267  Uiso   1.00
C63    C     0.06380   0.25290   0.02180   0.01267  Uiso   1.00
C64    C     0.00830   0.25030   0.96830   0.01267  Uiso   1.00
C65    C     0.05440   0.23130   0.91950   0.01267  Uiso   1.00
C66    C     0.15620   0.21580   0.92110   0.01267  Uiso   1.00
C67    C     0.20770   0.21710   0.97320   0.01267  Uiso   1.00
C68    C     0.21470   0.20000   0.86580   0.01267  Uiso   1.00
C69    C     0.32530   0.19300   0.87450   0.01267  Uiso   1.00
C70    C     0.18110   0.11880   0.86790   0.01267  Uiso   1.00
C71    C     0.18930   0.26570   0.79710   0.01267  Uiso   1.00
C72    C     0.90410   0.27010   0.97090   0.01267  Uiso   1.00
C73    C     0.73380   0.27610   0.94310   0.01267  Uiso   1.00
C74    C     0.70200   0.32900   0.97720   0.01267  Uiso   1.00
C75    C     0.59220   0.33060   0.98530   0.01267  Uiso   1.00
C76    C     0.53690   0.34860   0.92470   0.01267  Uiso   1.00
C77    C     0.56860   0.29870   0.88730   0.01267  Uiso   1.00
C78    C     0.68140   0.30240   0.87730   0.01267  Uiso   1.00
C79    C     0.67950   0.23960   0.79780   0.01267  Uiso   1.00
C80    C     0.71830   0.20290   0.75600   0.01267  Uiso   1.00
C81    C     0.82050   0.18400   0.75460   0.01267  Uiso   1.00
C82    C     0.85450   0.14320   0.71090   0.01267  Uiso   1.00
C83    C     0.78190   0.13160   0.67490   0.01267  Uiso   1.00
C84    C     0.68270   0.16140   0.66950   0.01267  Uiso   1.00
C85    C     0.65270   0.19350   0.71310   0.01267  Uiso   1.00
C86    C     0.61320   0.15690   0.61970   0.01267  Uiso   1.00
C87    C     0.96040   0.11600   0.70930   0.01267  Uiso   1.00
C88    C     0.02470   0.18440   0.69030   0.01267  Uiso   1.00
C89    C     0.99090   0.05890   0.77460   0.01267  Uiso   1.00
C90    C     0.97980   0.07590   0.66000   0.01267  Uiso   1.00
C91    C     0.00700   0.22250   0.26920   0.01267  Uiso   1.00
C92    C     0.99380   0.13310   0.28490   0.01267  Uiso   1.00
C93    C     0.89990   0.10950   0.28190   0.01267  Uiso   1.00
C94    C     0.88960   0.02780   0.29610   0.01267  Uiso   1.00
C95    C     0.97120   0.97440   0.31150   0.01267  Uiso   1.00
C96    C     0.06460   0.99870   0.31760   0.01267  Uiso   1.00
C97    C     0.07360   0.07830   0.30350   0.01267  Uiso   1.00
C98    C     0.15430   0.93930   0.33960   0.01267  Uiso   1.00
C99    C     0.24240   0.98120   0.34650   0.01267  Uiso   1.00
C100   C     0.13310   0.87430   0.40560   0.01267  Uiso   1.00
C101   C     0.18110   0.90120   0.28980   0.01267  Uiso   1.00
C102   C     0.79160   0.00710   0.29190   0.01267  Uiso   1.00
C103   C     0.66170   0.91720   0.30640   0.01267  Uiso   1.00
C104   C     0.58710   0.98640   0.28090   0.01267  Uiso   1.00
C105   C     0.48770   0.95350   0.29110   0.01267  Uiso   1.00
C106   C     0.47260   0.89720   0.25950   0.01267  Uiso   1.00
C107   C     0.55310   0.82900   0.28110   0.01267  Uiso   1.00
C108   C     0.65340   0.86250   0.27070   0.01267  Uiso   1.00
C109   C     0.73380   0.73550   0.28990   0.01267  Uiso   1.00
C110   C     0.81300   0.67710   0.30130   0.01267  Uiso   1.00
C111   C     0.91210   0.69310   0.30830   0.01267  Uiso   1.00
C112   C     0.99110   0.63370   0.31070   0.01267  Uiso   1.00
C113   C     0.96010   0.56530   0.30920   0.01267  Uiso   1.00
C114   C     0.86410   0.54730   0.30170   0.01267  Uiso   1.00
C115   C     0.79190   0.60280   0.29730   0.01267  Uiso   1.00
C116   C     0.83940   0.47300   0.29200   0.01267  Uiso   1.00
C117   C     0.09480   0.65110   0.31680   0.01267  Uiso   1.00
C118   C     0.16330   0.58060   0.31940   0.01267  Uiso   1.00
C119   C     0.11130   0.66520   0.37950   0.01267  Uiso   1.00
C120   C     0.12040   0.72060   0.25520   0.01267  Uiso   1.00
C121   C     0.04880   0.41840   0.11700   0.01267  Uiso   1.00
C122   C     0.02610   0.44830   0.04420   0.01267  Uiso   1.00
C123   C     0.10030   0.45450   0.99880   0.01267  Uiso   1.00
C124   C     0.08620   0.48390   0.93210   0.01267  Uiso   1.00
C125   C     0.99030   0.50860   0.90940   0.01267  Uiso   1.00
C126   C     0.91010   0.50240   0.95560   0.01267  Uiso   1.00
C127   C     0.93160   0.47180   0.02350   0.01267  Uiso   1.00
C128   C     0.16840   0.49340   0.88330   0.01267  Uiso   1.00
C129   C     0.18960   0.57900   0.84090   0.01267  Uiso   1.00
C130   C     0.15010   0.44390   0.83980   0.01267  Uiso   1.00
C131   C     0.26900   0.45720   0.91830   0.01267  Uiso   1.00
C132   C     0.80970   0.52520   0.93950   0.01267  Uiso   1.00
C133   C     0.66810   0.56920   0.86850   0.01267  Uiso   1.00
C134   C     0.60490   0.56460   0.92630   0.01267  Uiso   1.00
C135   C     0.49690   0.58440   0.90360   0.01267  Uiso   1.00
C136   C     0.48660   0.66370   0.85080   0.01267  Uiso   1.00
C137   C     0.55470   0.67380   0.79010   0.01267  Uiso   1.00
C138   C     0.65910   0.65050   0.81420   0.01267  Uiso   1.00
C139   C     0.71970   0.68790   0.70140   0.01267  Uiso   1.00
C140   C     0.78780   0.69200   0.64990   0.01267  Uiso   1.00
C141   C     0.88510   0.66260   0.66060   0.01267  Uiso   1.00
C142   C     0.95000   0.67050   0.60600   0.01267  Uiso   1.00
C143   C     0.91450   0.70890   0.54530   0.01267  Uiso   1.00
C144   C     0.81600   0.74330   0.53230   0.01267  Uiso   1.00
C145   C     0.75650   0.73170   0.58510   0.01267  Uiso   1.00
C146   C     0.77950   0.78770   0.46470   0.01267  Uiso   1.00
C147   C     0.05890   0.64040   0.61800   0.01267  Uiso   1.00
C148   C     0.06080   0.54710   0.65370   0.01267  Uiso   1.00
C149   C     0.11300   0.67330   0.65540   0.01267  Uiso   1.00
C150   C     0.11130   0.66290   0.55000   0.01267  Uiso   1.00
C151   C     0.21380   0.35980   0.30460   0.01267  Uiso   1.00
C152   C     0.26840   0.35430   0.36250   0.01267  Uiso   1.00
C153   C     0.22370   0.36810   0.41410   0.01267  Uiso   1.00
C154   C     0.27160   0.36530   0.46940   0.01267  Uiso   1.00
C155   C     0.37730   0.34840   0.47110   0.01267  Uiso   1.00
C156   C     0.42370   0.32730   0.42160   0.01267  Uiso   1.00
C157   C     0.36800   0.33020   0.36870   0.01267  Uiso   1.00
C158   C     0.22260   0.38580   0.52380   0.01267  Uiso   1.00
C159   C     0.10790   0.39770   0.51430   0.01267  Uiso   1.00
C160   C     0.25600   0.46090   0.52540   0.01267  Uiso   1.00
C161   C     0.23790   0.31900   0.58840   0.01267  Uiso   1.00
C162   C     0.52510   0.30480   0.42180   0.01267  Uiso   1.00
C163   C     0.68950   0.26900   0.46590   0.01267  Uiso   1.00
C164   C     0.72890   0.25240   0.40750   0.01267  Uiso   1.00
C165   C     0.83300   0.21470   0.42040   0.01267  Uiso   1.00
C166   C     0.90030   0.26890   0.43610   0.01267  Uiso   1.00
C167   C     0.85890   0.28680   0.49610   0.01267  Uiso   1.00
C168   C     0.75410   0.32120   0.48320   0.01267  Uiso   1.00
C169   C     0.75400   0.35130   0.57950   0.01267  Uiso   1.00
C170   C     0.82010   0.42970   0.76350   0.01267  Uiso   1.00
C171   C     0.71540   0.37870   0.62970   0.01267  Uiso   1.00
C172   C     0.61760   0.40330   0.63170   0.01267  Uiso   1.00
C173   C     0.58760   0.43910   0.67460   0.01267  Uiso   1.00
C174   C     0.65530   0.45030   0.71540   0.01267  Uiso   1.00
C175   C     0.75300   0.42570   0.71330   0.01267  Uiso   1.00
C176   C     0.78310   0.38990   0.67050   0.01267  Uiso   1.00
C177   C     0.47600   0.46750   0.67710   0.01267  Uiso   1.00
C178   C     0.41000   0.39500   0.70140   0.01267  Uiso   1.00
C179   C     0.44850   0.52960   0.60980   0.01267  Uiso   1.00
C180   C     0.46270   0.50860   0.72550   0.01267  Uiso   1.00
N1     N     0.67080   0.64420   0.09890   0.01267  Uiso   1.00
N2     N     0.70150   0.78700   0.08720   0.01267  Uiso   1.00
N3     N     0.65530   0.00820   0.51160   0.01267  Uiso   1.00
N4     N     0.70850   0.94730   0.63280   0.01267  Uiso   1.00
N5     N     0.84170   0.27050   0.92770   0.01267  Uiso   1.00
N6     N     0.73050   0.25790   0.84030   0.01267  Uiso   1.00
N7     N     0.76520   0.93670   0.30330   0.01267  Uiso   1.00
N8     N     0.73710   0.80310   0.29300   0.01267  Uiso   1.00
N9     N     0.77750   0.55180   0.88280   0.01267  Uiso   1.00
N10    N     0.73250   0.64810   0.76220   0.01267  Uiso   1.00
N11    N     0.58710   0.30370   0.46280   0.01267  Uiso   1.00
N12    N     0.70690   0.33490   0.53930   0.01267  Uiso   1.00
O1     O     0.34770   0.33750   0.12960   0.01267  Uiso   1.00
O2     O     0.50530   0.31910   0.12300   0.01267  Uiso   1.00
O3     O     0.47260   0.68240   0.07460   0.01267  Uiso   1.00
O4     O     0.50310   0.82200   0.07960   0.01267  Uiso   1.00
O5     O     0.29960   0.18800   0.25680   0.01267  Uiso   1.00
O6     O     0.45500   0.16930   0.23710   0.01267  Uiso   1.00
O7     O     0.46530   0.03660   0.54520   0.01267  Uiso   1.00
O8     O     0.52100   0.96970   0.67510   0.01267  Uiso   1.00
O9     O     0.59220   0.78580   0.97390   0.01267  Uiso   1.00
O10    O     0.72310   0.74390   0.93660   0.01267  Uiso   1.00
O11    O     0.17680   0.24380   0.12670   0.01267  Uiso   1.00
O12    O     0.30850   0.20740   0.08280   0.01267  Uiso   1.00
O13    O     0.00500   0.22450   0.87220   0.01267  Uiso   1.00
O14    O     0.88420   0.20120   0.78650   0.01267  Uiso   1.00
O15    O     0.54960   0.21120   0.60070   0.01267  Uiso   1.00
O16    O     0.63040   0.10620   0.59410   0.01267  Uiso   1.00
O17    O     0.08960   0.24790   0.25750   0.01267  Uiso   1.00
O18    O     0.93230   0.26410   0.26980   0.01267  Uiso   1.00
O19    O     0.96050   0.89870   0.32250   0.01267  Uiso   1.00
O20    O     0.93330   0.75840   0.31040   0.01267  Uiso   1.00
O21    O     0.91100   0.43150   0.28790   0.01267  Uiso   1.00
O22    O     0.75650   0.46040   0.28540   0.01267  Uiso   1.00
O23    O     0.97570   0.41730   0.15340   0.01267  Uiso   1.00
O24    O     0.13500   0.39890   0.13430   0.01267  Uiso   1.00
O25    O     0.97150   0.53830   0.84630   0.01267  Uiso   1.00
O26    O     0.92150   0.62440   0.72180   0.01267  Uiso   1.00
O27    O     0.83550   0.78400   0.41960   0.01267  Uiso   1.00
O28    O     0.70020   0.82680   0.45570   0.01267  Uiso   1.00
O29    O     0.12160   0.38010   0.30450   0.01267  Uiso   1.00
O30    O     0.25880   0.34420   0.26060   0.01267  Uiso   1.00
O31    O     0.42920   0.35180   0.51930   0.01267  Uiso   1.00
O32    O     0.54960   0.38730   0.59570   0.01267  Uiso   1.00
O33    O     0.88700   0.37210   0.78900   0.01267  Uiso   1.00
O34    O     0.80280   0.48550   0.78250   0.01267  Uiso   1.00
O35    O     0.51850   0.15270   0.10350   0.01267  Uiso   1.00
O36    O     0.67370   0.12660   0.09670   0.01267  Uiso   1.00
