data_image0
_cell_length_a       20.461
_cell_length_b       20.461
_cell_length_c       17.8279
_cell_angle_alpha    90
_cell_angle_beta     90
_cell_angle_gamma    90

_symmetry_space_group_name_H-M    "P 1"
_symmetry_int_tables_number       1

loop_
  _symmetry_equiv_pos_as_xyz
  'x, y, z'

loop_
  _atom_site_label
  _atom_site_occupancy
  _atom_site_fract_x
  _atom_site_fract_y
  _atom_site_fract_z
  _atom_site_thermal_displace_type
  _atom_site_B_iso_or_equiv
  _atom_site_type_symbol
  Co1      1.0000 0.25775  0.11894  0.65066  Biso   1.000  Co
  O1       1.0000 0.23579  0.12901  0.75574  Biso   1.000  O
  O2       1.0000 0.31272  0.05840  0.76675  Biso   1.000  O
  O3       1.0000 0.25867  0.96501  0.09771  Biso   1.000  O
  O4       1.0000 0.33861  0.94542  0.01277  Biso   1.000  O
  O5       1.0000 0.17302  0.19279  0.09710  Biso   1.000  O
  O6       1.0000 0.16041  0.24298  0.98841  Biso   1.000  O
  C1       1.0000 0.27144  0.09400  0.79431  Biso   1.000  C
  C2       1.0000 0.26224  0.09421  0.87818  Biso   1.000  C
  C3       1.0000 0.22804  0.14416  0.91352  Biso   1.000  C
  H1       1.0000 0.21340  0.17970  0.88560  Biso   1.000  H
  C4       1.0000 0.21558  0.14162  0.98956  Biso   1.000  C
  C5       1.0000 0.23740  0.08830  0.03101  Biso   1.000  C
  H2       1.0000 0.22890  0.08620  0.08220  Biso   1.000  H
  C6       1.0000 0.27159  0.03856  0.99651  Biso   1.000  C
  C7       1.0000 0.28432  0.04214  0.91946  Biso   1.000  C
  H3       1.0000 0.30790  0.00900  0.89610  Biso   1.000  H
  C8       1.0000 0.18078  0.19740  0.02771  Biso   1.000  C
  C9       1.0000 0.29150  0.97718  0.03888  Biso   1.000  C
  Co2      1.0000 0.75775  0.61894  0.15066  Biso   1.000  Co
  O7       1.0000 0.73579  0.62901  0.25574  Biso   1.000  O
  O8       1.0000 0.81272  0.55840  0.26675  Biso   1.000  O
  O9       1.0000 0.75867  0.46501  0.59771  Biso   1.000  O
  O10      1.0000 0.83861  0.44542  0.51277  Biso   1.000  O
  O11      1.0000 0.67302  0.69279  0.59710  Biso   1.000  O
  O12      1.0000 0.66041  0.74298  0.48841  Biso   1.000  O
  C10      1.0000 0.77144  0.59400  0.29431  Biso   1.000  C
  C11      1.0000 0.76224  0.59421  0.37818  Biso   1.000  C
  C12      1.0000 0.72804  0.64416  0.41352  Biso   1.000  C
  H4       1.0000 0.71340  0.67970  0.38560  Biso   1.000  H
  C13      1.0000 0.71558  0.64162  0.48956  Biso   1.000  C
  C14      1.0000 0.73740  0.58830  0.53101  Biso   1.000  C
  H5       1.0000 0.72890  0.58620  0.58220  Biso   1.000  H
  C15      1.0000 0.77159  0.53856  0.49651  Biso   1.000  C
  C16      1.0000 0.78432  0.54214  0.41946  Biso   1.000  C
  H6       1.0000 0.80790  0.50900  0.39610  Biso   1.000  H
  C17      1.0000 0.68078  0.69740  0.52771  Biso   1.000  C
  C18      1.0000 0.79150  0.47718  0.53888  Biso   1.000  C
  Co3      1.0000 0.74225  0.88106  0.65066  Biso   1.000  Co
  O13      1.0000 0.76421  0.87099  0.75574  Biso   1.000  O
  O14      1.0000 0.68728  0.94160  0.76675  Biso   1.000  O
  O15      1.0000 0.74133  0.03499  0.09771  Biso   1.000  O
  O16      1.0000 0.66139  0.05458  0.01277  Biso   1.000  O
  O17      1.0000 0.82698  0.80721  0.09710  Biso   1.000  O
  O18      1.0000 0.83959  0.75702  0.98841  Biso   1.000  O
  C19      1.0000 0.72856  0.90600  0.79431  Biso   1.000  C
  C20      1.0000 0.73776  0.90579  0.87818  Biso   1.000  C
  C21      1.0000 0.77196  0.85584  0.91352  Biso   1.000  C
  H7       1.0000 0.78660  0.82030  0.88560  Biso   1.000  H
  C22      1.0000 0.78442  0.85838  0.98956  Biso   1.000  C
  C23      1.0000 0.76260  0.91170  0.03101  Biso   1.000  C
  H8       1.0000 0.77110  0.91380  0.08220  Biso   1.000  H
  C24      1.0000 0.72841  0.96144  0.99651  Biso   1.000  C
  C25      1.0000 0.71568  0.95786  0.91946  Biso   1.000  C
  H9       1.0000 0.69210  0.99100  0.89610  Biso   1.000  H
  C26      1.0000 0.81922  0.80260  0.02771  Biso   1.000  C
  C27      1.0000 0.70850  0.02282  0.03888  Biso   1.000  C
  Co4      1.0000 0.24225  0.38106  0.15066  Biso   1.000  Co
  O19      1.0000 0.26421  0.37099  0.25574  Biso   1.000  O
  O20      1.0000 0.18728  0.44160  0.26675  Biso   1.000  O
  O21      1.0000 0.24133  0.53499  0.59771  Biso   1.000  O
  O22      1.0000 0.16139  0.55458  0.51277  Biso   1.000  O
  O23      1.0000 0.32698  0.30721  0.59710  Biso   1.000  O
  O24      1.0000 0.33959  0.25702  0.48841  Biso   1.000  O
  C28      1.0000 0.22856  0.40600  0.29431  Biso   1.000  C
  C29      1.0000 0.23776  0.40579  0.37818  Biso   1.000  C
  C30      1.0000 0.27196  0.35584  0.41352  Biso   1.000  C
  H10      1.0000 0.28660  0.32030  0.38560  Biso   1.000  H
  C31      1.0000 0.28442  0.35838  0.48956  Biso   1.000  C
  C32      1.0000 0.26260  0.41170  0.53101  Biso   1.000  C
  H11      1.0000 0.27110  0.41380  0.58220  Biso   1.000  H
  C33      1.0000 0.22841  0.46144  0.49651  Biso   1.000  C
  C34      1.0000 0.21568  0.45786  0.41946  Biso   1.000  C
  H12      1.0000 0.19210  0.49100  0.39610  Biso   1.000  H
  C35      1.0000 0.31922  0.30260  0.52771  Biso   1.000  C
  C36      1.0000 0.20850  0.52282  0.53888  Biso   1.000  C
  Co5      1.0000 0.88106  0.25775  0.65066  Biso   1.000  Co
  O25      1.0000 0.87099  0.23579  0.75574  Biso   1.000  O
  O26      1.0000 0.94160  0.31272  0.76675  Biso   1.000  O
  O27      1.0000 0.03499  0.25867  0.09771  Biso   1.000  O
  O28      1.0000 0.05458  0.33861  0.01277  Biso   1.000  O
  O29      1.0000 0.80721  0.17302  0.09710  Biso   1.000  O
  O30      1.0000 0.75702  0.16041  0.98841  Biso   1.000  O
  C37      1.0000 0.90600  0.27144  0.79431  Biso   1.000  C
  C38      1.0000 0.90579  0.26224  0.87818  Biso   1.000  C
  C39      1.0000 0.85584  0.22804  0.91352  Biso   1.000  C
  H13      1.0000 0.82030  0.21340  0.88560  Biso   1.000  H
  C40      1.0000 0.85838  0.21558  0.98956  Biso   1.000  C
  C41      1.0000 0.91170  0.23740  0.03101  Biso   1.000  C
  H14      1.0000 0.91380  0.22890  0.08220  Biso   1.000  H
  C42      1.0000 0.96144  0.27159  0.99651  Biso   1.000  C
  C43      1.0000 0.95786  0.28432  0.91946  Biso   1.000  C
  H15      1.0000 0.99100  0.30790  0.89610  Biso   1.000  H
  C44      1.0000 0.80260  0.18078  0.02771  Biso   1.000  C
  C45      1.0000 0.02282  0.29150  0.03888  Biso   1.000  C
  Co6      1.0000 0.38106  0.75775  0.15066  Biso   1.000  Co
  O31      1.0000 0.37099  0.73579  0.25574  Biso   1.000  O
  O32      1.0000 0.44160  0.81272  0.26675  Biso   1.000  O
  O33      1.0000 0.53499  0.75867  0.59771  Biso   1.000  O
  O34      1.0000 0.55458  0.83861  0.51277  Biso   1.000  O
  O35      1.0000 0.30721  0.67302  0.59710  Biso   1.000  O
  O36      1.0000 0.25702  0.66041  0.48841  Biso   1.000  O
  C46      1.0000 0.40600  0.77144  0.29431  Biso   1.000  C
  C47      1.0000 0.40579  0.76224  0.37818  Biso   1.000  C
  C48      1.0000 0.35584  0.72804  0.41352  Biso   1.000  C
  H16      1.0000 0.32030  0.71340  0.38560  Biso   1.000  H
  C49      1.0000 0.35838  0.71558  0.48956  Biso   1.000  C
  C50      1.0000 0.41170  0.73740  0.53101  Biso   1.000  C
  H17      1.0000 0.41380  0.72890  0.58220  Biso   1.000  H
  C51      1.0000 0.46144  0.77159  0.49651  Biso   1.000  C
  C52      1.0000 0.45786  0.78432  0.41946  Biso   1.000  C
  H18      1.0000 0.49100  0.80790  0.39610  Biso   1.000  H
  C53      1.0000 0.30260  0.68078  0.52771  Biso   1.000  C
  C54      1.0000 0.52282  0.79150  0.53888  Biso   1.000  C
  Co7      1.0000 0.11894  0.74225  0.65066  Biso   1.000  Co
  O37      1.0000 0.12901  0.76421  0.75574  Biso   1.000  O
  O38      1.0000 0.05840  0.68728  0.76675  Biso   1.000  O
  O39      1.0000 0.96501  0.74133  0.09771  Biso   1.000  O
  O40      1.0000 0.94542  0.66139  0.01277  Biso   1.000  O
  O41      1.0000 0.19279  0.82698  0.09710  Biso   1.000  O
  O42      1.0000 0.24298  0.83959  0.98841  Biso   1.000  O
  C55      1.0000 0.09400  0.72856  0.79431  Biso   1.000  C
  C56      1.0000 0.09421  0.73776  0.87818  Biso   1.000  C
  C57      1.0000 0.14416  0.77196  0.91352  Biso   1.000  C
  H19      1.0000 0.17970  0.78660  0.88560  Biso   1.000  H
  C58      1.0000 0.14162  0.78442  0.98956  Biso   1.000  C
  C59      1.0000 0.08830  0.76260  0.03101  Biso   1.000  C
  H20      1.0000 0.08620  0.77110  0.08220  Biso   1.000  H
  C60      1.0000 0.03856  0.72841  0.99651  Biso   1.000  C
  C61      1.0000 0.04214  0.71568  0.91946  Biso   1.000  C
  H21      1.0000 0.00900  0.69210  0.89610  Biso   1.000  H
  C62      1.0000 0.19740  0.81922  0.02771  Biso   1.000  C
  C63      1.0000 0.97718  0.70850  0.03888  Biso   1.000  C
  Co8      1.0000 0.61894  0.24225  0.15066  Biso   1.000  Co
  O43      1.0000 0.62901  0.26421  0.25574  Biso   1.000  O
  O44      1.0000 0.55840  0.18728  0.26675  Biso   1.000  O
  O45      1.0000 0.46501  0.24133  0.59771  Biso   1.000  O
  O46      1.0000 0.44542  0.16139  0.51277  Biso   1.000  O
  O47      1.0000 0.69279  0.32698  0.59710  Biso   1.000  O
  O48      1.0000 0.74298  0.33959  0.48841  Biso   1.000  O
  C64      1.0000 0.59400  0.22856  0.29431  Biso   1.000  C
  C65      1.0000 0.59421  0.23776  0.37818  Biso   1.000  C
  C66      1.0000 0.64416  0.27196  0.41352  Biso   1.000  C
  H22      1.0000 0.67970  0.28660  0.38560  Biso   1.000  H
  C67      1.0000 0.64162  0.28442  0.48956  Biso   1.000  C
  C68      1.0000 0.58830  0.26260  0.53101  Biso   1.000  C
  H23      1.0000 0.58620  0.27110  0.58220  Biso   1.000  H
  C69      1.0000 0.53856  0.22841  0.49651  Biso   1.000  C
  C70      1.0000 0.54214  0.21568  0.41946  Biso   1.000  C
  H24      1.0000 0.50900  0.19210  0.39610  Biso   1.000  H
  C71      1.0000 0.69740  0.31922  0.52771  Biso   1.000  C
  C72      1.0000 0.47718  0.20850  0.53888  Biso   1.000  C
  Co9      1.0000 0.25775  0.88106  0.15066  Biso   1.000  Co
  O49      1.0000 0.23579  0.87099  0.25574  Biso   1.000  O
  O50      1.0000 0.31272  0.94160  0.26675  Biso   1.000  O
  O51      1.0000 0.25867  0.03499  0.59771  Biso   1.000  O
  O52      1.0000 0.33861  0.05458  0.51277  Biso   1.000  O
  O53      1.0000 0.17302  0.80721  0.59710  Biso   1.000  O
  O54      1.0000 0.16041  0.75702  0.48841  Biso   1.000  O
  C73      1.0000 0.27144  0.90600  0.29431  Biso   1.000  C
  C74      1.0000 0.26224  0.90579  0.37818  Biso   1.000  C
  C75      1.0000 0.22804  0.85584  0.41352  Biso   1.000  C
  H25      1.0000 0.21340  0.82030  0.38560  Biso   1.000  H
  C76      1.0000 0.21558  0.85838  0.48956  Biso   1.000  C
  C77      1.0000 0.23740  0.91170  0.53101  Biso   1.000  C
  H26      1.0000 0.22890  0.91380  0.58220  Biso   1.000  H
  C78      1.0000 0.27159  0.96144  0.49651  Biso   1.000  C
  C79      1.0000 0.28432  0.95786  0.41946  Biso   1.000  C
  H27      1.0000 0.30790  0.99100  0.39610  Biso   1.000  H
  C80      1.0000 0.18078  0.80260  0.52771  Biso   1.000  C
  C81      1.0000 0.29150  0.02282  0.53888  Biso   1.000  C
  Co10     1.0000 0.75775  0.38106  0.65066  Biso   1.000  Co
  O55      1.0000 0.73579  0.37099  0.75574  Biso   1.000  O
  O56      1.0000 0.81272  0.44160  0.76675  Biso   1.000  O
  O57      1.0000 0.75867  0.53499  0.09771  Biso   1.000  O
  O58      1.0000 0.83861  0.55458  0.01277  Biso   1.000  O
  O59      1.0000 0.67302  0.30721  0.09710  Biso   1.000  O
  O60      1.0000 0.66041  0.25702  0.98841  Biso   1.000  O
  C82      1.0000 0.77144  0.40600  0.79431  Biso   1.000  C
  C83      1.0000 0.76224  0.40579  0.87818  Biso   1.000  C
  C84      1.0000 0.72804  0.35584  0.91352  Biso   1.000  C
  H28      1.0000 0.71340  0.32030  0.88560  Biso   1.000  H
  C85      1.0000 0.71558  0.35838  0.98956  Biso   1.000  C
  C86      1.0000 0.73740  0.41170  0.03101  Biso   1.000  C
  H29      1.0000 0.72890  0.41380  0.08220  Biso   1.000  H
  C87      1.0000 0.77159  0.46144  0.99651  Biso   1.000  C
  C88      1.0000 0.78432  0.45786  0.91946  Biso   1.000  C
  H30      1.0000 0.80790  0.49100  0.89610  Biso   1.000  H
  C89      1.0000 0.68078  0.30260  0.02771  Biso   1.000  C
  C90      1.0000 0.79150  0.52282  0.03888  Biso   1.000  C
  Co11     1.0000 0.74225  0.11894  0.15066  Biso   1.000  Co
  O61      1.0000 0.76421  0.12901  0.25574  Biso   1.000  O
  O62      1.0000 0.68728  0.05840  0.26675  Biso   1.000  O
  O63      1.0000 0.74133  0.96501  0.59771  Biso   1.000  O
  O64      1.0000 0.66139  0.94542  0.51277  Biso   1.000  O
  O65      1.0000 0.82698  0.19279  0.59710  Biso   1.000  O
  O66      1.0000 0.83959  0.24298  0.48841  Biso   1.000  O
  C91      1.0000 0.72856  0.09400  0.29431  Biso   1.000  C
  C92      1.0000 0.73776  0.09421  0.37818  Biso   1.000  C
  C93      1.0000 0.77196  0.14416  0.41352  Biso   1.000  C
  H31      1.0000 0.78660  0.17970  0.38560  Biso   1.000  H
  C94      1.0000 0.78442  0.14162  0.48956  Biso   1.000  C
  C95      1.0000 0.76260  0.08830  0.53101  Biso   1.000  C
  H32      1.0000 0.77110  0.08620  0.58220  Biso   1.000  H
  C96      1.0000 0.72841  0.03856  0.49651  Biso   1.000  C
  C97      1.0000 0.71568  0.04214  0.41946  Biso   1.000  C
  H33      1.0000 0.69210  0.00900  0.39610  Biso   1.000  H
  C98      1.0000 0.81922  0.19740  0.52771  Biso   1.000  C
  C99      1.0000 0.70850  0.97718  0.53888  Biso   1.000  C
  Co12     1.0000 0.24225  0.61894  0.65066  Biso   1.000  Co
  O67      1.0000 0.26421  0.62901  0.75574  Biso   1.000  O
  O68      1.0000 0.18728  0.55840  0.76675  Biso   1.000  O
  O69      1.0000 0.24133  0.46501  0.09771  Biso   1.000  O
  O70      1.0000 0.16139  0.44542  0.01277  Biso   1.000  O
  O71      1.0000 0.32698  0.69279  0.09710  Biso   1.000  O
  O72      1.0000 0.33959  0.74298  0.98841  Biso   1.000  O
  C100     1.0000 0.22856  0.59400  0.79431  Biso   1.000  C
  C101     1.0000 0.23776  0.59421  0.87818  Biso   1.000  C
  C102     1.0000 0.27196  0.64416  0.91352  Biso   1.000  C
  H34      1.0000 0.28660  0.67970  0.88560  Biso   1.000  H
  C103     1.0000 0.28442  0.64162  0.98956  Biso   1.000  C
  C104     1.0000 0.26260  0.58830  0.03101  Biso   1.000  C
  H35      1.0000 0.27110  0.58620  0.08220  Biso   1.000  H
  C105     1.0000 0.22841  0.53856  0.99651  Biso   1.000  C
  C106     1.0000 0.21568  0.54214  0.91946  Biso   1.000  C
  H36      1.0000 0.19210  0.50900  0.89610  Biso   1.000  H
  C107     1.0000 0.31922  0.69740  0.02771  Biso   1.000  C
  C108     1.0000 0.20850  0.47718  0.03888  Biso   1.000  C
  Co13     1.0000 0.88106  0.74225  0.15066  Biso   1.000  Co
  O73      1.0000 0.87099  0.76421  0.25574  Biso   1.000  O
  O74      1.0000 0.94160  0.68728  0.26675  Biso   1.000  O
  O75      1.0000 0.03499  0.74133  0.59771  Biso   1.000  O
  O76      1.0000 0.05458  0.66139  0.51277  Biso   1.000  O
  O77      1.0000 0.80721  0.82698  0.59710  Biso   1.000  O
  O78      1.0000 0.75702  0.83959  0.48841  Biso   1.000  O
  C109     1.0000 0.90600  0.72856  0.29431  Biso   1.000  C
  C110     1.0000 0.90579  0.73776  0.37818  Biso   1.000  C
  C111     1.0000 0.85584  0.77196  0.41352  Biso   1.000  C
  H37      1.0000 0.82030  0.78660  0.38560  Biso   1.000  H
  C112     1.0000 0.85838  0.78442  0.48956  Biso   1.000  C
  C113     1.0000 0.91170  0.76260  0.53101  Biso   1.000  C
  H38      1.0000 0.91380  0.77110  0.58220  Biso   1.000  H
  C114     1.0000 0.96144  0.72841  0.49651  Biso   1.000  C
  C115     1.0000 0.95786  0.71568  0.41946  Biso   1.000  C
  H39      1.0000 0.99100  0.69210  0.39610  Biso   1.000  H
  C116     1.0000 0.80260  0.81922  0.52771  Biso   1.000  C
  C117     1.0000 0.02282  0.70850  0.53888  Biso   1.000  C
  Co14     1.0000 0.38106  0.24225  0.65066  Biso   1.000  Co
  O79      1.0000 0.37099  0.26421  0.75574  Biso   1.000  O
  O80      1.0000 0.44160  0.18728  0.76675  Biso   1.000  O
  O81      1.0000 0.53499  0.24133  0.09771  Biso   1.000  O
  O82      1.0000 0.55458  0.16139  0.01277  Biso   1.000  O
  O83      1.0000 0.30721  0.32698  0.09710  Biso   1.000  O
  O84      1.0000 0.25702  0.33959  0.98841  Biso   1.000  O
  C118     1.0000 0.40600  0.22856  0.79431  Biso   1.000  C
  C119     1.0000 0.40579  0.23776  0.87818  Biso   1.000  C
  C120     1.0000 0.35584  0.27196  0.91352  Biso   1.000  C
  H40      1.0000 0.32030  0.28660  0.88560  Biso   1.000  H
  C121     1.0000 0.35838  0.28442  0.98956  Biso   1.000  C
  C122     1.0000 0.41170  0.26260  0.03101  Biso   1.000  C
  H41      1.0000 0.41380  0.27110  0.08220  Biso   1.000  H
  C123     1.0000 0.46144  0.22841  0.99651  Biso   1.000  C
  C124     1.0000 0.45786  0.21568  0.91946  Biso   1.000  C
  H42      1.0000 0.49100  0.19210  0.89610  Biso   1.000  H
  C125     1.0000 0.30260  0.31922  0.02771  Biso   1.000  C
  C126     1.0000 0.52282  0.20850  0.03888  Biso   1.000  C
  Co15     1.0000 0.11894  0.25775  0.15066  Biso   1.000  Co
  O85      1.0000 0.12901  0.23579  0.25574  Biso   1.000  O
  O86      1.0000 0.05840  0.31272  0.26675  Biso   1.000  O
  O87      1.0000 0.96501  0.25867  0.59771  Biso   1.000  O
  O88      1.0000 0.94542  0.33861  0.51277  Biso   1.000  O
  O89      1.0000 0.19279  0.17302  0.59710  Biso   1.000  O
  O90      1.0000 0.24298  0.16041  0.48841  Biso   1.000  O
  C127     1.0000 0.09400  0.27144  0.29431  Biso   1.000  C
  C128     1.0000 0.09421  0.26224  0.37818  Biso   1.000  C
  C129     1.0000 0.14416  0.22804  0.41352  Biso   1.000  C
  H43      1.0000 0.17970  0.21340  0.38560  Biso   1.000  H
  C130     1.0000 0.14162  0.21558  0.48956  Biso   1.000  C
  C131     1.0000 0.08830  0.23740  0.53101  Biso   1.000  C
  H44      1.0000 0.08620  0.22890  0.58220  Biso   1.000  H
  C132     1.0000 0.03856  0.27159  0.49651  Biso   1.000  C
  C133     1.0000 0.04214  0.28432  0.41946  Biso   1.000  C
  H45      1.0000 0.00900  0.30790  0.39610  Biso   1.000  H
  C134     1.0000 0.19740  0.18078  0.52771  Biso   1.000  C
  C135     1.0000 0.97718  0.29150  0.53888  Biso   1.000  C
  Co16     1.0000 0.61894  0.75775  0.65066  Biso   1.000  Co
  O91      1.0000 0.62901  0.73579  0.75574  Biso   1.000  O
  O92      1.0000 0.55840  0.81272  0.76675  Biso   1.000  O
  O93      1.0000 0.46501  0.75867  0.09771  Biso   1.000  O
  O94      1.0000 0.44542  0.83861  0.01277  Biso   1.000  O
  O95      1.0000 0.69279  0.67302  0.09710  Biso   1.000  O
  O96      1.0000 0.74298  0.66041  0.98841  Biso   1.000  O
  C136     1.0000 0.59400  0.77144  0.79431  Biso   1.000  C
  C137     1.0000 0.59421  0.76224  0.87818  Biso   1.000  C
  C138     1.0000 0.64416  0.72804  0.91352  Biso   1.000  C
  H46      1.0000 0.67970  0.71340  0.88560  Biso   1.000  H
  C139     1.0000 0.64162  0.71558  0.98956  Biso   1.000  C
  C140     1.0000 0.58830  0.73740  0.03101  Biso   1.000  C
  H47      1.0000 0.58620  0.72890  0.08220  Biso   1.000  H
  C141     1.0000 0.53856  0.77159  0.99651  Biso   1.000  C
  C142     1.0000 0.54214  0.78432  0.91946  Biso   1.000  C
  H48      1.0000 0.50900  0.80790  0.89610  Biso   1.000  H
  C143     1.0000 0.69740  0.68078  0.02771  Biso   1.000  C
  C144     1.0000 0.47718  0.79150  0.03888  Biso   1.000  C
  Zn1      1.0000 0.34410  0.15590  0.50450  Biso   1.000  Zn
  O97      1.0000 0.34076  0.15924  0.62375  Biso   1.000  O
  Zn2      1.0000 0.65590  0.84410  0.50450  Biso   1.000  Zn
  O98      1.0000 0.65924  0.84076  0.62375  Biso   1.000  O
  Zn3      1.0000 0.15590  0.34410  0.00450  Biso   1.000  Zn
  O99      1.0000 0.15924  0.34076  0.12375  Biso   1.000  O
  Zn4      1.0000 0.84410  0.34410  0.50450  Biso   1.000  Zn
  O100     1.0000 0.84076  0.34076  0.62375  Biso   1.000  O
  Zn5      1.0000 0.15590  0.65590  0.50450  Biso   1.000  Zn
  O101     1.0000 0.15924  0.65924  0.62375  Biso   1.000  O
  Zn6      1.0000 0.34410  0.84410  0.00450  Biso   1.000  Zn
  O102     1.0000 0.34076  0.84076  0.12375  Biso   1.000  O
  Zn7      1.0000 0.65590  0.15590  0.00450  Biso   1.000  Zn
  O103     1.0000 0.65924  0.15924  0.12375  Biso   1.000  O
  Zn8      1.0000 0.84410  0.65590  0.00450  Biso   1.000  Zn
  O104     1.0000 0.84076  0.65924  0.12375  Biso   1.000  O
