data_image0
_cell_length_a       20.6013
_cell_length_b       20.6013
_cell_length_c       17.8183
_cell_angle_alpha    90
_cell_angle_beta     90
_cell_angle_gamma    90

_symmetry_space_group_name_H-M    "P 1"
_symmetry_int_tables_number       1

loop_
  _symmetry_equiv_pos_as_xyz
  'x, y, z'

loop_
  _atom_site_label
  _atom_site_occupancy
  _atom_site_fract_x
  _atom_site_fract_y
  _atom_site_fract_z
  _atom_site_thermal_displace_type
  _atom_site_B_iso_or_equiv
  _atom_site_type_symbol
  Zn1      1.0000 0.25839  0.11894  0.46489  Biso   1.000  Zn
  O1       1.0000 0.24188  0.15940  0.30093  Biso   1.000  O
  O2       1.0000 0.19325  0.17236  0.41082  Biso   1.000  O
  O3       1.0000 0.12685  0.23570  0.07016  Biso   1.000  O
  O4       1.0000 0.05610  0.31370  0.08361  Biso   1.000  O
  O5       1.0000 0.96597  0.25680  0.41430  Biso   1.000  O
  O6       1.0000 0.94668  0.33768  0.33099  Biso   1.000  O
  C1       1.0000 0.19670  0.17950  0.34230  Biso   1.000  C
  C2       1.0000 0.14090  0.21520  0.30370  Biso   1.000  C
  C3       1.0000 0.14380  0.22710  0.22900  Biso   1.000  C
  H1       1.0000 0.17920  0.21270  0.20120  Biso   1.000  H
  C4       1.0000 0.09320  0.26150  0.19350  Biso   1.000  C
  C5       1.0000 0.04041  0.28464  0.23549  Biso   1.000  C
  H2       1.0000 0.00740  0.30850  0.21300  Biso   1.000  H
  C6       1.0000 0.03898  0.27050  0.31280  Biso   1.000  C
  C7       1.0000 0.08768  0.23590  0.34730  Biso   1.000  C
  H3       1.0000 0.08550  0.22640  0.39820  Biso   1.000  H
  C8       1.0000 0.09180  0.27200  0.10990  Biso   1.000  C
  C9       1.0000 0.97840  0.29150  0.35630  Biso   1.000  C
  Zn2      1.0000 0.75839  0.61894  0.96489  Biso   1.000  Zn
  O7       1.0000 0.74188  0.65940  0.80093  Biso   1.000  O
  O8       1.0000 0.69325  0.67236  0.91082  Biso   1.000  O
  O9       1.0000 0.62685  0.73570  0.57016  Biso   1.000  O
  O10      1.0000 0.55610  0.81370  0.58361  Biso   1.000  O
  O11      1.0000 0.46597  0.75680  0.91430  Biso   1.000  O
  O12      1.0000 0.44668  0.83768  0.83099  Biso   1.000  O
  C10      1.0000 0.69670  0.67950  0.84230  Biso   1.000  C
  C11      1.0000 0.64090  0.71520  0.80370  Biso   1.000  C
  C12      1.0000 0.64380  0.72710  0.72900  Biso   1.000  C
  H4       1.0000 0.67920  0.71270  0.70120  Biso   1.000  H
  C13      1.0000 0.59320  0.76150  0.69350  Biso   1.000  C
  C14      1.0000 0.54041  0.78464  0.73549  Biso   1.000  C
  H5       1.0000 0.50740  0.80850  0.71300  Biso   1.000  H
  C15      1.0000 0.53898  0.77050  0.81280  Biso   1.000  C
  C16      1.0000 0.58768  0.73590  0.84730  Biso   1.000  C
  H6       1.0000 0.58550  0.72640  0.89820  Biso   1.000  H
  C17      1.0000 0.59180  0.77200  0.60990  Biso   1.000  C
  C18      1.0000 0.47840  0.79150  0.85630  Biso   1.000  C
  Zn3      1.0000 0.74161  0.88106  0.46489  Biso   1.000  Zn
  O13      1.0000 0.75812  0.84060  0.30093  Biso   1.000  O
  O14      1.0000 0.80675  0.82764  0.41082  Biso   1.000  O
  O15      1.0000 0.87315  0.76430  0.07016  Biso   1.000  O
  O16      1.0000 0.94390  0.68630  0.08361  Biso   1.000  O
  O17      1.0000 0.03403  0.74320  0.41430  Biso   1.000  O
  O18      1.0000 0.05332  0.66232  0.33099  Biso   1.000  O
  C19      1.0000 0.80330  0.82050  0.34230  Biso   1.000  C
  C20      1.0000 0.85910  0.78480  0.30370  Biso   1.000  C
  C21      1.0000 0.85620  0.77290  0.22900  Biso   1.000  C
  H7       1.0000 0.82080  0.78730  0.20120  Biso   1.000  H
  C22      1.0000 0.90680  0.73850  0.19350  Biso   1.000  C
  C23      1.0000 0.95959  0.71536  0.23549  Biso   1.000  C
  H8       1.0000 0.99260  0.69150  0.21300  Biso   1.000  H
  C24      1.0000 0.96102  0.72950  0.31280  Biso   1.000  C
  C25      1.0000 0.91232  0.76410  0.34730  Biso   1.000  C
  H9       1.0000 0.91450  0.77360  0.39820  Biso   1.000  H
  C26      1.0000 0.90820  0.72800  0.10990  Biso   1.000  C
  C27      1.0000 0.02160  0.70850  0.35630  Biso   1.000  C
  Zn4      1.0000 0.24161  0.38106  0.96489  Biso   1.000  Zn
  O19      1.0000 0.25812  0.34060  0.80093  Biso   1.000  O
  O20      1.0000 0.30675  0.32764  0.91082  Biso   1.000  O
  O21      1.0000 0.37315  0.26430  0.57016  Biso   1.000  O
  O22      1.0000 0.44390  0.18630  0.58361  Biso   1.000  O
  O23      1.0000 0.53403  0.24320  0.91430  Biso   1.000  O
  O24      1.0000 0.55332  0.16232  0.83099  Biso   1.000  O
  C28      1.0000 0.30330  0.32050  0.84230  Biso   1.000  C
  C29      1.0000 0.35910  0.28480  0.80370  Biso   1.000  C
  C30      1.0000 0.35620  0.27290  0.72900  Biso   1.000  C
  H10      1.0000 0.32080  0.28730  0.70120  Biso   1.000  H
  C31      1.0000 0.40680  0.23850  0.69350  Biso   1.000  C
  C32      1.0000 0.45959  0.21536  0.73549  Biso   1.000  C
  H11      1.0000 0.49260  0.19150  0.71300  Biso   1.000  H
  C33      1.0000 0.46102  0.22950  0.81280  Biso   1.000  C
  C34      1.0000 0.41232  0.26410  0.84730  Biso   1.000  C
  H12      1.0000 0.41450  0.27360  0.89820  Biso   1.000  H
  C35      1.0000 0.40820  0.22800  0.60990  Biso   1.000  C
  C36      1.0000 0.52160  0.20850  0.85630  Biso   1.000  C
  Zn5      1.0000 0.88106  0.25839  0.46489  Biso   1.000  Zn
  O25      1.0000 0.84060  0.24188  0.30093  Biso   1.000  O
  O26      1.0000 0.82764  0.19325  0.41082  Biso   1.000  O
  O27      1.0000 0.76430  0.12685  0.07016  Biso   1.000  O
  O28      1.0000 0.68630  0.05610  0.08361  Biso   1.000  O
  O29      1.0000 0.74320  0.96597  0.41430  Biso   1.000  O
  O30      1.0000 0.66232  0.94668  0.33099  Biso   1.000  O
  C37      1.0000 0.82050  0.19670  0.34230  Biso   1.000  C
  C38      1.0000 0.78480  0.14090  0.30370  Biso   1.000  C
  C39      1.0000 0.77290  0.14380  0.22900  Biso   1.000  C
  H13      1.0000 0.78730  0.17920  0.20120  Biso   1.000  H
  C40      1.0000 0.73850  0.09320  0.19350  Biso   1.000  C
  C41      1.0000 0.71536  0.04041  0.23549  Biso   1.000  C
  H14      1.0000 0.69150  0.00740  0.21300  Biso   1.000  H
  C42      1.0000 0.72950  0.03898  0.31280  Biso   1.000  C
  C43      1.0000 0.76410  0.08768  0.34730  Biso   1.000  C
  H15      1.0000 0.77360  0.08550  0.39820  Biso   1.000  H
  C44      1.0000 0.72800  0.09180  0.10990  Biso   1.000  C
  C45      1.0000 0.70850  0.97840  0.35630  Biso   1.000  C
  Zn6      1.0000 0.38106  0.75839  0.96489  Biso   1.000  Zn
  O31      1.0000 0.34060  0.74188  0.80093  Biso   1.000  O
  O32      1.0000 0.32764  0.69325  0.91082  Biso   1.000  O
  O33      1.0000 0.26430  0.62685  0.57016  Biso   1.000  O
  O34      1.0000 0.18630  0.55610  0.58361  Biso   1.000  O
  O35      1.0000 0.24320  0.46597  0.91430  Biso   1.000  O
  O36      1.0000 0.16232  0.44668  0.83099  Biso   1.000  O
  C46      1.0000 0.32050  0.69670  0.84230  Biso   1.000  C
  C47      1.0000 0.28480  0.64090  0.80370  Biso   1.000  C
  C48      1.0000 0.27290  0.64380  0.72900  Biso   1.000  C
  H16      1.0000 0.28730  0.67920  0.70120  Biso   1.000  H
  C49      1.0000 0.23850  0.59320  0.69350  Biso   1.000  C
  C50      1.0000 0.21536  0.54041  0.73549  Biso   1.000  C
  H17      1.0000 0.19150  0.50740  0.71300  Biso   1.000  H
  C51      1.0000 0.22950  0.53898  0.81280  Biso   1.000  C
  C52      1.0000 0.26410  0.58768  0.84730  Biso   1.000  C
  H18      1.0000 0.27360  0.58550  0.89820  Biso   1.000  H
  C53      1.0000 0.22800  0.59180  0.60990  Biso   1.000  C
  C54      1.0000 0.20850  0.47840  0.85630  Biso   1.000  C
  Zn7      1.0000 0.11894  0.74161  0.46489  Biso   1.000  Zn
  O37      1.0000 0.15940  0.75812  0.30093  Biso   1.000  O
  O38      1.0000 0.17236  0.80675  0.41082  Biso   1.000  O
  O39      1.0000 0.23570  0.87315  0.07016  Biso   1.000  O
  O40      1.0000 0.31370  0.94390  0.08361  Biso   1.000  O
  O41      1.0000 0.25680  0.03403  0.41430  Biso   1.000  O
  O42      1.0000 0.33768  0.05332  0.33099  Biso   1.000  O
  C55      1.0000 0.17950  0.80330  0.34230  Biso   1.000  C
  C56      1.0000 0.21520  0.85910  0.30370  Biso   1.000  C
  C57      1.0000 0.22710  0.85620  0.22900  Biso   1.000  C
  H19      1.0000 0.21270  0.82080  0.20120  Biso   1.000  H
  C58      1.0000 0.26150  0.90680  0.19350  Biso   1.000  C
  C59      1.0000 0.28464  0.95959  0.23549  Biso   1.000  C
  H20      1.0000 0.30850  0.99260  0.21300  Biso   1.000  H
  C60      1.0000 0.27050  0.96102  0.31280  Biso   1.000  C
  C61      1.0000 0.23590  0.91232  0.34730  Biso   1.000  C
  H21      1.0000 0.22640  0.91450  0.39820  Biso   1.000  H
  C62      1.0000 0.27200  0.90820  0.10990  Biso   1.000  C
  C63      1.0000 0.29150  0.02160  0.35630  Biso   1.000  C
  Zn8      1.0000 0.61894  0.24161  0.96489  Biso   1.000  Zn
  O43      1.0000 0.65940  0.25812  0.80093  Biso   1.000  O
  O44      1.0000 0.67236  0.30675  0.91082  Biso   1.000  O
  O45      1.0000 0.73570  0.37315  0.57016  Biso   1.000  O
  O46      1.0000 0.81370  0.44390  0.58361  Biso   1.000  O
  O47      1.0000 0.75680  0.53403  0.91430  Biso   1.000  O
  O48      1.0000 0.83768  0.55332  0.83099  Biso   1.000  O
  C64      1.0000 0.67950  0.30330  0.84230  Biso   1.000  C
  C65      1.0000 0.71520  0.35910  0.80370  Biso   1.000  C
  C66      1.0000 0.72710  0.35620  0.72900  Biso   1.000  C
  H22      1.0000 0.71270  0.32080  0.70120  Biso   1.000  H
  C67      1.0000 0.76150  0.40680  0.69350  Biso   1.000  C
  C68      1.0000 0.78464  0.45959  0.73549  Biso   1.000  C
  H23      1.0000 0.80850  0.49260  0.71300  Biso   1.000  H
  C69      1.0000 0.77050  0.46102  0.81280  Biso   1.000  C
  C70      1.0000 0.73590  0.41232  0.84730  Biso   1.000  C
  H24      1.0000 0.72640  0.41450  0.89820  Biso   1.000  H
  C71      1.0000 0.77200  0.40820  0.60990  Biso   1.000  C
  C72      1.0000 0.79150  0.52160  0.85630  Biso   1.000  C
  Zn9      1.0000 0.25839  0.88106  0.96489  Biso   1.000  Zn
  O49      1.0000 0.24188  0.84060  0.80093  Biso   1.000  O
  O50      1.0000 0.19325  0.82764  0.91082  Biso   1.000  O
  O51      1.0000 0.12685  0.76430  0.57016  Biso   1.000  O
  O52      1.0000 0.05610  0.68630  0.58361  Biso   1.000  O
  O53      1.0000 0.96597  0.74320  0.91430  Biso   1.000  O
  O54      1.0000 0.94668  0.66232  0.83099  Biso   1.000  O
  C73      1.0000 0.19670  0.82050  0.84230  Biso   1.000  C
  C74      1.0000 0.14090  0.78480  0.80370  Biso   1.000  C
  C75      1.0000 0.14380  0.77290  0.72900  Biso   1.000  C
  H25      1.0000 0.17920  0.78730  0.70120  Biso   1.000  H
  C76      1.0000 0.09320  0.73850  0.69350  Biso   1.000  C
  C77      1.0000 0.04041  0.71536  0.73549  Biso   1.000  C
  H26      1.0000 0.00740  0.69150  0.71300  Biso   1.000  H
  C78      1.0000 0.03898  0.72950  0.81280  Biso   1.000  C
  C79      1.0000 0.08768  0.76410  0.84730  Biso   1.000  C
  H27      1.0000 0.08550  0.77360  0.89820  Biso   1.000  H
  C80      1.0000 0.09180  0.72800  0.60990  Biso   1.000  C
  C81      1.0000 0.97840  0.70850  0.85630  Biso   1.000  C
  Zn10     1.0000 0.75839  0.38106  0.46489  Biso   1.000  Zn
  O55      1.0000 0.74188  0.34060  0.30093  Biso   1.000  O
  O56      1.0000 0.69325  0.32764  0.41082  Biso   1.000  O
  O57      1.0000 0.62685  0.26430  0.07016  Biso   1.000  O
  O58      1.0000 0.55610  0.18630  0.08361  Biso   1.000  O
  O59      1.0000 0.46597  0.24320  0.41430  Biso   1.000  O
  O60      1.0000 0.44668  0.16232  0.33099  Biso   1.000  O
  C82      1.0000 0.69670  0.32050  0.34230  Biso   1.000  C
  C83      1.0000 0.64090  0.28480  0.30370  Biso   1.000  C
  C84      1.0000 0.64380  0.27290  0.22900  Biso   1.000  C
  H28      1.0000 0.67920  0.28730  0.20120  Biso   1.000  H
  C85      1.0000 0.59320  0.23850  0.19350  Biso   1.000  C
  C86      1.0000 0.54041  0.21536  0.23549  Biso   1.000  C
  H29      1.0000 0.50740  0.19150  0.21300  Biso   1.000  H
  C87      1.0000 0.53898  0.22950  0.31280  Biso   1.000  C
  C88      1.0000 0.58768  0.26410  0.34730  Biso   1.000  C
  H30      1.0000 0.58550  0.27360  0.39820  Biso   1.000  H
  C89      1.0000 0.59180  0.22800  0.10990  Biso   1.000  C
  C90      1.0000 0.47840  0.20850  0.35630  Biso   1.000  C
  Zn11     1.0000 0.74161  0.11894  0.96489  Biso   1.000  Zn
  O61      1.0000 0.75812  0.15940  0.80093  Biso   1.000  O
  O62      1.0000 0.80675  0.17236  0.91082  Biso   1.000  O
  O63      1.0000 0.87315  0.23570  0.57016  Biso   1.000  O
  O64      1.0000 0.94390  0.31370  0.58361  Biso   1.000  O
  O65      1.0000 0.03403  0.25680  0.91430  Biso   1.000  O
  O66      1.0000 0.05332  0.33768  0.83099  Biso   1.000  O
  C91      1.0000 0.80330  0.17950  0.84230  Biso   1.000  C
  C92      1.0000 0.85910  0.21520  0.80370  Biso   1.000  C
  C93      1.0000 0.85620  0.22710  0.72900  Biso   1.000  C
  H31      1.0000 0.82080  0.21270  0.70120  Biso   1.000  H
  C94      1.0000 0.90680  0.26150  0.69350  Biso   1.000  C
  C95      1.0000 0.95959  0.28464  0.73549  Biso   1.000  C
  H32      1.0000 0.99260  0.30850  0.71300  Biso   1.000  H
  C96      1.0000 0.96102  0.27050  0.81280  Biso   1.000  C
  C97      1.0000 0.91232  0.23590  0.84730  Biso   1.000  C
  H33      1.0000 0.91450  0.22640  0.89820  Biso   1.000  H
  C98      1.0000 0.90820  0.27200  0.60990  Biso   1.000  C
  C99      1.0000 0.02160  0.29150  0.85630  Biso   1.000  C
  Zn12     1.0000 0.24161  0.61894  0.46489  Biso   1.000  Zn
  O67      1.0000 0.25812  0.65940  0.30093  Biso   1.000  O
  O68      1.0000 0.30675  0.67236  0.41082  Biso   1.000  O
  O69      1.0000 0.37315  0.73570  0.07016  Biso   1.000  O
  O70      1.0000 0.44390  0.81370  0.08361  Biso   1.000  O
  O71      1.0000 0.53403  0.75680  0.41430  Biso   1.000  O
  O72      1.0000 0.55332  0.83768  0.33099  Biso   1.000  O
  C100     1.0000 0.30330  0.67950  0.34230  Biso   1.000  C
  C101     1.0000 0.35910  0.71520  0.30370  Biso   1.000  C
  C102     1.0000 0.35620  0.72710  0.22900  Biso   1.000  C
  H34      1.0000 0.32080  0.71270  0.20120  Biso   1.000  H
  C103     1.0000 0.40680  0.76150  0.19350  Biso   1.000  C
  C104     1.0000 0.45959  0.78464  0.23549  Biso   1.000  C
  H35      1.0000 0.49260  0.80850  0.21300  Biso   1.000  H
  C105     1.0000 0.46102  0.77050  0.31280  Biso   1.000  C
  C106     1.0000 0.41232  0.73590  0.34730  Biso   1.000  C
  H36      1.0000 0.41450  0.72640  0.39820  Biso   1.000  H
  C107     1.0000 0.40820  0.77200  0.10990  Biso   1.000  C
  C108     1.0000 0.52160  0.79150  0.35630  Biso   1.000  C
  Zn13     1.0000 0.88106  0.74161  0.96489  Biso   1.000  Zn
  O73      1.0000 0.84060  0.75812  0.80093  Biso   1.000  O
  O74      1.0000 0.82764  0.80675  0.91082  Biso   1.000  O
  O75      1.0000 0.76430  0.87315  0.57016  Biso   1.000  O
  O76      1.0000 0.68630  0.94390  0.58361  Biso   1.000  O
  O77      1.0000 0.74320  0.03403  0.91430  Biso   1.000  O
  O78      1.0000 0.66232  0.05332  0.83099  Biso   1.000  O
  C109     1.0000 0.82050  0.80330  0.84230  Biso   1.000  C
  C110     1.0000 0.78480  0.85910  0.80370  Biso   1.000  C
  C111     1.0000 0.77290  0.85620  0.72900  Biso   1.000  C
  H37      1.0000 0.78730  0.82080  0.70120  Biso   1.000  H
  C112     1.0000 0.73850  0.90680  0.69350  Biso   1.000  C
  C113     1.0000 0.71536  0.95959  0.73549  Biso   1.000  C
  H38      1.0000 0.69150  0.99260  0.71300  Biso   1.000  H
  C114     1.0000 0.72950  0.96102  0.81280  Biso   1.000  C
  C115     1.0000 0.76410  0.91232  0.84730  Biso   1.000  C
  H39      1.0000 0.77360  0.91450  0.89820  Biso   1.000  H
  C116     1.0000 0.72800  0.90820  0.60990  Biso   1.000  C
  C117     1.0000 0.70850  0.02160  0.85630  Biso   1.000  C
  Zn14     1.0000 0.38106  0.24161  0.46489  Biso   1.000  Zn
  O79      1.0000 0.34060  0.25812  0.30093  Biso   1.000  O
  O80      1.0000 0.32764  0.30675  0.41082  Biso   1.000  O
  O81      1.0000 0.26430  0.37315  0.07016  Biso   1.000  O
  O82      1.0000 0.18630  0.44390  0.08361  Biso   1.000  O
  O83      1.0000 0.24320  0.53403  0.41430  Biso   1.000  O
  O84      1.0000 0.16232  0.55332  0.33099  Biso   1.000  O
  C118     1.0000 0.32050  0.30330  0.34230  Biso   1.000  C
  C119     1.0000 0.28480  0.35910  0.30370  Biso   1.000  C
  C120     1.0000 0.27290  0.35620  0.22900  Biso   1.000  C
  H40      1.0000 0.28730  0.32080  0.20120  Biso   1.000  H
  C121     1.0000 0.23850  0.40680  0.19350  Biso   1.000  C
  C122     1.0000 0.21536  0.45959  0.23549  Biso   1.000  C
  H41      1.0000 0.19150  0.49260  0.21300  Biso   1.000  H
  C123     1.0000 0.22950  0.46102  0.31280  Biso   1.000  C
  C124     1.0000 0.26410  0.41232  0.34730  Biso   1.000  C
  H42      1.0000 0.27360  0.41450  0.39820  Biso   1.000  H
  C125     1.0000 0.22800  0.40820  0.10990  Biso   1.000  C
  C126     1.0000 0.20850  0.52160  0.35630  Biso   1.000  C
  Zn15     1.0000 0.11894  0.25839  0.96489  Biso   1.000  Zn
  O85      1.0000 0.15940  0.24188  0.80093  Biso   1.000  O
  O86      1.0000 0.17236  0.19325  0.91082  Biso   1.000  O
  O87      1.0000 0.23570  0.12685  0.57016  Biso   1.000  O
  O88      1.0000 0.31370  0.05610  0.58361  Biso   1.000  O
  O89      1.0000 0.25680  0.96597  0.91430  Biso   1.000  O
  O90      1.0000 0.33768  0.94668  0.83099  Biso   1.000  O
  C127     1.0000 0.17950  0.19670  0.84230  Biso   1.000  C
  C128     1.0000 0.21520  0.14090  0.80370  Biso   1.000  C
  C129     1.0000 0.22710  0.14380  0.72900  Biso   1.000  C
  H43      1.0000 0.21270  0.17920  0.70120  Biso   1.000  H
  C130     1.0000 0.26150  0.09320  0.69350  Biso   1.000  C
  C131     1.0000 0.28464  0.04041  0.73549  Biso   1.000  C
  H44      1.0000 0.30850  0.00740  0.71300  Biso   1.000  H
  C132     1.0000 0.27050  0.03898  0.81280  Biso   1.000  C
  C133     1.0000 0.23590  0.08768  0.84730  Biso   1.000  C
  H45      1.0000 0.22640  0.08550  0.89820  Biso   1.000  H
  C134     1.0000 0.27200  0.09180  0.60990  Biso   1.000  C
  C135     1.0000 0.29150  0.97840  0.85630  Biso   1.000  C
  Zn16     1.0000 0.61894  0.75839  0.46489  Biso   1.000  Zn
  O91      1.0000 0.65940  0.74188  0.30093  Biso   1.000  O
  O92      1.0000 0.67236  0.69325  0.41082  Biso   1.000  O
  O93      1.0000 0.73570  0.62685  0.07016  Biso   1.000  O
  O94      1.0000 0.81370  0.55610  0.08361  Biso   1.000  O
  O95      1.0000 0.75680  0.46597  0.41430  Biso   1.000  O
  O96      1.0000 0.83768  0.44668  0.33099  Biso   1.000  O
  C136     1.0000 0.67950  0.69670  0.34230  Biso   1.000  C
  C137     1.0000 0.71520  0.64090  0.30370  Biso   1.000  C
  C138     1.0000 0.72710  0.64380  0.22900  Biso   1.000  C
  H46      1.0000 0.71270  0.67920  0.20120  Biso   1.000  H
  C139     1.0000 0.76150  0.59320  0.19350  Biso   1.000  C
  C140     1.0000 0.78464  0.54041  0.23549  Biso   1.000  C
  H47      1.0000 0.80850  0.50740  0.21300  Biso   1.000  H
  C141     1.0000 0.77050  0.53898  0.31280  Biso   1.000  C
  C142     1.0000 0.73590  0.58768  0.34730  Biso   1.000  C
  H48      1.0000 0.72640  0.58550  0.39820  Biso   1.000  H
  C143     1.0000 0.77200  0.59180  0.10990  Biso   1.000  C
  C144     1.0000 0.79150  0.47840  0.35630  Biso   1.000  C
  Cd1      1.0000 0.34589  0.15411  0.31584  Biso   1.000  Cd
  O97      1.0000 0.34011  0.15989  0.43730  Biso   1.000  O
  Cd2      1.0000 0.65411  0.84589  0.31584  Biso   1.000  Cd
  O98      1.0000 0.65989  0.84011  0.43730  Biso   1.000  O
  Cd3      1.0000 0.15411  0.34589  0.81584  Biso   1.000  Cd
  O99      1.0000 0.15989  0.34011  0.93730  Biso   1.000  O
  Cd4      1.0000 0.84589  0.34589  0.31584  Biso   1.000  Cd
  O100     1.0000 0.84011  0.34011  0.43730  Biso   1.000  O
  Cd5      1.0000 0.15411  0.65411  0.31584  Biso   1.000  Cd
  O101     1.0000 0.15989  0.65989  0.43730  Biso   1.000  O
  Cd6      1.0000 0.34589  0.84589  0.81584  Biso   1.000  Cd
  O102     1.0000 0.34011  0.84011  0.93730  Biso   1.000  O
  Cd7      1.0000 0.65411  0.15411  0.81584  Biso   1.000  Cd
  O103     1.0000 0.65989  0.15989  0.93730  Biso   1.000  O
  Cd8      1.0000 0.84589  0.65411  0.81584  Biso   1.000  Cd
  O104     1.0000 0.84011  0.65989  0.93730  Biso   1.000  O
