data_image0
_cell_length_a       17.1006
_cell_length_b       17.1006
_cell_length_c       10.7525
_cell_angle_alpha    90
_cell_angle_beta     90
_cell_angle_gamma    90

_symmetry_space_group_name_H-M    "P 1"
_symmetry_int_tables_number       1

loop_
  _symmetry_equiv_pos_as_xyz
  'x, y, z'

loop_
  _atom_site_label
  _atom_site_occupancy
  _atom_site_fract_x
  _atom_site_fract_y
  _atom_site_fract_z
  _atom_site_thermal_displace_type
  _atom_site_B_iso_or_equiv
  _atom_site_type_symbol
  W1       1.0000 0.30815  0.58802  0.05378  Biso   1.000  W
  P1       1.0000 0.13448  0.66721  0.05305  Biso   1.000  P
  O1       1.0000 0.39990  0.54270  0.08410  Biso   1.000  O
  O2       1.0000 0.20360  0.63220  0.97680  Biso   1.000  O
  O3       1.0000 0.31900  0.67630  0.13930  Biso   1.000  O
  O4       1.0000 0.28370  0.50120  0.91560  Biso   1.000  O
  O5       1.0000 0.10760  0.60490  0.14960  Biso   1.000  O
  O6       1.0000 0.15960  0.74240  0.11770  Biso   1.000  O
  O7       1.0000 0.06640  0.67860  0.96620  Biso   1.000  O
  W2       1.0000 0.80815  0.08802  0.55378  Biso   1.000  W
  P2       1.0000 0.63448  0.16721  0.55305  Biso   1.000  P
  O8       1.0000 0.89990  0.04270  0.58410  Biso   1.000  O
  O9       1.0000 0.70360  0.13220  0.47680  Biso   1.000  O
  O10      1.0000 0.81900  0.17630  0.63930  Biso   1.000  O
  O11      1.0000 0.78370  0.00120  0.41560  Biso   1.000  O
  O12      1.0000 0.60760  0.10490  0.64960  Biso   1.000  O
  O13      1.0000 0.65960  0.24240  0.61770  Biso   1.000  O
  O14      1.0000 0.56640  0.17860  0.46620  Biso   1.000  O
  W3       1.0000 0.19185  0.41198  0.55378  Biso   1.000  W
  P3       1.0000 0.36552  0.33279  0.55305  Biso   1.000  P
  O15      1.0000 0.10010  0.45730  0.58410  Biso   1.000  O
  O16      1.0000 0.29640  0.36780  0.47680  Biso   1.000  O
  O17      1.0000 0.18100  0.32370  0.63930  Biso   1.000  O
  O18      1.0000 0.21630  0.49880  0.41560  Biso   1.000  O
  O19      1.0000 0.39240  0.39510  0.64960  Biso   1.000  O
  O20      1.0000 0.34040  0.25760  0.61770  Biso   1.000  O
  O21      1.0000 0.43360  0.32140  0.46620  Biso   1.000  O
  W4       1.0000 0.69185  0.91198  0.05378  Biso   1.000  W
  P4       1.0000 0.86552  0.83279  0.05305  Biso   1.000  P
  O22      1.0000 0.60010  0.95730  0.08410  Biso   1.000  O
  O23      1.0000 0.79640  0.86780  0.97680  Biso   1.000  O
  O24      1.0000 0.68100  0.82370  0.13930  Biso   1.000  O
  O25      1.0000 0.71630  0.99880  0.91560  Biso   1.000  O
  O26      1.0000 0.89240  0.89510  0.14960  Biso   1.000  O
  O27      1.0000 0.84040  0.75760  0.11770  Biso   1.000  O
  O28      1.0000 0.93360  0.82140  0.96620  Biso   1.000  O
  W5       1.0000 0.16198  0.55815  0.30378  Biso   1.000  W
  P5       1.0000 0.08279  0.38448  0.30305  Biso   1.000  P
  O29      1.0000 0.20730  0.64990  0.33410  Biso   1.000  O
  O30      1.0000 0.11780  0.45360  0.22680  Biso   1.000  O
  O31      1.0000 0.07370  0.56900  0.38930  Biso   1.000  O
  O32      1.0000 0.24880  0.53370  0.16560  Biso   1.000  O
  O33      1.0000 0.14510  0.35760  0.39960  Biso   1.000  O
  O34      1.0000 0.00760  0.40960  0.36770  Biso   1.000  O
  O35      1.0000 0.07140  0.31640  0.21620  Biso   1.000  O
  W6       1.0000 0.66198  0.05815  0.80378  Biso   1.000  W
  P6       1.0000 0.58279  0.88448  0.80305  Biso   1.000  P
  O36      1.0000 0.70730  0.14990  0.83410  Biso   1.000  O
  O37      1.0000 0.61780  0.95360  0.72680  Biso   1.000  O
  O38      1.0000 0.57370  0.06900  0.88930  Biso   1.000  O
  O39      1.0000 0.74880  0.03370  0.66560  Biso   1.000  O
  O40      1.0000 0.64510  0.85760  0.89960  Biso   1.000  O
  O41      1.0000 0.50760  0.90960  0.86770  Biso   1.000  O
  O42      1.0000 0.57140  0.81640  0.71620  Biso   1.000  O
  W7       1.0000 0.33802  0.44185  0.80378  Biso   1.000  W
  P7       1.0000 0.41721  0.61552  0.80305  Biso   1.000  P
  O43      1.0000 0.29270  0.35010  0.83410  Biso   1.000  O
  O44      1.0000 0.38220  0.54640  0.72680  Biso   1.000  O
  O45      1.0000 0.42630  0.43100  0.88930  Biso   1.000  O
  O46      1.0000 0.25120  0.46630  0.66560  Biso   1.000  O
  O47      1.0000 0.35490  0.64240  0.89960  Biso   1.000  O
  O48      1.0000 0.49240  0.59040  0.86770  Biso   1.000  O
  O49      1.0000 0.42860  0.68360  0.71620  Biso   1.000  O
  W8       1.0000 0.83802  0.94185  0.30378  Biso   1.000  W
  P8       1.0000 0.91721  0.11552  0.30305  Biso   1.000  P
  O50      1.0000 0.79270  0.85010  0.33410  Biso   1.000  O
  O51      1.0000 0.88220  0.04640  0.22680  Biso   1.000  O
  O52      1.0000 0.92630  0.93100  0.38930  Biso   1.000  O
  O53      1.0000 0.75120  0.96630  0.16560  Biso   1.000  O
  O54      1.0000 0.85490  0.14240  0.39960  Biso   1.000  O
  O55      1.0000 0.99240  0.09040  0.36770  Biso   1.000  O
  O56      1.0000 0.92860  0.18360  0.21620  Biso   1.000  O
  W9       1.0000 0.69185  0.41198  0.94622  Biso   1.000  W
  P9       1.0000 0.86552  0.33279  0.94695  Biso   1.000  P
  O57      1.0000 0.60010  0.45730  0.91590  Biso   1.000  O
  O58      1.0000 0.79640  0.36780  0.02320  Biso   1.000  O
  O59      1.0000 0.68100  0.32370  0.86070  Biso   1.000  O
  O60      1.0000 0.71630  0.49880  0.08440  Biso   1.000  O
  O61      1.0000 0.89240  0.39510  0.85040  Biso   1.000  O
  O62      1.0000 0.84040  0.25760  0.88230  Biso   1.000  O
  O63      1.0000 0.93360  0.32140  0.03380  Biso   1.000  O
  W10      1.0000 0.19185  0.91198  0.44622  Biso   1.000  W
  P10      1.0000 0.36552  0.83279  0.44695  Biso   1.000  P
  O64      1.0000 0.10010  0.95730  0.41590  Biso   1.000  O
  O65      1.0000 0.29640  0.86780  0.52320  Biso   1.000  O
  O66      1.0000 0.18100  0.82370  0.36070  Biso   1.000  O
  O67      1.0000 0.21630  0.99880  0.58440  Biso   1.000  O
  O68      1.0000 0.39240  0.89510  0.35040  Biso   1.000  O
  O69      1.0000 0.34040  0.75760  0.38230  Biso   1.000  O
  O70      1.0000 0.43360  0.82140  0.53380  Biso   1.000  O
  W11      1.0000 0.80815  0.58802  0.44622  Biso   1.000  W
  P11      1.0000 0.63448  0.66721  0.44695  Biso   1.000  P
  O71      1.0000 0.89990  0.54270  0.41590  Biso   1.000  O
  O72      1.0000 0.70360  0.63220  0.52320  Biso   1.000  O
  O73      1.0000 0.81900  0.67630  0.36070  Biso   1.000  O
  O74      1.0000 0.78370  0.50120  0.58440  Biso   1.000  O
  O75      1.0000 0.60760  0.60490  0.35040  Biso   1.000  O
  O76      1.0000 0.65960  0.74240  0.38230  Biso   1.000  O
  O77      1.0000 0.56640  0.67860  0.53380  Biso   1.000  O
  W12      1.0000 0.30815  0.08802  0.94622  Biso   1.000  W
  P12      1.0000 0.13448  0.16721  0.94695  Biso   1.000  P
  O78      1.0000 0.39990  0.04270  0.91590  Biso   1.000  O
  O79      1.0000 0.20360  0.13220  0.02320  Biso   1.000  O
  O80      1.0000 0.31900  0.17630  0.86070  Biso   1.000  O
  O81      1.0000 0.28370  0.00120  0.08440  Biso   1.000  O
  O82      1.0000 0.10760  0.10490  0.85040  Biso   1.000  O
  O83      1.0000 0.15960  0.24240  0.88230  Biso   1.000  O
  O84      1.0000 0.06640  0.17860  0.03380  Biso   1.000  O
  W13      1.0000 0.83802  0.44185  0.69622  Biso   1.000  W
  P13      1.0000 0.91721  0.61552  0.69695  Biso   1.000  P
  O85      1.0000 0.79270  0.35010  0.66590  Biso   1.000  O
  O86      1.0000 0.88220  0.54640  0.77320  Biso   1.000  O
  O87      1.0000 0.92630  0.43100  0.61070  Biso   1.000  O
  O88      1.0000 0.75120  0.46630  0.83440  Biso   1.000  O
  O89      1.0000 0.85490  0.64240  0.60040  Biso   1.000  O
  O90      1.0000 0.99240  0.59040  0.63230  Biso   1.000  O
  O91      1.0000 0.92860  0.68360  0.78380  Biso   1.000  O
  W14      1.0000 0.33802  0.94185  0.19622  Biso   1.000  W
  P14      1.0000 0.41721  0.11552  0.19695  Biso   1.000  P
  O92      1.0000 0.29270  0.85010  0.16590  Biso   1.000  O
  O93      1.0000 0.38220  0.04640  0.27320  Biso   1.000  O
  O94      1.0000 0.42630  0.93100  0.11070  Biso   1.000  O
  O95      1.0000 0.25120  0.96630  0.33440  Biso   1.000  O
  O96      1.0000 0.35490  0.14240  0.10040  Biso   1.000  O
  O97      1.0000 0.49240  0.09040  0.13230  Biso   1.000  O
  O98      1.0000 0.42860  0.18360  0.28380  Biso   1.000  O
  W15      1.0000 0.66198  0.55815  0.19622  Biso   1.000  W
  P15      1.0000 0.58279  0.38448  0.19695  Biso   1.000  P
  O99      1.0000 0.70730  0.64990  0.16590  Biso   1.000  O
  O100     1.0000 0.61780  0.45360  0.27320  Biso   1.000  O
  O101     1.0000 0.57370  0.56900  0.11070  Biso   1.000  O
  O102     1.0000 0.74880  0.53370  0.33440  Biso   1.000  O
  O103     1.0000 0.64510  0.35760  0.10040  Biso   1.000  O
  O104     1.0000 0.50760  0.40960  0.13230  Biso   1.000  O
  O105     1.0000 0.57140  0.31640  0.28380  Biso   1.000  O
  W16      1.0000 0.16198  0.05815  0.69622  Biso   1.000  W
  P16      1.0000 0.08279  0.88448  0.69695  Biso   1.000  P
  O106     1.0000 0.20730  0.14990  0.66590  Biso   1.000  O
  O107     1.0000 0.11780  0.95360  0.77320  Biso   1.000  O
  O108     1.0000 0.07370  0.06900  0.61070  Biso   1.000  O
  O109     1.0000 0.24880  0.03370  0.83440  Biso   1.000  O
  O110     1.0000 0.14510  0.85760  0.60040  Biso   1.000  O
  O111     1.0000 0.00760  0.90960  0.63230  Biso   1.000  O
  O112     1.0000 0.07140  0.81640  0.78380  Biso   1.000  O
  Co1      1.0000 0.25000  0.75000  0.25000  Biso   1.000  Co
  Co2      1.0000 0.25000  0.25000  0.75000  Biso   1.000  Co
  Co3      1.0000 0.00000  0.50000  0.50000  Biso   1.000  Co
  Co4      1.0000 0.50000  0.00000  0.00000  Biso   1.000  Co
  Co5      1.0000 0.50000  0.50000  0.00000  Biso   1.000  Co
  Co6      1.0000 0.00000  0.00000  0.50000  Biso   1.000  Co
  Co7      1.0000 0.75000  0.25000  0.75000  Biso   1.000  Co
  Co8      1.0000 0.75000  0.75000  0.25000  Biso   1.000  Co
  Co9      1.0000 0.00000  0.75000  0.87500  Biso   1.000  Co
  Co10     1.0000 0.50000  0.25000  0.37500  Biso   1.000  Co
  Co11     1.0000 0.00000  0.25000  0.12500  Biso   1.000  Co
  Co12     1.0000 0.50000  0.75000  0.62500  Biso   1.000  Co
