data_image0
_cell_length_a       10.3397
_cell_length_b       10.3397
_cell_length_c       14.5061
_cell_angle_alpha    90
_cell_angle_beta     90
_cell_angle_gamma    90

_symmetry_space_group_name_H-M    "P 1"
_symmetry_int_tables_number       1

loop_
  _symmetry_equiv_pos_as_xyz
  'x, y, z'

loop_
  _atom_site_label
  _atom_site_occupancy
  _atom_site_fract_x
  _atom_site_fract_y
  _atom_site_fract_z
  _atom_site_thermal_displace_type
  _atom_site_B_iso_or_equiv
  _atom_site_type_symbol
  Tb1      1.0000 0.64745  0.64736  0.15744  Biso   1.000  Tb
  C1       1.0000 0.30550  0.50080  0.28210  Biso   1.000  C
  H1       1.0000 0.39550  0.50340  0.28260  Biso   1.000  H
  O1       1.0000 0.43030  0.61050  0.13030  Biso   1.000  O
  C2       1.0000 0.03870  0.50070  0.28190  Biso   1.000  C
  C3       1.0000 0.31390  0.58750  0.12060  Biso   1.000  C
  C4       1.0000 0.10440  0.45610  0.35910  Biso   1.000  C
  H2       1.0000 0.05920  0.42600  0.41020  Biso   1.000  H
  C5       1.0000 0.23970  0.54110  0.20440  Biso   1.000  C
  C6       1.0000 0.10260  0.54170  0.20490  Biso   1.000  C
  H3       1.0000 0.05680  0.56970  0.15340  Biso   1.000  H
  C7       1.0000 0.24080  0.45710  0.35890  Biso   1.000  C
  O2       1.0000 0.83580  0.42880  0.33940  Biso   1.000  O
  O3       1.0000 0.83660  0.56720  0.22280  Biso   1.000  O
  C8       1.0000 0.88830  0.49950  0.28180  Biso   1.000  C
  C9       1.0000 0.31360  0.41360  0.44350  Biso   1.000  C
  O4       1.0000 0.25470  0.40450  0.51810  Biso   1.000  O
  O5       1.0000 0.43000  0.39050  0.43400  Biso   1.000  O
  O6       1.0000 0.25450  0.59480  0.04640  Biso   1.000  O
  Tb2      1.0000 0.35255  0.35264  0.65744  Biso   1.000  Tb
  C10      1.0000 0.69450  0.49920  0.78210  Biso   1.000  C
  H4       1.0000 0.60450  0.49660  0.78260  Biso   1.000  H
  O7       1.0000 0.56970  0.38950  0.63030  Biso   1.000  O
  C11      1.0000 0.96130  0.49930  0.78190  Biso   1.000  C
  C12      1.0000 0.68610  0.41250  0.62060  Biso   1.000  C
  C13      1.0000 0.89560  0.54390  0.85910  Biso   1.000  C
  H5       1.0000 0.94080  0.57400  0.91020  Biso   1.000  H
  C14      1.0000 0.76030  0.45890  0.70440  Biso   1.000  C
  C15      1.0000 0.89740  0.45830  0.70490  Biso   1.000  C
  H6       1.0000 0.94320  0.43030  0.65340  Biso   1.000  H
  C16      1.0000 0.75920  0.54290  0.85890  Biso   1.000  C
  O8       1.0000 0.16420  0.57120  0.83940  Biso   1.000  O
  O9       1.0000 0.16340  0.43280  0.72280  Biso   1.000  O
  C17      1.0000 0.11170  0.50050  0.78180  Biso   1.000  C
  C18      1.0000 0.68640  0.58640  0.94350  Biso   1.000  C
  O10      1.0000 0.74530  0.59550  0.01810  Biso   1.000  O
  O11      1.0000 0.57000  0.60950  0.93400  Biso   1.000  O
  O12      1.0000 0.74550  0.40520  0.54640  Biso   1.000  O
  Tb3      1.0000 0.35264  0.64745  0.90744  Biso   1.000  Tb
  C19      1.0000 0.49920  0.30550  0.03210  Biso   1.000  C
  H7       1.0000 0.49660  0.39550  0.03260  Biso   1.000  H
  O13      1.0000 0.38950  0.43030  0.88030  Biso   1.000  O
  C20      1.0000 0.49930  0.03870  0.03190  Biso   1.000  C
  C21      1.0000 0.41250  0.31390  0.87060  Biso   1.000  C
  C22      1.0000 0.54390  0.10440  0.10910  Biso   1.000  C
  H8       1.0000 0.57400  0.05920  0.16020  Biso   1.000  H
  C23      1.0000 0.45890  0.23970  0.95440  Biso   1.000  C
  C24      1.0000 0.45830  0.10260  0.95490  Biso   1.000  C
  H9       1.0000 0.43030  0.05680  0.90340  Biso   1.000  H
  C25      1.0000 0.54290  0.24080  0.10890  Biso   1.000  C
  O14      1.0000 0.57120  0.83580  0.08940  Biso   1.000  O
  O15      1.0000 0.43280  0.83660  0.97280  Biso   1.000  O
  C26      1.0000 0.50050  0.88830  0.03180  Biso   1.000  C
  C27      1.0000 0.58640  0.31360  0.19350  Biso   1.000  C
  O16      1.0000 0.59550  0.25470  0.26810  Biso   1.000  O
  O17      1.0000 0.60950  0.43000  0.18400  Biso   1.000  O
  O18      1.0000 0.40520  0.25450  0.79640  Biso   1.000  O
  Tb4      1.0000 0.64736  0.35255  0.40744  Biso   1.000  Tb
  C28      1.0000 0.50080  0.69450  0.53210  Biso   1.000  C
  H10      1.0000 0.50340  0.60450  0.53260  Biso   1.000  H
  O19      1.0000 0.61050  0.56970  0.38030  Biso   1.000  O
  C29      1.0000 0.50070  0.96130  0.53190  Biso   1.000  C
  C30      1.0000 0.58750  0.68610  0.37060  Biso   1.000  C
  C31      1.0000 0.45610  0.89560  0.60910  Biso   1.000  C
  H11      1.0000 0.42600  0.94080  0.66020  Biso   1.000  H
  C32      1.0000 0.54110  0.76030  0.45440  Biso   1.000  C
  C33      1.0000 0.54170  0.89740  0.45490  Biso   1.000  C
  H12      1.0000 0.56970  0.94320  0.40340  Biso   1.000  H
  C34      1.0000 0.45710  0.75920  0.60890  Biso   1.000  C
  O20      1.0000 0.42880  0.16420  0.58940  Biso   1.000  O
  O21      1.0000 0.56720  0.16340  0.47280  Biso   1.000  O
  C35      1.0000 0.49950  0.11170  0.53180  Biso   1.000  C
  C36      1.0000 0.41360  0.68640  0.69350  Biso   1.000  C
  O22      1.0000 0.40450  0.74530  0.76810  Biso   1.000  O
  O23      1.0000 0.39050  0.57000  0.68400  Biso   1.000  O
  O24      1.0000 0.59480  0.74550  0.29640  Biso   1.000  O
