data_image0
_cell_length_a       26.067
_cell_length_b       21.1688
_cell_length_c       7.6354
_cell_angle_alpha    90
_cell_angle_beta     90
_cell_angle_gamma    90

_symmetry_space_group_name_H-M    "P 1"
_symmetry_int_tables_number       1

loop_
  _symmetry_equiv_pos_as_xyz
  'x, y, z'

loop_
  _atom_site_label
  _atom_site_occupancy
  _atom_site_fract_x
  _atom_site_fract_y
  _atom_site_fract_z
  _atom_site_thermal_displace_type
  _atom_site_B_iso_or_equiv
  _atom_site_type_symbol
  Cd1      1.0000 0.49826  0.52715  0.46004  Biso   1.000  Cd
  C1       1.0000 0.60321  0.47407  0.30940  Biso   1.000  C
  C2       1.0000 0.65789  0.48403  0.32790  Biso   1.000  C
  H1       1.0000 0.68380  0.46840  0.25190  Biso   1.000  H
  C3       1.0000 0.66543  0.51959  0.47270  Biso   1.000  C
  H2       1.0000 0.69750  0.53370  0.51690  Biso   1.000  H
  C4       1.0000 0.61600  0.53215  0.54720  Biso   1.000  C
  C5       1.0000 0.60621  0.56670  0.70320  Biso   1.000  C
  C6       1.0000 0.55813  0.57540  0.78600  Biso   1.000  C
  C7       1.0000 0.54860  0.61725  0.93280  Biso   1.000  C
  H3       1.0000 0.57350  0.64160  0.99370  Biso   1.000  H
  C8       1.0000 0.49780  0.61516  0.96680  Biso   1.000  C
  H4       1.0000 0.48040  0.63770  0.05640  Biso   1.000  H
  C9       1.0000 0.47490  0.57263  0.84270  Biso   1.000  C
  C10      1.0000 0.57842  0.43924  0.17660  Biso   1.000  C
  N1       1.0000 0.57915  0.50422  0.44640  Biso   1.000  N
  N2       1.0000 0.51265  0.54848  0.73740  Biso   1.000  N
  C11      1.0000 0.65116  0.59628  0.79120  Biso   1.000  C
  C12      1.0000 0.68128  0.64140  0.70940  Biso   1.000  C
  H5       1.0000 0.67330  0.65240  0.59190  Biso   1.000  H
  N3       1.0000 0.72105  0.67039  0.78610  Biso   1.000  N
  C13      1.0000 0.73200  0.65450  0.95330  Biso   1.000  C
  H6       1.0000 0.76020  0.67450  0.00950  Biso   1.000  H
  C14      1.0000 0.70415  0.61050  0.04610  Biso   1.000  C
  H7       1.0000 0.71270  0.60060  0.16390  Biso   1.000  H
  C15      1.0000 0.66325  0.58080  0.96380  Biso   1.000  C
  H8       1.0000 0.64360  0.55000  0.02480  Biso   1.000  H
  C16      1.0000 0.61237  0.40620  0.04820  Biso   1.000  C
  C17      1.0000 0.64711  0.36178  0.11010  Biso   1.000  C
  H9       1.0000 0.64870  0.35470  0.23290  Biso   1.000  H
  N4       1.0000 0.67857  0.32836  0.00690  Biso   1.000  N
  C18      1.0000 0.67552  0.33784  0.83350  Biso   1.000  C
  H10      1.0000 0.69770  0.31460  0.75850  Biso   1.000  H
  C19      1.0000 0.64145  0.38000  0.76000  Biso   1.000  C
  H11      1.0000 0.64000  0.38520  0.63650  Biso   1.000  H
  C20      1.0000 0.60942  0.41471  0.86740  Biso   1.000  C
  H12      1.0000 0.58570  0.44400  0.81880  Biso   1.000  H
  Cd2      1.0000 0.00174  0.47285  0.96004  Biso   1.000  Cd
  C21      1.0000 0.89679  0.52593  0.80940  Biso   1.000  C
  C22      1.0000 0.84211  0.51597  0.82790  Biso   1.000  C
  H13      1.0000 0.81620  0.53160  0.75190  Biso   1.000  H
  C23      1.0000 0.83457  0.48041  0.97270  Biso   1.000  C
  H14      1.0000 0.80250  0.46630  0.01690  Biso   1.000  H
  C24      1.0000 0.88400  0.46785  0.04720  Biso   1.000  C
  C25      1.0000 0.89379  0.43330  0.20320  Biso   1.000  C
  C26      1.0000 0.94187  0.42460  0.28600  Biso   1.000  C
  C27      1.0000 0.95140  0.38275  0.43280  Biso   1.000  C
  H15      1.0000 0.92650  0.35840  0.49370  Biso   1.000  H
  C28      1.0000 0.00220  0.38484  0.46680  Biso   1.000  C
  H16      1.0000 0.01960  0.36230  0.55640  Biso   1.000  H
  C29      1.0000 0.02510  0.42737  0.34270  Biso   1.000  C
  C30      1.0000 0.92158  0.56076  0.67660  Biso   1.000  C
  N5       1.0000 0.92085  0.49578  0.94640  Biso   1.000  N
  N6       1.0000 0.98735  0.45152  0.23740  Biso   1.000  N
  C31      1.0000 0.84884  0.40372  0.29120  Biso   1.000  C
  C32      1.0000 0.81872  0.35860  0.20940  Biso   1.000  C
  H17      1.0000 0.82670  0.34760  0.09190  Biso   1.000  H
  N7       1.0000 0.77895  0.32961  0.28610  Biso   1.000  N
  C33      1.0000 0.76800  0.34550  0.45330  Biso   1.000  C
  H18      1.0000 0.73980  0.32550  0.50950  Biso   1.000  H
  C34      1.0000 0.79585  0.38950  0.54610  Biso   1.000  C
  H19      1.0000 0.78730  0.39940  0.66390  Biso   1.000  H
  C35      1.0000 0.83675  0.41920  0.46380  Biso   1.000  C
  H20      1.0000 0.85640  0.45000  0.52480  Biso   1.000  H
  C36      1.0000 0.88763  0.59380  0.54820  Biso   1.000  C
  C37      1.0000 0.85289  0.63822  0.61010  Biso   1.000  C
  H21      1.0000 0.85130  0.64530  0.73290  Biso   1.000  H
  N8       1.0000 0.82143  0.67164  0.50690  Biso   1.000  N
  C38      1.0000 0.82448  0.66216  0.33350  Biso   1.000  C
  H22      1.0000 0.80230  0.68540  0.25850  Biso   1.000  H
  C39      1.0000 0.85855  0.62000  0.26000  Biso   1.000  C
  H23      1.0000 0.86000  0.61480  0.13650  Biso   1.000  H
  C40      1.0000 0.89058  0.58529  0.36740  Biso   1.000  C
  H24      1.0000 0.91430  0.55600  0.31880  Biso   1.000  H
  Cd3      1.0000 0.50174  0.02715  0.53996  Biso   1.000  Cd
  C41      1.0000 0.39679  0.97407  0.69060  Biso   1.000  C
  C42      1.0000 0.34211  0.98403  0.67210  Biso   1.000  C
  H25      1.0000 0.31620  0.96840  0.74810  Biso   1.000  H
  C43      1.0000 0.33457  0.01959  0.52730  Biso   1.000  C
  H26      1.0000 0.30250  0.03370  0.48310  Biso   1.000  H
  C44      1.0000 0.38400  0.03215  0.45280  Biso   1.000  C
  C45      1.0000 0.39379  0.06670  0.29680  Biso   1.000  C
  C46      1.0000 0.44187  0.07540  0.21400  Biso   1.000  C
  C47      1.0000 0.45140  0.11725  0.06720  Biso   1.000  C
  H27      1.0000 0.42650  0.14160  0.00630  Biso   1.000  H
  C48      1.0000 0.50220  0.11516  0.03320  Biso   1.000  C
  H28      1.0000 0.51960  0.13770  0.94360  Biso   1.000  H
  C49      1.0000 0.52510  0.07263  0.15730  Biso   1.000  C
  C50      1.0000 0.42158  0.93924  0.82340  Biso   1.000  C
  N9       1.0000 0.42085  0.00422  0.55360  Biso   1.000  N
  N10      1.0000 0.48735  0.04848  0.26260  Biso   1.000  N
  C51      1.0000 0.34884  0.09628  0.20880  Biso   1.000  C
  C52      1.0000 0.31872  0.14140  0.29060  Biso   1.000  C
  H29      1.0000 0.32670  0.15240  0.40810  Biso   1.000  H
  N11      1.0000 0.27895  0.17039  0.21390  Biso   1.000  N
  C53      1.0000 0.26800  0.15450  0.04670  Biso   1.000  C
  H30      1.0000 0.23980  0.17450  0.99050  Biso   1.000  H
  C54      1.0000 0.29585  0.11050  0.95390  Biso   1.000  C
  H31      1.0000 0.28730  0.10060  0.83610  Biso   1.000  H
  C55      1.0000 0.33675  0.08080  0.03620  Biso   1.000  C
  H32      1.0000 0.35640  0.05000  0.97520  Biso   1.000  H
  C56      1.0000 0.38763  0.90620  0.95180  Biso   1.000  C
  C57      1.0000 0.35289  0.86178  0.88990  Biso   1.000  C
  H33      1.0000 0.35130  0.85470  0.76710  Biso   1.000  H
  N12      1.0000 0.32143  0.82836  0.99310  Biso   1.000  N
  C58      1.0000 0.32448  0.83784  0.16650  Biso   1.000  C
  H34      1.0000 0.30230  0.81460  0.24150  Biso   1.000  H
  C59      1.0000 0.35855  0.88000  0.24000  Biso   1.000  C
  H35      1.0000 0.36000  0.88520  0.36350  Biso   1.000  H
  C60      1.0000 0.39058  0.91471  0.13260  Biso   1.000  C
  H36      1.0000 0.41430  0.94400  0.18120  Biso   1.000  H
  Cd4      1.0000 0.99826  0.97285  0.03996  Biso   1.000  Cd
  C61      1.0000 0.10321  0.02593  0.19060  Biso   1.000  C
  C62      1.0000 0.15789  0.01597  0.17210  Biso   1.000  C
  H37      1.0000 0.18380  0.03160  0.24810  Biso   1.000  H
  C63      1.0000 0.16543  0.98041  0.02730  Biso   1.000  C
  H38      1.0000 0.19750  0.96630  0.98310  Biso   1.000  H
  C64      1.0000 0.11600  0.96785  0.95280  Biso   1.000  C
  C65      1.0000 0.10621  0.93330  0.79680  Biso   1.000  C
  C66      1.0000 0.05813  0.92460  0.71400  Biso   1.000  C
  C67      1.0000 0.04860  0.88275  0.56720  Biso   1.000  C
  H39      1.0000 0.07350  0.85840  0.50630  Biso   1.000  H
  C68      1.0000 0.99780  0.88484  0.53320  Biso   1.000  C
  H40      1.0000 0.98040  0.86230  0.44360  Biso   1.000  H
  C69      1.0000 0.97490  0.92737  0.65730  Biso   1.000  C
  C70      1.0000 0.07842  0.06076  0.32340  Biso   1.000  C
  N13      1.0000 0.07915  0.99578  0.05360  Biso   1.000  N
  N14      1.0000 0.01265  0.95152  0.76260  Biso   1.000  N
  C71      1.0000 0.15116  0.90372  0.70880  Biso   1.000  C
  C72      1.0000 0.18128  0.85860  0.79060  Biso   1.000  C
  H41      1.0000 0.17330  0.84760  0.90810  Biso   1.000  H
  N15      1.0000 0.22105  0.82961  0.71390  Biso   1.000  N
  C73      1.0000 0.23200  0.84550  0.54670  Biso   1.000  C
  H42      1.0000 0.26020  0.82550  0.49050  Biso   1.000  H
  C74      1.0000 0.20415  0.88950  0.45390  Biso   1.000  C
  H43      1.0000 0.21270  0.89940  0.33610  Biso   1.000  H
  C75      1.0000 0.16325  0.91920  0.53620  Biso   1.000  C
  H44      1.0000 0.14360  0.95000  0.47520  Biso   1.000  H
  C76      1.0000 0.11237  0.09380  0.45180  Biso   1.000  C
  C77      1.0000 0.14711  0.13822  0.38990  Biso   1.000  C
  H45      1.0000 0.14870  0.14530  0.26710  Biso   1.000  H
  N16      1.0000 0.17857  0.17164  0.49310  Biso   1.000  N
  C78      1.0000 0.17552  0.16216  0.66650  Biso   1.000  C
  H46      1.0000 0.19770  0.18540  0.74150  Biso   1.000  H
  C79      1.0000 0.14145  0.12000  0.74000  Biso   1.000  C
  H47      1.0000 0.14000  0.11480  0.86350  Biso   1.000  H
  C80      1.0000 0.10942  0.08529  0.63260  Biso   1.000  C
  H48      1.0000 0.08570  0.05600  0.68120  Biso   1.000  H
  Cd5      1.0000 0.50174  0.47285  0.53996  Biso   1.000  Cd
  C81      1.0000 0.39679  0.52593  0.69060  Biso   1.000  C
  C82      1.0000 0.34211  0.51597  0.67210  Biso   1.000  C
  H49      1.0000 0.31620  0.53160  0.74810  Biso   1.000  H
  C83      1.0000 0.33457  0.48041  0.52730  Biso   1.000  C
  H50      1.0000 0.30250  0.46630  0.48310  Biso   1.000  H
  C84      1.0000 0.38400  0.46785  0.45280  Biso   1.000  C
  C85      1.0000 0.39379  0.43330  0.29680  Biso   1.000  C
  C86      1.0000 0.44187  0.42460  0.21400  Biso   1.000  C
  C87      1.0000 0.45140  0.38275  0.06720  Biso   1.000  C
  H51      1.0000 0.42650  0.35840  0.00630  Biso   1.000  H
  C88      1.0000 0.50220  0.38484  0.03320  Biso   1.000  C
  H52      1.0000 0.51960  0.36230  0.94360  Biso   1.000  H
  C89      1.0000 0.52510  0.42737  0.15730  Biso   1.000  C
  C90      1.0000 0.42158  0.56076  0.82340  Biso   1.000  C
  N17      1.0000 0.42085  0.49578  0.55360  Biso   1.000  N
  N18      1.0000 0.48735  0.45152  0.26260  Biso   1.000  N
  C91      1.0000 0.34884  0.40372  0.20880  Biso   1.000  C
  C92      1.0000 0.31872  0.35860  0.29060  Biso   1.000  C
  H53      1.0000 0.32670  0.34760  0.40810  Biso   1.000  H
  N19      1.0000 0.27895  0.32961  0.21390  Biso   1.000  N
  C93      1.0000 0.26800  0.34550  0.04670  Biso   1.000  C
  H54      1.0000 0.23980  0.32550  0.99050  Biso   1.000  H
  C94      1.0000 0.29585  0.38950  0.95390  Biso   1.000  C
  H55      1.0000 0.28730  0.39940  0.83610  Biso   1.000  H
  C95      1.0000 0.33675  0.41920  0.03620  Biso   1.000  C
  H56      1.0000 0.35640  0.45000  0.97520  Biso   1.000  H
  C96      1.0000 0.38763  0.59380  0.95180  Biso   1.000  C
  C97      1.0000 0.35289  0.63822  0.88990  Biso   1.000  C
  H57      1.0000 0.35130  0.64530  0.76710  Biso   1.000  H
  N20      1.0000 0.32143  0.67164  0.99310  Biso   1.000  N
  C98      1.0000 0.32448  0.66216  0.16650  Biso   1.000  C
  H58      1.0000 0.30230  0.68540  0.24150  Biso   1.000  H
  C99      1.0000 0.35855  0.62000  0.24000  Biso   1.000  C
  H59      1.0000 0.36000  0.61480  0.36350  Biso   1.000  H
  C100     1.0000 0.39058  0.58529  0.13260  Biso   1.000  C
  H60      1.0000 0.41430  0.55600  0.18120  Biso   1.000  H
  Cd6      1.0000 0.99826  0.52715  0.03996  Biso   1.000  Cd
  C101     1.0000 0.10321  0.47407  0.19060  Biso   1.000  C
  C102     1.0000 0.15789  0.48403  0.17210  Biso   1.000  C
  H61      1.0000 0.18380  0.46840  0.24810  Biso   1.000  H
  C103     1.0000 0.16543  0.51959  0.02730  Biso   1.000  C
  H62      1.0000 0.19750  0.53370  0.98310  Biso   1.000  H
  C104     1.0000 0.11600  0.53215  0.95280  Biso   1.000  C
  C105     1.0000 0.10621  0.56670  0.79680  Biso   1.000  C
  C106     1.0000 0.05813  0.57540  0.71400  Biso   1.000  C
  C107     1.0000 0.04860  0.61725  0.56720  Biso   1.000  C
  H63      1.0000 0.07350  0.64160  0.50630  Biso   1.000  H
  C108     1.0000 0.99780  0.61516  0.53320  Biso   1.000  C
  H64      1.0000 0.98040  0.63770  0.44360  Biso   1.000  H
  C109     1.0000 0.97490  0.57263  0.65730  Biso   1.000  C
  C110     1.0000 0.07842  0.43924  0.32340  Biso   1.000  C
  N21      1.0000 0.07915  0.50422  0.05360  Biso   1.000  N
  N22      1.0000 0.01265  0.54848  0.76260  Biso   1.000  N
  C111     1.0000 0.15116  0.59628  0.70880  Biso   1.000  C
  C112     1.0000 0.18128  0.64140  0.79060  Biso   1.000  C
  H65      1.0000 0.17330  0.65240  0.90810  Biso   1.000  H
  N23      1.0000 0.22105  0.67039  0.71390  Biso   1.000  N
  C113     1.0000 0.23200  0.65450  0.54670  Biso   1.000  C
  H66      1.0000 0.26020  0.67450  0.49050  Biso   1.000  H
  C114     1.0000 0.20415  0.61050  0.45390  Biso   1.000  C
  H67      1.0000 0.21270  0.60060  0.33610  Biso   1.000  H
  C115     1.0000 0.16325  0.58080  0.53620  Biso   1.000  C
  H68      1.0000 0.14360  0.55000  0.47520  Biso   1.000  H
  C116     1.0000 0.11237  0.40620  0.45180  Biso   1.000  C
  C117     1.0000 0.14711  0.36178  0.38990  Biso   1.000  C
  H69      1.0000 0.14870  0.35470  0.26710  Biso   1.000  H
  N24      1.0000 0.17857  0.32836  0.49310  Biso   1.000  N
  C118     1.0000 0.17552  0.33784  0.66650  Biso   1.000  C
  H70      1.0000 0.19770  0.31460  0.74150  Biso   1.000  H
  C119     1.0000 0.14145  0.38000  0.74000  Biso   1.000  C
  H71      1.0000 0.14000  0.38520  0.86350  Biso   1.000  H
  C120     1.0000 0.10942  0.41471  0.63260  Biso   1.000  C
  H72      1.0000 0.08570  0.44400  0.68120  Biso   1.000  H
  Cd7      1.0000 0.49826  0.97285  0.46004  Biso   1.000  Cd
  C121     1.0000 0.60321  0.02593  0.30940  Biso   1.000  C
  C122     1.0000 0.65789  0.01597  0.32790  Biso   1.000  C
  H73      1.0000 0.68380  0.03160  0.25190  Biso   1.000  H
  C123     1.0000 0.66543  0.98041  0.47270  Biso   1.000  C
  H74      1.0000 0.69750  0.96630  0.51690  Biso   1.000  H
  C124     1.0000 0.61600  0.96785  0.54720  Biso   1.000  C
  C125     1.0000 0.60621  0.93330  0.70320  Biso   1.000  C
  C126     1.0000 0.55813  0.92460  0.78600  Biso   1.000  C
  C127     1.0000 0.54860  0.88275  0.93280  Biso   1.000  C
  H75      1.0000 0.57350  0.85840  0.99370  Biso   1.000  H
  C128     1.0000 0.49780  0.88484  0.96680  Biso   1.000  C
  H76      1.0000 0.48040  0.86230  0.05640  Biso   1.000  H
  C129     1.0000 0.47490  0.92737  0.84270  Biso   1.000  C
  C130     1.0000 0.57842  0.06076  0.17660  Biso   1.000  C
  N25      1.0000 0.57915  0.99578  0.44640  Biso   1.000  N
  N26      1.0000 0.51265  0.95152  0.73740  Biso   1.000  N
  C131     1.0000 0.65116  0.90372  0.79120  Biso   1.000  C
  C132     1.0000 0.68128  0.85860  0.70940  Biso   1.000  C
  H77      1.0000 0.67330  0.84760  0.59190  Biso   1.000  H
  N27      1.0000 0.72105  0.82961  0.78610  Biso   1.000  N
  C133     1.0000 0.73200  0.84550  0.95330  Biso   1.000  C
  H78      1.0000 0.76020  0.82550  0.00950  Biso   1.000  H
  C134     1.0000 0.70415  0.88950  0.04610  Biso   1.000  C
  H79      1.0000 0.71270  0.89940  0.16390  Biso   1.000  H
  C135     1.0000 0.66325  0.91920  0.96380  Biso   1.000  C
  H80      1.0000 0.64360  0.95000  0.02480  Biso   1.000  H
  C136     1.0000 0.61237  0.09380  0.04820  Biso   1.000  C
  C137     1.0000 0.64711  0.13822  0.11010  Biso   1.000  C
  H81      1.0000 0.64870  0.14530  0.23290  Biso   1.000  H
  N28      1.0000 0.67857  0.17164  0.00690  Biso   1.000  N
  C138     1.0000 0.67552  0.16216  0.83350  Biso   1.000  C
  H82      1.0000 0.69770  0.18540  0.75850  Biso   1.000  H
  C139     1.0000 0.64145  0.12000  0.76000  Biso   1.000  C
  H83      1.0000 0.64000  0.11480  0.63650  Biso   1.000  H
  C140     1.0000 0.60942  0.08529  0.86740  Biso   1.000  C
  H84      1.0000 0.58570  0.05600  0.81880  Biso   1.000  H
  Cd8      1.0000 0.00174  0.02715  0.96004  Biso   1.000  Cd
  C141     1.0000 0.89679  0.97407  0.80940  Biso   1.000  C
  C142     1.0000 0.84211  0.98403  0.82790  Biso   1.000  C
  H85      1.0000 0.81620  0.96840  0.75190  Biso   1.000  H
  C143     1.0000 0.83457  0.01959  0.97270  Biso   1.000  C
  H86      1.0000 0.80250  0.03370  0.01690  Biso   1.000  H
  C144     1.0000 0.88400  0.03215  0.04720  Biso   1.000  C
  C145     1.0000 0.89379  0.06670  0.20320  Biso   1.000  C
  C146     1.0000 0.94187  0.07540  0.28600  Biso   1.000  C
  C147     1.0000 0.95140  0.11725  0.43280  Biso   1.000  C
  H87      1.0000 0.92650  0.14160  0.49370  Biso   1.000  H
  C148     1.0000 0.00220  0.11516  0.46680  Biso   1.000  C
  H88      1.0000 0.01960  0.13770  0.55640  Biso   1.000  H
  C149     1.0000 0.02510  0.07263  0.34270  Biso   1.000  C
  C150     1.0000 0.92158  0.93924  0.67660  Biso   1.000  C
  N29      1.0000 0.92085  0.00422  0.94640  Biso   1.000  N
  N30      1.0000 0.98735  0.04848  0.23740  Biso   1.000  N
  C151     1.0000 0.84884  0.09628  0.29120  Biso   1.000  C
  C152     1.0000 0.81872  0.14140  0.20940  Biso   1.000  C
  H89      1.0000 0.82670  0.15240  0.09190  Biso   1.000  H
  N31      1.0000 0.77895  0.17039  0.28610  Biso   1.000  N
  C153     1.0000 0.76800  0.15450  0.45330  Biso   1.000  C
  H90      1.0000 0.73980  0.17450  0.50950  Biso   1.000  H
  C154     1.0000 0.79585  0.11050  0.54610  Biso   1.000  C
  H91      1.0000 0.78730  0.10060  0.66390  Biso   1.000  H
  C155     1.0000 0.83675  0.08080  0.46380  Biso   1.000  C
  H92      1.0000 0.85640  0.05000  0.52480  Biso   1.000  H
  C156     1.0000 0.88763  0.90620  0.54820  Biso   1.000  C
  C157     1.0000 0.85289  0.86178  0.61010  Biso   1.000  C
  H93      1.0000 0.85130  0.85470  0.73290  Biso   1.000  H
  N32      1.0000 0.82143  0.82836  0.50690  Biso   1.000  N
  C158     1.0000 0.82448  0.83784  0.33350  Biso   1.000  C
  H94      1.0000 0.80230  0.81460  0.25850  Biso   1.000  H
  C159     1.0000 0.85855  0.88000  0.26000  Biso   1.000  C
  H95      1.0000 0.86000  0.88520  0.13650  Biso   1.000  H
  C160     1.0000 0.89058  0.91471  0.36740  Biso   1.000  C
  H96      1.0000 0.91430  0.94400  0.31880  Biso   1.000  H
  Cd9      1.0000 0.76912  0.75000  0.63947  Biso   1.000  Cd
  Cl1      1.0000 0.83424  0.75000  0.90877  Biso   1.000  Cl
  Cl2      1.0000 0.70903  0.75000  0.37341  Biso   1.000  Cl
  Cd10     1.0000 0.73088  0.25000  0.13947  Biso   1.000  Cd
  Cl3      1.0000 0.66576  0.25000  0.40877  Biso   1.000  Cl
  Cl4      1.0000 0.79097  0.25000  0.87341  Biso   1.000  Cl
  Cd11     1.0000 0.23088  0.25000  0.36053  Biso   1.000  Cd
  Cl5      1.0000 0.16576  0.25000  0.09123  Biso   1.000  Cl
  Cl6      1.0000 0.29097  0.25000  0.62659  Biso   1.000  Cl
  Cd12     1.0000 0.26912  0.75000  0.86053  Biso   1.000  Cd
  Cl7      1.0000 0.33424  0.75000  0.59123  Biso   1.000  Cl
  Cl8      1.0000 0.20903  0.75000  0.12659  Biso   1.000  Cl
