data_UPOVOL_clean
_audit_creation_date              2014-07-02
_audit_creation_method            'Materials Studio'
_symmetry_space_group_name_H-M    'P1'
_symmetry_Int_Tables_number       1
_symmetry_cell_setting            triclinic
loop_
_symmetry_equiv_pos_as_xyz
  x,y,z
_cell_length_a                    7.8529
_cell_length_b                    12.1860
_cell_length_c                    13.2217
_cell_angle_alpha                 112.1560
_cell_angle_beta                  105.4570
_cell_angle_gamma                 91.5410
loop_
_atom_site_label
_atom_site_type_symbol
_atom_site_fract_x
_atom_site_fract_y
_atom_site_fract_z
_atom_site_U_iso_or_equiv
_atom_site_adp_type
_atom_site_occupancy
Er1    Er    0.74970   0.98145   0.01074   0.01267  Uiso   1.00
Er2    Er    0.25030   0.01855   0.98926   0.01267  Uiso   1.00
H1     H     0.07680   0.15370   0.41530   0.01267  Uiso   1.00
H2     H     0.06800   0.27500   0.40000   0.01267  Uiso   1.00
H3     H     0.26190   0.22870   0.29250   0.01267  Uiso   1.00
H4     H     0.29770   0.11420   0.31820   0.01267  Uiso   1.00
H5     H     0.59390   0.11550   0.68190   0.01267  Uiso   1.00
H6     H     0.69480   0.23220   0.78800   0.01267  Uiso   1.00
H7     H     0.44810   0.24210   0.85840   0.01267  Uiso   1.00
H8     H     0.35120   0.12340   0.75350   0.01267  Uiso   1.00
H9     H     0.61990   0.60510   0.77840   0.01267  Uiso   1.00
H10    H     0.51130   0.61250   0.66330   0.01267  Uiso   1.00
H11    H     0.34640   0.59590   0.82320   0.01267  Uiso   1.00
H12    H     0.25090   0.61850   0.71410   0.01267  Uiso   1.00
H13    H     0.92320   0.84630   0.58470   0.01267  Uiso   1.00
H14    H     0.93200   0.72500   0.60000   0.01267  Uiso   1.00
H15    H     0.73810   0.77130   0.70750   0.01267  Uiso   1.00
H16    H     0.70230   0.88580   0.68180   0.01267  Uiso   1.00
H17    H     0.40610   0.88450   0.31810   0.01267  Uiso   1.00
H18    H     0.30520   0.76780   0.21200   0.01267  Uiso   1.00
H19    H     0.55190   0.75790   0.14160   0.01267  Uiso   1.00
H20    H     0.64880   0.87660   0.24650   0.01267  Uiso   1.00
H21    H     0.38010   0.39490   0.22160   0.01267  Uiso   1.00
H22    H     0.48870   0.38750   0.33670   0.01267  Uiso   1.00
H23    H     0.65360   0.40410   0.17680   0.01267  Uiso   1.00
H24    H     0.74910   0.38150   0.28590   0.01267  Uiso   1.00
C1     C     0.33960   0.39870   0.55870   0.01267  Uiso   1.00
C2     C     0.36620   0.20520   0.57250   0.01267  Uiso   1.00
C3     C     0.53700   0.38710   0.73000   0.01267  Uiso   1.00
C4     C     0.14610   0.21700   0.40960   0.01267  Uiso   1.00
C5     C     0.20810   0.16480   0.30590   0.01267  Uiso   1.00
C6     C     0.05350   0.09240   0.20310   0.01267  Uiso   1.00
C7     C     0.57780   0.19090   0.73700   0.01267  Uiso   1.00
C8     C     0.46700   0.16660   0.80490   0.01267  Uiso   1.00
C9     C     0.55400   0.09470   0.87010   0.01267  Uiso   1.00
C10    C     0.50470   0.58190   0.72020   0.01267  Uiso   1.00
C11    C     0.36290   0.63500   0.77410   0.01267  Uiso   1.00
C12    C     0.40610   0.76840   0.84360   0.01267  Uiso   1.00
C13    C     0.66040   0.60130   0.44130   0.01267  Uiso   1.00
C14    C     0.63380   0.79480   0.42750   0.01267  Uiso   1.00
C15    C     0.46300   0.61290   0.27000   0.01267  Uiso   1.00
C16    C     0.85390   0.78300   0.59040   0.01267  Uiso   1.00
C17    C     0.79190   0.83520   0.69410   0.01267  Uiso   1.00
C18    C     0.94650   0.90760   0.79690   0.01267  Uiso   1.00
C19    C     0.42220   0.80910   0.26300   0.01267  Uiso   1.00
C20    C     0.53300   0.83340   0.19510   0.01267  Uiso   1.00
C21    C     0.44600   0.90530   0.12990   0.01267  Uiso   1.00
C22    C     0.49530   0.41810   0.27980   0.01267  Uiso   1.00
C23    C     0.63710   0.36500   0.22590   0.01267  Uiso   1.00
C24    C     0.59390   0.23160   0.15640   0.01267  Uiso   1.00
N1     N     0.46310   0.45030   0.66590   0.01267  Uiso   1.00
N2     N     0.29180   0.27580   0.51680   0.01267  Uiso   1.00
N3     N     0.49390   0.26410   0.67590   0.01267  Uiso   1.00
N4     N     0.53690   0.54970   0.33410   0.01267  Uiso   1.00
N5     N     0.70820   0.72420   0.48320   0.01267  Uiso   1.00
N6     N     0.50610   0.73590   0.32410   0.01267  Uiso   1.00
O1     O     0.92370   0.04250   0.21430   0.01267  Uiso   1.00
O2     O     0.05540   0.08640   0.10400   0.01267  Uiso   1.00
O3     O     0.55770   0.81900   0.86070   0.01267  Uiso   1.00
O4     O     0.28240   0.81860   0.88040   0.01267  Uiso   1.00
O5     O     0.46450   0.05000   0.91480   0.01267  Uiso   1.00
O6     O     0.71410   0.08090   0.88110   0.01267  Uiso   1.00
O7     O     0.63750   0.43640   0.82650   0.01267  Uiso   1.00
O8     O     0.27520   0.45720   0.50570   0.01267  Uiso   1.00
O9     O     0.32280   0.09780   0.53100   0.01267  Uiso   1.00
O10    O     0.07630   0.95750   0.78570   0.01267  Uiso   1.00
O11    O     0.94460   0.91360   0.89600   0.01267  Uiso   1.00
O12    O     0.44230   0.18100   0.13930   0.01267  Uiso   1.00
O13    O     0.71760   0.18140   0.11960   0.01267  Uiso   1.00
O14    O     0.53550   0.95000   0.08520   0.01267  Uiso   1.00
O15    O     0.28590   0.91910   0.11890   0.01267  Uiso   1.00
O16    O     0.36250   0.56360   0.17350   0.01267  Uiso   1.00
O17    O     0.72480   0.54280   0.49430   0.01267  Uiso   1.00
O18    O     0.67720   0.90220   0.46900   0.01267  Uiso   1.00
