data_image0
_cell_length_a       13.612
_cell_length_b       13.612
_cell_length_c       29.956
_cell_angle_alpha    90
_cell_angle_beta     90
_cell_angle_gamma    90

_symmetry_space_group_name_H-M    "P 1"
_symmetry_int_tables_number       1

loop_
  _symmetry_equiv_pos_as_xyz
  'x, y, z'

loop_
  _atom_site_label
  _atom_site_occupancy
  _atom_site_fract_x
  _atom_site_fract_y
  _atom_site_fract_z
  _atom_site_thermal_displace_type
  _atom_site_B_iso_or_equiv
  _atom_site_type_symbol
  Mo1      1.0000 0.16274  0.10898  0.41934  Biso   1.000  Mo
  O1       1.0000 0.08960  0.98660  0.47000  Biso   1.000  O
  N1       1.0000 0.05670  0.14170  0.25320  Biso   1.000  N
  C1       1.0000 0.13100  0.19420  0.23420  Biso   1.000  C
  C2       1.0000 0.14180  0.28370  0.25540  Biso   1.000  C
  N2       1.0000 0.02170  0.19990  0.28630  Biso   1.000  N
  C3       1.0000 0.07210  0.28590  0.28820  Biso   1.000  C
  O2       1.0000 0.25140  0.04890  0.45550  Biso   1.000  O
  C4       1.0000 0.05320  0.35910  0.32490  Biso   1.000  C
  H1       1.0000 0.99990  0.33650  0.34320  Biso   1.000  H
  H2       1.0000 0.03650  0.42150  0.31210  Biso   1.000  H
  H3       1.0000 0.11130  0.36600  0.34280  Biso   1.000  H
  C5       1.0000 0.19020  0.15200  0.19650  Biso   1.000  C
  H4       1.0000 0.16550  0.08800  0.18910  Biso   1.000  H
  H5       1.0000 0.25770  0.14680  0.20540  Biso   1.000  H
  H6       1.0000 0.18520  0.19420  0.17090  Biso   1.000  H
  O3       1.0000 0.14120  0.21170  0.45560  Biso   1.000  O
  O4       1.0000 0.02460  0.12860  0.39400  Biso   1.000  O
  Mo2      1.0000 0.83726  0.89102  0.41934  Biso   1.000  Mo
  O5       1.0000 0.91040  0.01340  0.47000  Biso   1.000  O
  N3       1.0000 0.94330  0.85830  0.25320  Biso   1.000  N
  C6       1.0000 0.86900  0.80580  0.23420  Biso   1.000  C
  C7       1.0000 0.85820  0.71630  0.25540  Biso   1.000  C
  N4       1.0000 0.97830  0.80010  0.28630  Biso   1.000  N
  C8       1.0000 0.92790  0.71410  0.28820  Biso   1.000  C
  O6       1.0000 0.74860  0.95110  0.45550  Biso   1.000  O
  C9       1.0000 0.94680  0.64090  0.32490  Biso   1.000  C
  H7       1.0000 0.00010  0.66350  0.34320  Biso   1.000  H
  H8       1.0000 0.96350  0.57850  0.31210  Biso   1.000  H
  H9       1.0000 0.88870  0.63400  0.34280  Biso   1.000  H
  C10      1.0000 0.80980  0.84800  0.19650  Biso   1.000  C
  H10      1.0000 0.83450  0.91200  0.18910  Biso   1.000  H
  H11      1.0000 0.74230  0.85320  0.20540  Biso   1.000  H
  H12      1.0000 0.81480  0.80580  0.17090  Biso   1.000  H
  O7       1.0000 0.85880  0.78830  0.45560  Biso   1.000  O
  O8       1.0000 0.97540  0.87140  0.39400  Biso   1.000  O
  Mo3      1.0000 0.89102  0.16274  0.41934  Biso   1.000  Mo
  O9       1.0000 0.01340  0.08960  0.47000  Biso   1.000  O
  N5       1.0000 0.85830  0.05670  0.25320  Biso   1.000  N
  C11      1.0000 0.80580  0.13100  0.23420  Biso   1.000  C
  C12      1.0000 0.71630  0.14180  0.25540  Biso   1.000  C
  N6       1.0000 0.80010  0.02170  0.28630  Biso   1.000  N
  C13      1.0000 0.71410  0.07210  0.28820  Biso   1.000  C
  O10      1.0000 0.95110  0.25140  0.45550  Biso   1.000  O
  C14      1.0000 0.64090  0.05320  0.32490  Biso   1.000  C
  H13      1.0000 0.66350  0.99990  0.34320  Biso   1.000  H
  H14      1.0000 0.57850  0.03650  0.31210  Biso   1.000  H
  H15      1.0000 0.63400  0.11130  0.34280  Biso   1.000  H
  C15      1.0000 0.84800  0.19020  0.19650  Biso   1.000  C
  H16      1.0000 0.91200  0.16550  0.18910  Biso   1.000  H
  H17      1.0000 0.85320  0.25770  0.20540  Biso   1.000  H
  H18      1.0000 0.80580  0.18520  0.17090  Biso   1.000  H
  O11      1.0000 0.78830  0.14120  0.45560  Biso   1.000  O
  O12      1.0000 0.87140  0.02460  0.39400  Biso   1.000  O
  Mo4      1.0000 0.10898  0.83726  0.41934  Biso   1.000  Mo
  O13      1.0000 0.98660  0.91040  0.47000  Biso   1.000  O
  N7       1.0000 0.14170  0.94330  0.25320  Biso   1.000  N
  C16      1.0000 0.19420  0.86900  0.23420  Biso   1.000  C
  C17      1.0000 0.28370  0.85820  0.25540  Biso   1.000  C
  N8       1.0000 0.19990  0.97830  0.28630  Biso   1.000  N
  C18      1.0000 0.28590  0.92790  0.28820  Biso   1.000  C
  O14      1.0000 0.04890  0.74860  0.45550  Biso   1.000  O
  C19      1.0000 0.35910  0.94680  0.32490  Biso   1.000  C
  H19      1.0000 0.33650  0.00010  0.34320  Biso   1.000  H
  H20      1.0000 0.42150  0.96350  0.31210  Biso   1.000  H
  H21      1.0000 0.36600  0.88870  0.34280  Biso   1.000  H
  C20      1.0000 0.15200  0.80980  0.19650  Biso   1.000  C
  H22      1.0000 0.08800  0.83450  0.18910  Biso   1.000  H
  H23      1.0000 0.14680  0.74230  0.20540  Biso   1.000  H
  H24      1.0000 0.19420  0.81480  0.17090  Biso   1.000  H
  O15      1.0000 0.21170  0.85880  0.45560  Biso   1.000  O
  O16      1.0000 0.12860  0.97540  0.39400  Biso   1.000  O
  Mo5      1.0000 0.33726  0.60898  0.08066  Biso   1.000  Mo
  O17      1.0000 0.41040  0.48660  0.03000  Biso   1.000  O
  N9       1.0000 0.44330  0.64170  0.24680  Biso   1.000  N
  C21      1.0000 0.36900  0.69420  0.26580  Biso   1.000  C
  C22      1.0000 0.35820  0.78370  0.24460  Biso   1.000  C
  N10      1.0000 0.47830  0.69990  0.21370  Biso   1.000  N
  C23      1.0000 0.42790  0.78590  0.21180  Biso   1.000  C
  O18      1.0000 0.24860  0.54890  0.04450  Biso   1.000  O
  C24      1.0000 0.44680  0.85910  0.17510  Biso   1.000  C
  H25      1.0000 0.50010  0.83650  0.15680  Biso   1.000  H
  H26      1.0000 0.46350  0.92150  0.18790  Biso   1.000  H
  H27      1.0000 0.38870  0.86600  0.15720  Biso   1.000  H
  C25      1.0000 0.30980  0.65200  0.30350  Biso   1.000  C
  H28      1.0000 0.33450  0.58800  0.31090  Biso   1.000  H
  H29      1.0000 0.24230  0.64680  0.29460  Biso   1.000  H
  H30      1.0000 0.31480  0.69420  0.32910  Biso   1.000  H
  O19      1.0000 0.35880  0.71170  0.04440  Biso   1.000  O
  O20      1.0000 0.47540  0.62860  0.10600  Biso   1.000  O
  Mo6      1.0000 0.66274  0.39102  0.08066  Biso   1.000  Mo
  O21      1.0000 0.58960  0.51340  0.03000  Biso   1.000  O
  N11      1.0000 0.55670  0.35830  0.24680  Biso   1.000  N
  C26      1.0000 0.63100  0.30580  0.26580  Biso   1.000  C
  C27      1.0000 0.64180  0.21630  0.24460  Biso   1.000  C
  N12      1.0000 0.52170  0.30010  0.21370  Biso   1.000  N
  C28      1.0000 0.57210  0.21410  0.21180  Biso   1.000  C
  O22      1.0000 0.75140  0.45110  0.04450  Biso   1.000  O
  C29      1.0000 0.55320  0.14090  0.17510  Biso   1.000  C
  H31      1.0000 0.49990  0.16350  0.15680  Biso   1.000  H
  H32      1.0000 0.53650  0.07850  0.18790  Biso   1.000  H
  H33      1.0000 0.61130  0.13400  0.15720  Biso   1.000  H
  C30      1.0000 0.69020  0.34800  0.30350  Biso   1.000  C
  H34      1.0000 0.66550  0.41200  0.31090  Biso   1.000  H
  H35      1.0000 0.75770  0.35320  0.29460  Biso   1.000  H
  H36      1.0000 0.68520  0.30580  0.32910  Biso   1.000  H
  O23      1.0000 0.64120  0.28830  0.04440  Biso   1.000  O
  O24      1.0000 0.52460  0.37140  0.10600  Biso   1.000  O
  Mo7      1.0000 0.60898  0.66274  0.08066  Biso   1.000  Mo
  O25      1.0000 0.48660  0.58960  0.03000  Biso   1.000  O
  N13      1.0000 0.64170  0.55670  0.24680  Biso   1.000  N
  C31      1.0000 0.69420  0.63100  0.26580  Biso   1.000  C
  C32      1.0000 0.78370  0.64180  0.24460  Biso   1.000  C
  N14      1.0000 0.69990  0.52170  0.21370  Biso   1.000  N
  C33      1.0000 0.78590  0.57210  0.21180  Biso   1.000  C
  O26      1.0000 0.54890  0.75140  0.04450  Biso   1.000  O
  C34      1.0000 0.85910  0.55320  0.17510  Biso   1.000  C
  H37      1.0000 0.83650  0.49990  0.15680  Biso   1.000  H
  H38      1.0000 0.92150  0.53650  0.18790  Biso   1.000  H
  H39      1.0000 0.86600  0.61130  0.15720  Biso   1.000  H
  C35      1.0000 0.65200  0.69020  0.30350  Biso   1.000  C
  H40      1.0000 0.58800  0.66550  0.31090  Biso   1.000  H
  H41      1.0000 0.64680  0.75770  0.29460  Biso   1.000  H
  H42      1.0000 0.69420  0.68520  0.32910  Biso   1.000  H
  O27      1.0000 0.71170  0.64120  0.04440  Biso   1.000  O
  O28      1.0000 0.62860  0.52460  0.10600  Biso   1.000  O
  Mo8      1.0000 0.39102  0.33726  0.08066  Biso   1.000  Mo
  O29      1.0000 0.51340  0.41040  0.03000  Biso   1.000  O
  N15      1.0000 0.35830  0.44330  0.24680  Biso   1.000  N
  C36      1.0000 0.30580  0.36900  0.26580  Biso   1.000  C
  C37      1.0000 0.21630  0.35820  0.24460  Biso   1.000  C
  N16      1.0000 0.30010  0.47830  0.21370  Biso   1.000  N
  C38      1.0000 0.21410  0.42790  0.21180  Biso   1.000  C
  O30      1.0000 0.45110  0.24860  0.04450  Biso   1.000  O
  C39      1.0000 0.14090  0.44680  0.17510  Biso   1.000  C
  H43      1.0000 0.16350  0.50010  0.15680  Biso   1.000  H
  H44      1.0000 0.07850  0.46350  0.18790  Biso   1.000  H
  H45      1.0000 0.13400  0.38870  0.15720  Biso   1.000  H
  C40      1.0000 0.34800  0.30980  0.30350  Biso   1.000  C
  H46      1.0000 0.41200  0.33450  0.31090  Biso   1.000  H
  H47      1.0000 0.35320  0.24230  0.29460  Biso   1.000  H
  H48      1.0000 0.30580  0.31480  0.32910  Biso   1.000  H
  O31      1.0000 0.28830  0.35880  0.04440  Biso   1.000  O
  O32      1.0000 0.37140  0.47540  0.10600  Biso   1.000  O
  Mo9      1.0000 0.83726  0.89102  0.58066  Biso   1.000  Mo
  O33      1.0000 0.91040  0.01340  0.53000  Biso   1.000  O
  N17      1.0000 0.94330  0.85830  0.74680  Biso   1.000  N
  C41      1.0000 0.86900  0.80580  0.76580  Biso   1.000  C
  C42      1.0000 0.85820  0.71630  0.74460  Biso   1.000  C
  N18      1.0000 0.97830  0.80010  0.71370  Biso   1.000  N
  C43      1.0000 0.92790  0.71410  0.71180  Biso   1.000  C
  O34      1.0000 0.74860  0.95110  0.54450  Biso   1.000  O
  C44      1.0000 0.94680  0.64090  0.67510  Biso   1.000  C
  H49      1.0000 0.00010  0.66350  0.65680  Biso   1.000  H
  H50      1.0000 0.96350  0.57850  0.68790  Biso   1.000  H
  H51      1.0000 0.88870  0.63400  0.65720  Biso   1.000  H
  C45      1.0000 0.80980  0.84800  0.80350  Biso   1.000  C
  H52      1.0000 0.83450  0.91200  0.81090  Biso   1.000  H
  H53      1.0000 0.74230  0.85320  0.79460  Biso   1.000  H
  H54      1.0000 0.81480  0.80580  0.82910  Biso   1.000  H
  O35      1.0000 0.85880  0.78830  0.54440  Biso   1.000  O
  O36      1.0000 0.97540  0.87140  0.60600  Biso   1.000  O
  Mo10     1.0000 0.16274  0.10898  0.58066  Biso   1.000  Mo
  O37      1.0000 0.08960  0.98660  0.53000  Biso   1.000  O
  N19      1.0000 0.05670  0.14170  0.74680  Biso   1.000  N
  C46      1.0000 0.13100  0.19420  0.76580  Biso   1.000  C
  C47      1.0000 0.14180  0.28370  0.74460  Biso   1.000  C
  N20      1.0000 0.02170  0.19990  0.71370  Biso   1.000  N
  C48      1.0000 0.07210  0.28590  0.71180  Biso   1.000  C
  O38      1.0000 0.25140  0.04890  0.54450  Biso   1.000  O
  C49      1.0000 0.05320  0.35910  0.67510  Biso   1.000  C
  H55      1.0000 0.99990  0.33650  0.65680  Biso   1.000  H
  H56      1.0000 0.03650  0.42150  0.68790  Biso   1.000  H
  H57      1.0000 0.11130  0.36600  0.65720  Biso   1.000  H
  C50      1.0000 0.19020  0.15200  0.80350  Biso   1.000  C
  H58      1.0000 0.16550  0.08800  0.81090  Biso   1.000  H
  H59      1.0000 0.25770  0.14680  0.79460  Biso   1.000  H
  H60      1.0000 0.18520  0.19420  0.82910  Biso   1.000  H
  O39      1.0000 0.14120  0.21170  0.54440  Biso   1.000  O
  O40      1.0000 0.02460  0.12860  0.60600  Biso   1.000  O
  Mo11     1.0000 0.10898  0.83726  0.58066  Biso   1.000  Mo
  O41      1.0000 0.98660  0.91040  0.53000  Biso   1.000  O
  N21      1.0000 0.14170  0.94330  0.74680  Biso   1.000  N
  C51      1.0000 0.19420  0.86900  0.76580  Biso   1.000  C
  C52      1.0000 0.28370  0.85820  0.74460  Biso   1.000  C
  N22      1.0000 0.19990  0.97830  0.71370  Biso   1.000  N
  C53      1.0000 0.28590  0.92790  0.71180  Biso   1.000  C
  O42      1.0000 0.04890  0.74860  0.54450  Biso   1.000  O
  C54      1.0000 0.35910  0.94680  0.67510  Biso   1.000  C
  H61      1.0000 0.33650  0.00010  0.65680  Biso   1.000  H
  H62      1.0000 0.42150  0.96350  0.68790  Biso   1.000  H
  H63      1.0000 0.36600  0.88870  0.65720  Biso   1.000  H
  C55      1.0000 0.15200  0.80980  0.80350  Biso   1.000  C
  H64      1.0000 0.08800  0.83450  0.81090  Biso   1.000  H
  H65      1.0000 0.14680  0.74230  0.79460  Biso   1.000  H
  H66      1.0000 0.19420  0.81480  0.82910  Biso   1.000  H
  O43      1.0000 0.21170  0.85880  0.54440  Biso   1.000  O
  O44      1.0000 0.12860  0.97540  0.60600  Biso   1.000  O
  Mo12     1.0000 0.89102  0.16274  0.58066  Biso   1.000  Mo
  O45      1.0000 0.01340  0.08960  0.53000  Biso   1.000  O
  N23      1.0000 0.85830  0.05670  0.74680  Biso   1.000  N
  C56      1.0000 0.80580  0.13100  0.76580  Biso   1.000  C
  C57      1.0000 0.71630  0.14180  0.74460  Biso   1.000  C
  N24      1.0000 0.80010  0.02170  0.71370  Biso   1.000  N
  C58      1.0000 0.71410  0.07210  0.71180  Biso   1.000  C
  O46      1.0000 0.95110  0.25140  0.54450  Biso   1.000  O
  C59      1.0000 0.64090  0.05320  0.67510  Biso   1.000  C
  H67      1.0000 0.66350  0.99990  0.65680  Biso   1.000  H
  H68      1.0000 0.57850  0.03650  0.68790  Biso   1.000  H
  H69      1.0000 0.63400  0.11130  0.65720  Biso   1.000  H
  C60      1.0000 0.84800  0.19020  0.80350  Biso   1.000  C
  H70      1.0000 0.91200  0.16550  0.81090  Biso   1.000  H
  H71      1.0000 0.85320  0.25770  0.79460  Biso   1.000  H
  H72      1.0000 0.80580  0.18520  0.82910  Biso   1.000  H
  O47      1.0000 0.78830  0.14120  0.54440  Biso   1.000  O
  O48      1.0000 0.87140  0.02460  0.60600  Biso   1.000  O
  Mo13     1.0000 0.66274  0.39102  0.91934  Biso   1.000  Mo
  O49      1.0000 0.58960  0.51340  0.97000  Biso   1.000  O
  N25      1.0000 0.55670  0.35830  0.75320  Biso   1.000  N
  C61      1.0000 0.63100  0.30580  0.73420  Biso   1.000  C
  C62      1.0000 0.64180  0.21630  0.75540  Biso   1.000  C
  N26      1.0000 0.52170  0.30010  0.78630  Biso   1.000  N
  C63      1.0000 0.57210  0.21410  0.78820  Biso   1.000  C
  O50      1.0000 0.75140  0.45110  0.95550  Biso   1.000  O
  C64      1.0000 0.55320  0.14090  0.82490  Biso   1.000  C
  H73      1.0000 0.49990  0.16350  0.84320  Biso   1.000  H
  H74      1.0000 0.53650  0.07850  0.81210  Biso   1.000  H
  H75      1.0000 0.61130  0.13400  0.84280  Biso   1.000  H
  C65      1.0000 0.69020  0.34800  0.69650  Biso   1.000  C
  H76      1.0000 0.66550  0.41200  0.68910  Biso   1.000  H
  H77      1.0000 0.75770  0.35320  0.70540  Biso   1.000  H
  H78      1.0000 0.68520  0.30580  0.67090  Biso   1.000  H
  O51      1.0000 0.64120  0.28830  0.95560  Biso   1.000  O
  O52      1.0000 0.52460  0.37140  0.89400  Biso   1.000  O
  Mo14     1.0000 0.33726  0.60898  0.91934  Biso   1.000  Mo
  O53      1.0000 0.41040  0.48660  0.97000  Biso   1.000  O
  N27      1.0000 0.44330  0.64170  0.75320  Biso   1.000  N
  C66      1.0000 0.36900  0.69420  0.73420  Biso   1.000  C
  C67      1.0000 0.35820  0.78370  0.75540  Biso   1.000  C
  N28      1.0000 0.47830  0.69990  0.78630  Biso   1.000  N
  C68      1.0000 0.42790  0.78590  0.78820  Biso   1.000  C
  O54      1.0000 0.24860  0.54890  0.95550  Biso   1.000  O
  C69      1.0000 0.44680  0.85910  0.82490  Biso   1.000  C
  H79      1.0000 0.50010  0.83650  0.84320  Biso   1.000  H
  H80      1.0000 0.46350  0.92150  0.81210  Biso   1.000  H
  H81      1.0000 0.38870  0.86600  0.84280  Biso   1.000  H
  C70      1.0000 0.30980  0.65200  0.69650  Biso   1.000  C
  H82      1.0000 0.33450  0.58800  0.68910  Biso   1.000  H
  H83      1.0000 0.24230  0.64680  0.70540  Biso   1.000  H
  H84      1.0000 0.31480  0.69420  0.67090  Biso   1.000  H
  O55      1.0000 0.35880  0.71170  0.95560  Biso   1.000  O
  O56      1.0000 0.47540  0.62860  0.89400  Biso   1.000  O
  Mo15     1.0000 0.39102  0.33726  0.91934  Biso   1.000  Mo
  O57      1.0000 0.51340  0.41040  0.97000  Biso   1.000  O
  N29      1.0000 0.35830  0.44330  0.75320  Biso   1.000  N
  C71      1.0000 0.30580  0.36900  0.73420  Biso   1.000  C
  C72      1.0000 0.21630  0.35820  0.75540  Biso   1.000  C
  N30      1.0000 0.30010  0.47830  0.78630  Biso   1.000  N
  C73      1.0000 0.21410  0.42790  0.78820  Biso   1.000  C
  O58      1.0000 0.45110  0.24860  0.95550  Biso   1.000  O
  C74      1.0000 0.14090  0.44680  0.82490  Biso   1.000  C
  H85      1.0000 0.16350  0.50010  0.84320  Biso   1.000  H
  H86      1.0000 0.07850  0.46350  0.81210  Biso   1.000  H
  H87      1.0000 0.13400  0.38870  0.84280  Biso   1.000  H
  C75      1.0000 0.34800  0.30980  0.69650  Biso   1.000  C
  H88      1.0000 0.41200  0.33450  0.68910  Biso   1.000  H
  H89      1.0000 0.35320  0.24230  0.70540  Biso   1.000  H
  H90      1.0000 0.30580  0.31480  0.67090  Biso   1.000  H
  O59      1.0000 0.28830  0.35880  0.95560  Biso   1.000  O
  O60      1.0000 0.37140  0.47540  0.89400  Biso   1.000  O
  Mo16     1.0000 0.60898  0.66274  0.91934  Biso   1.000  Mo
  O61      1.0000 0.48660  0.58960  0.97000  Biso   1.000  O
  N31      1.0000 0.64170  0.55670  0.75320  Biso   1.000  N
  C76      1.0000 0.69420  0.63100  0.73420  Biso   1.000  C
  C77      1.0000 0.78370  0.64180  0.75540  Biso   1.000  C
  N32      1.0000 0.69990  0.52170  0.78630  Biso   1.000  N
  C78      1.0000 0.78590  0.57210  0.78820  Biso   1.000  C
  O62      1.0000 0.54890  0.75140  0.95550  Biso   1.000  O
  C79      1.0000 0.85910  0.55320  0.82490  Biso   1.000  C
  H91      1.0000 0.83650  0.49990  0.84320  Biso   1.000  H
  H92      1.0000 0.92150  0.53650  0.81210  Biso   1.000  H
  H93      1.0000 0.86600  0.61130  0.84280  Biso   1.000  H
  C80      1.0000 0.65200  0.69020  0.69650  Biso   1.000  C
  H94      1.0000 0.58800  0.66550  0.68910  Biso   1.000  H
  H95      1.0000 0.64680  0.75770  0.70540  Biso   1.000  H
  H96      1.0000 0.69420  0.68520  0.67090  Biso   1.000  H
  O63      1.0000 0.71170  0.64120  0.95560  Biso   1.000  O
  O64      1.0000 0.62860  0.52460  0.89400  Biso   1.000  O
  Ni1      1.0000 0.00000  0.00000  0.24727  Biso   1.000  Ni
  V1       1.0000 0.00000  0.00000  0.37039  Biso   1.000  V
  O65      1.0000 0.00000  0.00000  0.31600  Biso   1.000  O
  Ni2      1.0000 0.50000  0.50000  0.25273  Biso   1.000  Ni
  V2       1.0000 0.50000  0.50000  0.12961  Biso   1.000  V
  O66      1.0000 0.50000  0.50000  0.18400  Biso   1.000  O
  Ni3      1.0000 0.00000  0.00000  0.75273  Biso   1.000  Ni
  V3       1.0000 0.00000  0.00000  0.62961  Biso   1.000  V
  O67      1.0000 0.00000  0.00000  0.68400  Biso   1.000  O
  Ni4      1.0000 0.50000  0.50000  0.74727  Biso   1.000  Ni
  V4       1.0000 0.50000  0.50000  0.87039  Biso   1.000  V
  O68      1.0000 0.50000  0.50000  0.81600  Biso   1.000  O
  P1       1.0000 0.00000  0.00000  0.50000  Biso   1.000  P
  P2       1.0000 0.50000  0.50000  0.00000  Biso   1.000  P
  Mo17     1.0000 0.26028  0.94800  0.50000  Biso   1.000  Mo
  V5       1.0000 0.24720  0.16210  0.50000  Biso   1.000  V
  Mo18     1.0000 0.73972  0.05200  0.50000  Biso   1.000  Mo
  V6       1.0000 0.75280  0.83790  0.50000  Biso   1.000  V
  Mo19     1.0000 0.05200  0.26028  0.50000  Biso   1.000  Mo
  V7       1.0000 0.83790  0.24720  0.50000  Biso   1.000  V
  Mo20     1.0000 0.94800  0.73972  0.50000  Biso   1.000  Mo
  V8       1.0000 0.16210  0.75280  0.50000  Biso   1.000  V
  Mo21     1.0000 0.23972  0.44800  0.00000  Biso   1.000  Mo
  V9       1.0000 0.25280  0.66210  0.00000  Biso   1.000  V
  Mo22     1.0000 0.76028  0.55200  0.00000  Biso   1.000  Mo
  V10      1.0000 0.74720  0.33790  0.00000  Biso   1.000  V
  Mo23     1.0000 0.44800  0.76028  0.00000  Biso   1.000  Mo
  V11      1.0000 0.66210  0.74720  0.00000  Biso   1.000  V
  Mo24     1.0000 0.55200  0.23972  0.00000  Biso   1.000  Mo
  V12      1.0000 0.33790  0.25280  0.00000  Biso   1.000  V
