data_image0
_cell_length_a       12.7593
_cell_length_b       15.0296
_cell_length_c       16.9098
_cell_angle_alpha    114.509
_cell_angle_beta     94.816
_cell_angle_gamma    90.432

_symmetry_space_group_name_H-M    "P 1"
_symmetry_int_tables_number       1

loop_
  _symmetry_equiv_pos_as_xyz
  'x, y, z'

loop_
  _atom_site_label
  _atom_site_occupancy
  _atom_site_fract_x
  _atom_site_fract_y
  _atom_site_fract_z
  _atom_site_thermal_displace_type
  _atom_site_B_iso_or_equiv
  _atom_site_type_symbol
  C1       1.0000 0.83990  0.04050  0.59250  Biso   1.000  C
  H1       1.0000 0.86870  0.97450  0.56840  Biso   1.000  H
  H2       1.0000 0.76230  0.03310  0.58040  Biso   1.000  H
  C2       1.0000 0.87010  0.09100  0.69050  Biso   1.000  C
  H3       1.0000 0.94600  0.11060  0.70080  Biso   1.000  H
  H4       1.0000 0.85930  0.04350  0.71600  Biso   1.000  H
  C3       1.0000 0.80820  0.18130  0.73790  Biso   1.000  C
  H5       1.0000 0.82540  0.23340  0.71900  Biso   1.000  H
  H6       1.0000 0.73170  0.16460  0.72410  Biso   1.000  H
  C4       1.0000 0.83760  0.21660  0.83510  Biso   1.000  C
  H7       1.0000 0.82640  0.16250  0.85290  Biso   1.000  H
  H8       1.0000 0.91280  0.23870  0.84950  Biso   1.000  H
  C5       1.0000 0.78550  0.33390  0.96980  Biso   1.000  C
  C6       1.0000 0.84980  0.29300  0.01590  Biso   1.000  C
  H9       1.0000 0.88830  0.23710  0.98560  Biso   1.000  H
  C7       1.0000 0.85680  0.33550  0.10680  Biso   1.000  C
  C8       1.0000 0.80240  0.41840  0.15200  Biso   1.000  C
  H10      1.0000 0.80710  0.44710  0.21400  Biso   1.000  H
  C9       1.0000 0.74000  0.45890  0.10340  Biso   1.000  C
  C10      1.0000 0.73210  0.41630  0.01340  Biso   1.000  C
  H11      1.0000 0.68950  0.44410  0.98140  Biso   1.000  H
  C11      1.0000 0.68350  0.54970  0.15070  Biso   1.000  C
  C12      1.0000 0.92980  0.29240  0.15410  Biso   1.000  C
  C13      1.0000 0.22380  0.08310  0.15670  Biso   1.000  C
  C14      1.0000 0.29470  0.00320  0.10770  Biso   1.000  C
  C15      1.0000 0.30040  0.97940  0.01970  Biso   1.000  C
  H12      1.0000 0.26340  0.01560  0.99260  Biso   1.000  H
  C16      1.0000 0.36070  0.90260  0.97160  Biso   1.000  C
  C17      1.0000 0.40990  0.84740  0.01140  Biso   1.000  C
  H13      1.0000 0.44780  0.79230  0.97780  Biso   1.000  H
  C18      1.0000 0.40450  0.87140  0.09790  Biso   1.000  C
  C19      1.0000 0.34660  0.95130  0.14920  Biso   1.000  C
  H14      1.0000 0.34340  0.96880  0.20980  Biso   1.000  H
  C20      1.0000 0.45870  0.81150  0.14190  Biso   1.000  C
  C21      1.0000 0.33640  0.94040  0.84680  Biso   1.000  C
  H15      1.0000 0.36800  0.00720  0.88090  Biso   1.000  H
  H16      1.0000 0.25890  0.94330  0.84620  Biso   1.000  H
  C22      1.0000 0.36790  0.90020  0.75460  Biso   1.000  C
  H17      1.0000 0.44500  0.89300  0.75640  Biso   1.000  H
  H18      1.0000 0.35110  0.94790  0.72950  Biso   1.000  H
  C23      1.0000 0.31320  0.80150  0.69490  Biso   1.000  C
  H19      1.0000 0.33650  0.75160  0.71580  Biso   1.000  H
  H20      1.0000 0.23620  0.80630  0.69780  Biso   1.000  H
  C24      1.0000 0.33760  0.76930  0.60100  Biso   1.000  C
  H21      1.0000 0.30890  0.81520  0.57720  Biso   1.000  H
  H22      1.0000 0.41470  0.76760  0.59730  Biso   1.000  H
  C25      1.0000 0.30050  0.62680  0.46560  Biso   1.000  C
  C26      1.0000 0.35950  0.66490  0.42060  Biso   1.000  C
  H23      1.0000 0.39660  0.72650  0.45040  Biso   1.000  H
  C27      1.0000 0.36340  0.61090  0.33050  Biso   1.000  C
  C28      1.0000 0.30830  0.52100  0.28540  Biso   1.000  C
  H24      1.0000 0.30910  0.48670  0.22400  Biso   1.000  H
  C29      1.0000 0.25250  0.48250  0.33140  Biso   1.000  C
  C30      1.0000 0.24750  0.53420  0.42190  Biso   1.000  C
  H25      1.0000 0.20900  0.50720  0.45300  Biso   1.000  H
  C31      1.0000 0.19640  0.38490  0.28720  Biso   1.000  C
  C32      1.0000 0.43380  0.64940  0.28490  Biso   1.000  C
  O1       1.0000 0.77360  0.29550  0.88050  Biso   1.000  O
  O2       1.0000 0.64470  0.59630  0.10690  Biso   1.000  O
  O3       1.0000 0.67380  0.58240  0.23070  Biso   1.000  O
  O4       1.0000 0.94440  0.32890  0.23640  Biso   1.000  O
  O5       1.0000 0.98220  0.22050  0.10910  Biso   1.000  O
  O6       1.0000 0.16650  0.11990  0.11470  Biso   1.000  O
  O7       1.0000 0.22120  0.11330  0.23770  Biso   1.000  O
  O8       1.0000 0.47150  0.84290  0.22230  Biso   1.000  O
  O9       1.0000 0.49520  0.73060  0.09310  Biso   1.000  O
  O10      1.0000 0.37430  0.87520  0.88560  Biso   1.000  O
  O11      1.0000 0.28850  0.67250  0.55240  Biso   1.000  O
  O12      1.0000 0.17800  0.34620  0.20600  Biso   1.000  O
  O13      1.0000 0.16710  0.34160  0.33230  Biso   1.000  O
  O14      1.0000 0.43470  0.60690  0.20240  Biso   1.000  O
  O15      1.0000 0.49610  0.72110  0.32770  Biso   1.000  O
  C33      1.0000 0.97360  0.12050  0.28940  Biso   1.000  C
  C34      1.0000 0.91750  0.06870  0.33130  Biso   1.000  C
  C35      1.0000 0.92370  0.10630  0.42170  Biso   1.000  C
  H26      1.0000 0.96430  0.16510  0.45600  Biso   1.000  H
  C36      1.0000 0.86960  0.05740  0.46300  Biso   1.000  C
  C37      1.0000 0.80860  0.97330  0.41160  Biso   1.000  C
  H27      1.0000 0.77170  0.94000  0.43850  Biso   1.000  H
  C38      1.0000 0.80080  0.93750  0.32150  Biso   1.000  C
  C39      1.0000 0.85460  0.98270  0.28120  Biso   1.000  C
  H28      1.0000 0.84980  0.95640  0.21930  Biso   1.000  H
  C40      1.0000 0.72720  0.85110  0.26930  Biso   1.000  C
  O16      1.0000 0.97270  0.08740  0.20700  Biso   1.000  O
  O17      1.0000 0.02550  0.19970  0.33470  Biso   1.000  O
  O18      1.0000 0.70240  0.82820  0.19070  Biso   1.000  O
  O19      1.0000 0.68780  0.80600  0.30930  Biso   1.000  O
  O20      1.0000 0.88230  0.09960  0.55180  Biso   1.000  O
  In1      1.0000 0.08178  0.21821  0.22132  Biso   1.000  In
  In2      1.0000 0.57124  0.71066  0.20879  Biso   1.000  In
  C41      1.0000 0.16010  0.95950  0.40750  Biso   1.000  C
  H29      1.0000 0.13130  0.02550  0.43160  Biso   1.000  H
  H30      1.0000 0.23770  0.96690  0.41960  Biso   1.000  H
  C42      1.0000 0.12990  0.90900  0.30950  Biso   1.000  C
  H31      1.0000 0.05400  0.88940  0.29920  Biso   1.000  H
  H32      1.0000 0.14070  0.95650  0.28400  Biso   1.000  H
  C43      1.0000 0.19180  0.81870  0.26210  Biso   1.000  C
  H33      1.0000 0.17460  0.76660  0.28100  Biso   1.000  H
  H34      1.0000 0.26830  0.83540  0.27590  Biso   1.000  H
  C44      1.0000 0.16240  0.78340  0.16490  Biso   1.000  C
  H35      1.0000 0.17360  0.83750  0.14710  Biso   1.000  H
  H36      1.0000 0.08720  0.76130  0.15050  Biso   1.000  H
  C45      1.0000 0.21450  0.66610  0.03020  Biso   1.000  C
  C46      1.0000 0.15020  0.70700  0.98410  Biso   1.000  C
  H37      1.0000 0.11170  0.76290  0.01440  Biso   1.000  H
  C47      1.0000 0.14320  0.66450  0.89320  Biso   1.000  C
  C48      1.0000 0.19760  0.58160  0.84800  Biso   1.000  C
  H38      1.0000 0.19290  0.55290  0.78600  Biso   1.000  H
  C49      1.0000 0.26000  0.54110  0.89660  Biso   1.000  C
  C50      1.0000 0.26790  0.58370  0.98660  Biso   1.000  C
  H39      1.0000 0.31050  0.55590  0.01860  Biso   1.000  H
  C51      1.0000 0.31650  0.45030  0.84930  Biso   1.000  C
  C52      1.0000 0.07020  0.70760  0.84590  Biso   1.000  C
  C53      1.0000 0.77620  0.91690  0.84330  Biso   1.000  C
  C54      1.0000 0.70530  0.99680  0.89230  Biso   1.000  C
  C55      1.0000 0.69960  0.02060  0.98030  Biso   1.000  C
  H40      1.0000 0.73660  0.98440  0.00740  Biso   1.000  H
  C56      1.0000 0.63930  0.09740  0.02840  Biso   1.000  C
  C57      1.0000 0.59010  0.15260  0.98860  Biso   1.000  C
  H41      1.0000 0.55220  0.20770  0.02220  Biso   1.000  H
  C58      1.0000 0.59550  0.12860  0.90210  Biso   1.000  C
  C59      1.0000 0.65340  0.04870  0.85080  Biso   1.000  C
  H42      1.0000 0.65660  0.03120  0.79020  Biso   1.000  H
  C60      1.0000 0.54130  0.18850  0.85810  Biso   1.000  C
  C61      1.0000 0.66360  0.05960  0.15320  Biso   1.000  C
  H43      1.0000 0.63200  0.99280  0.11910  Biso   1.000  H
  H44      1.0000 0.74110  0.05670  0.15380  Biso   1.000  H
  C62      1.0000 0.63210  0.09980  0.24540  Biso   1.000  C
  H45      1.0000 0.55500  0.10700  0.24360  Biso   1.000  H
  H46      1.0000 0.64890  0.05210  0.27050  Biso   1.000  H
  C63      1.0000 0.68680  0.19850  0.30510  Biso   1.000  C
  H47      1.0000 0.66350  0.24840  0.28420  Biso   1.000  H
  H48      1.0000 0.76380  0.19370  0.30220  Biso   1.000  H
  C64      1.0000 0.66240  0.23070  0.39900  Biso   1.000  C
  H49      1.0000 0.69110  0.18480  0.42280  Biso   1.000  H
  H50      1.0000 0.58530  0.23240  0.40270  Biso   1.000  H
  C65      1.0000 0.69950  0.37320  0.53440  Biso   1.000  C
  C66      1.0000 0.64050  0.33510  0.57940  Biso   1.000  C
  H51      1.0000 0.60340  0.27350  0.54960  Biso   1.000  H
  C67      1.0000 0.63660  0.38910  0.66950  Biso   1.000  C
  C68      1.0000 0.69170  0.47900  0.71460  Biso   1.000  C
  H52      1.0000 0.69090  0.51330  0.77600  Biso   1.000  H
  C69      1.0000 0.74750  0.51750  0.66860  Biso   1.000  C
  C70      1.0000 0.75250  0.46580  0.57810  Biso   1.000  C
  H53      1.0000 0.79100  0.49280  0.54700  Biso   1.000  H
  C71      1.0000 0.80360  0.61510  0.71280  Biso   1.000  C
  C72      1.0000 0.56620  0.35060  0.71510  Biso   1.000  C
  O21      1.0000 0.22640  0.70450  0.11950  Biso   1.000  O
  O22      1.0000 0.35530  0.40370  0.89310  Biso   1.000  O
  O23      1.0000 0.32620  0.41760  0.76930  Biso   1.000  O
  O24      1.0000 0.05560  0.67110  0.76360  Biso   1.000  O
  O25      1.0000 0.01780  0.77950  0.89090  Biso   1.000  O
  O26      1.0000 0.83350  0.88010  0.88530  Biso   1.000  O
  O27      1.0000 0.77880  0.88670  0.76230  Biso   1.000  O
  O28      1.0000 0.52850  0.15710  0.77770  Biso   1.000  O
  O29      1.0000 0.50480  0.26940  0.90690  Biso   1.000  O
  O30      1.0000 0.62570  0.12480  0.11440  Biso   1.000  O
  O31      1.0000 0.71150  0.32750  0.44760  Biso   1.000  O
  O32      1.0000 0.82200  0.65380  0.79400  Biso   1.000  O
  O33      1.0000 0.83290  0.65840  0.66770  Biso   1.000  O
  O34      1.0000 0.56530  0.39310  0.79760  Biso   1.000  O
  O35      1.0000 0.50390  0.27890  0.67230  Biso   1.000  O
  C73      1.0000 0.02640  0.87950  0.71060  Biso   1.000  C
  C74      1.0000 0.08250  0.93130  0.66870  Biso   1.000  C
  C75      1.0000 0.07630  0.89370  0.57830  Biso   1.000  C
  H54      1.0000 0.03570  0.83490  0.54400  Biso   1.000  H
  C76      1.0000 0.13040  0.94260  0.53700  Biso   1.000  C
  C77      1.0000 0.19140  0.02670  0.58840  Biso   1.000  C
  H55      1.0000 0.22830  0.06000  0.56150  Biso   1.000  H
  C78      1.0000 0.19920  0.06250  0.67850  Biso   1.000  C
  C79      1.0000 0.14540  0.01730  0.71880  Biso   1.000  C
  H56      1.0000 0.15020  0.04360  0.78070  Biso   1.000  H
  C80      1.0000 0.27280  0.14890  0.73070  Biso   1.000  C
  O36      1.0000 0.02730  0.91260  0.79300  Biso   1.000  O
  O37      1.0000 0.97450  0.80030  0.66530  Biso   1.000  O
  O38      1.0000 0.29760  0.17180  0.80930  Biso   1.000  O
  O39      1.0000 0.31220  0.19400  0.69070  Biso   1.000  O
  O40      1.0000 0.11770  0.90040  0.44820  Biso   1.000  O
  In3      1.0000 0.91822  0.78179  0.77868  Biso   1.000  In
  In4      1.0000 0.42876  0.28934  0.79121  Biso   1.000  In
