data_image0
_cell_length_a       14.4863
_cell_length_b       15.9733
_cell_length_c       16.5214
_cell_angle_alpha    90
_cell_angle_beta     101.128
_cell_angle_gamma    90

_symmetry_space_group_name_H-M    "P 1"
_symmetry_int_tables_number       1

loop_
  _symmetry_equiv_pos_as_xyz
  'x, y, z'

loop_
  _atom_site_label
  _atom_site_occupancy
  _atom_site_fract_x
  _atom_site_fract_y
  _atom_site_fract_z
  _atom_site_thermal_displace_type
  _atom_site_B_iso_or_equiv
  _atom_site_type_symbol
  C1       1.0000 0.02140  0.53240  0.40090  Biso   1.000  C
  H1       1.0000 0.05220  0.48450  0.38840  Biso   1.000  H
  C2       1.0000 0.92520  0.53450  0.37990  Biso   1.000  C
  H2       1.0000 0.89250  0.48880  0.35380  Biso   1.000  H
  C3       1.0000 0.87710  0.60424  0.39738  Biso   1.000  C
  C4       1.0000 0.92990  0.66810  0.43930  Biso   1.000  C
  H3       1.0000 0.90140  0.71640  0.45440  Biso   1.000  H
  C5       1.0000 0.02620  0.65820  0.45820  Biso   1.000  C
  H4       1.0000 0.06060  0.70110  0.48800  Biso   1.000  H
  C6       1.0000 0.77150  0.60691  0.37340  Biso   1.000  C
  H5       1.0000 0.75300  0.59700  0.31460  Biso   1.000  H
  H6       1.0000 0.74500  0.56250  0.40180  Biso   1.000  H
  C7       1.0000 0.74530  0.75416  0.34499  Biso   1.000  C
  C8       1.0000 0.74480  0.74926  0.26131  Biso   1.000  C
  H7       1.0000 0.73910  0.69770  0.23470  Biso   1.000  H
  C9       1.0000 0.75310  0.82244  0.21712  Biso   1.000  C
  C10      1.0000 0.76300  0.89885  0.25711  Biso   1.000  C
  H8       1.0000 0.76890  0.94750  0.22760  Biso   1.000  H
  C11      1.0000 0.76410  0.90323  0.34113  Biso   1.000  C
  C12      1.0000 0.75490  0.83104  0.38515  Biso   1.000  C
  H9       1.0000 0.75510  0.83390  0.44140  Biso   1.000  H
  C13      1.0000 0.77360  0.98661  0.38500  Biso   1.000  C
  C14      1.0000 0.74920  0.81726  0.12549  Biso   1.000  C
  C15      1.0000 0.73980  0.03325  0.87390  Biso   1.000  C
  C16      1.0000 0.74830  0.11759  0.83543  Biso   1.000  C
  C17      1.0000 0.75350  0.12347  0.75228  Biso   1.000  C
  H10      1.0000 0.74930  0.07540  0.72010  Biso   1.000  H
  C18      1.0000 0.76490  0.20045  0.71750  Biso   1.000  C
  C19      1.0000 0.76910  0.27313  0.76557  Biso   1.000  C
  H11      1.0000 0.77710  0.32500  0.74240  Biso   1.000  H
  C20      1.0000 0.76130  0.26756  0.84792  Biso   1.000  C
  C21      1.0000 0.75160  0.18910  0.88282  Biso   1.000  C
  H12      1.0000 0.74730  0.18510  0.93810  Biso   1.000  H
  C22      1.0000 0.77230  0.20672  0.62836  Biso   1.000  C
  C23      1.0000 0.80210  0.41150  0.87840  Biso   1.000  C
  H13      1.0000 0.78350  0.45720  0.91050  Biso   1.000  H
  H14      1.0000 0.77970  0.42390  0.82040  Biso   1.000  H
  C24      1.0000 0.90740  0.40444  0.89530  Biso   1.000  C
  C25      1.0000 0.96060  0.42660  0.83830  Biso   1.000  C
  H15      1.0000 0.93140  0.44640  0.78680  Biso   1.000  H
  C26      1.0000 0.05640  0.41950  0.85710  Biso   1.000  C
  H16      1.0000 0.09040  0.43610  0.81750  Biso   1.000  H
  C27      1.0000 0.05120  0.36960  0.98350  Biso   1.000  C
  H17      1.0000 0.08140  0.34940  0.03460  Biso   1.000  H
  C28      1.0000 0.95550  0.37620  0.96930  Biso   1.000  C
  H18      1.0000 0.92290  0.36120  0.01040  Biso   1.000  H
  Mn1      1.0000 0.73194  0.89246  0.95579  Biso   1.000  Mn
  Mn2      1.0000 0.73395  0.62899  0.04061  Biso   1.000  Mn
  N1       1.0000 0.07360  0.59539  0.43852  Biso   1.000  N
  N2       1.0000 0.10440  0.39017  0.92924  Biso   1.000  N
  O1       1.0000 0.74774  0.88459  0.08623  Biso   1.000  O
  O2       1.0000 0.74810  0.74686  0.09364  Biso   1.000  O
  O3       1.0000 0.77129  0.05299  0.34315  Biso   1.000  O
  O4       1.0000 0.78116  0.98849  0.46172  Biso   1.000  O
  O5       1.0000 0.75224  0.02864  0.95165  Biso   1.000  O
  O6       1.0000 0.72005  0.97012  0.82970  Biso   1.000  O
  O7       1.0000 0.76061  0.14187  0.58585  Biso   1.000  O
  O8       1.0000 0.79227  0.27698  0.60251  Biso   1.000  O
  O9       1.0000 0.73377  0.68570  0.39323  Biso   1.000  O
  O10      1.0000 0.75985  0.33446  0.89936  Biso   1.000  O
  C29      1.0000 0.47860  0.03240  0.09910  Biso   1.000  C
  H19      1.0000 0.44780  0.98450  0.11160  Biso   1.000  H
  C30      1.0000 0.57480  0.03450  0.12010  Biso   1.000  C
  H20      1.0000 0.60750  0.98880  0.14620  Biso   1.000  H
  C31      1.0000 0.62290  0.10424  0.10262  Biso   1.000  C
  C32      1.0000 0.57010  0.16810  0.06070  Biso   1.000  C
  H21      1.0000 0.59860  0.21640  0.04560  Biso   1.000  H
  C33      1.0000 0.47380  0.15820  0.04180  Biso   1.000  C
  H22      1.0000 0.43940  0.20110  0.01200  Biso   1.000  H
  C34      1.0000 0.72850  0.10691  0.12660  Biso   1.000  C
  H23      1.0000 0.74700  0.09700  0.18540  Biso   1.000  H
  H24      1.0000 0.75500  0.06250  0.09820  Biso   1.000  H
  C35      1.0000 0.75470  0.25416  0.15501  Biso   1.000  C
  C36      1.0000 0.75520  0.24926  0.23869  Biso   1.000  C
  H25      1.0000 0.76090  0.19770  0.26530  Biso   1.000  H
  C37      1.0000 0.74690  0.32244  0.28288  Biso   1.000  C
  C38      1.0000 0.73700  0.39885  0.24289  Biso   1.000  C
  H26      1.0000 0.73110  0.44750  0.27240  Biso   1.000  H
  C39      1.0000 0.73590  0.40323  0.15887  Biso   1.000  C
  C40      1.0000 0.74510  0.33104  0.11485  Biso   1.000  C
  H27      1.0000 0.74490  0.33390  0.05860  Biso   1.000  H
  C41      1.0000 0.72640  0.48661  0.11500  Biso   1.000  C
  C42      1.0000 0.75080  0.31726  0.37451  Biso   1.000  C
  C43      1.0000 0.76020  0.53325  0.62610  Biso   1.000  C
  C44      1.0000 0.75170  0.61759  0.66457  Biso   1.000  C
  C45      1.0000 0.74650  0.62347  0.74772  Biso   1.000  C
  H28      1.0000 0.75070  0.57540  0.77990  Biso   1.000  H
  C46      1.0000 0.73510  0.70045  0.78250  Biso   1.000  C
  C47      1.0000 0.73090  0.77313  0.73443  Biso   1.000  C
  H29      1.0000 0.72290  0.82500  0.75760  Biso   1.000  H
  C48      1.0000 0.73870  0.76756  0.65208  Biso   1.000  C
  C49      1.0000 0.74840  0.68910  0.61718  Biso   1.000  C
  H30      1.0000 0.75270  0.68510  0.56190  Biso   1.000  H
  C50      1.0000 0.72770  0.70672  0.87164  Biso   1.000  C
  C51      1.0000 0.69790  0.91150  0.62160  Biso   1.000  C
  H31      1.0000 0.71650  0.95720  0.58950  Biso   1.000  H
  H32      1.0000 0.72030  0.92390  0.67960  Biso   1.000  H
  C52      1.0000 0.59260  0.90444  0.60470  Biso   1.000  C
  C53      1.0000 0.53940  0.92660  0.66170  Biso   1.000  C
  H33      1.0000 0.56860  0.94640  0.71320  Biso   1.000  H
  C54      1.0000 0.44360  0.91950  0.64290  Biso   1.000  C
  H34      1.0000 0.40960  0.93610  0.68250  Biso   1.000  H
  C55      1.0000 0.44880  0.86960  0.51650  Biso   1.000  C
  H35      1.0000 0.41860  0.84940  0.46540  Biso   1.000  H
  C56      1.0000 0.54450  0.87620  0.53070  Biso   1.000  C
  H36      1.0000 0.57710  0.86120  0.48960  Biso   1.000  H
  Mn3      1.0000 0.76806  0.39246  0.54421  Biso   1.000  Mn
  Mn4      1.0000 0.76605  0.12899  0.45939  Biso   1.000  Mn
  N3       1.0000 0.42640  0.09539  0.06148  Biso   1.000  N
  N4       1.0000 0.39560  0.89017  0.57076  Biso   1.000  N
  O11      1.0000 0.75226  0.38459  0.41377  Biso   1.000  O
  O12      1.0000 0.75190  0.24686  0.40636  Biso   1.000  O
  O13      1.0000 0.72871  0.55299  0.15685  Biso   1.000  O
  O14      1.0000 0.71884  0.48849  0.03828  Biso   1.000  O
  O15      1.0000 0.74776  0.52864  0.54835  Biso   1.000  O
  O16      1.0000 0.77995  0.47012  0.67030  Biso   1.000  O
  O17      1.0000 0.73939  0.64187  0.91415  Biso   1.000  O
  O18      1.0000 0.70773  0.77698  0.89749  Biso   1.000  O
  O19      1.0000 0.76623  0.18570  0.10677  Biso   1.000  O
  O20      1.0000 0.74015  0.83446  0.60064  Biso   1.000  O
  C57      1.0000 0.97860  0.46760  0.59910  Biso   1.000  C
  H37      1.0000 0.94780  0.51550  0.61160  Biso   1.000  H
  C58      1.0000 0.07480  0.46550  0.62010  Biso   1.000  C
  H38      1.0000 0.10750  0.51120  0.64620  Biso   1.000  H
  C59      1.0000 0.12290  0.39576  0.60262  Biso   1.000  C
  C60      1.0000 0.07010  0.33190  0.56070  Biso   1.000  C
  H39      1.0000 0.09860  0.28360  0.54560  Biso   1.000  H
  C61      1.0000 0.97380  0.34180  0.54180  Biso   1.000  C
  H40      1.0000 0.93940  0.29890  0.51200  Biso   1.000  H
  C62      1.0000 0.22850  0.39309  0.62660  Biso   1.000  C
  H41      1.0000 0.24700  0.40300  0.68540  Biso   1.000  H
  H42      1.0000 0.25500  0.43750  0.59820  Biso   1.000  H
  C63      1.0000 0.25470  0.24584  0.65501  Biso   1.000  C
  C64      1.0000 0.25520  0.25074  0.73869  Biso   1.000  C
  H43      1.0000 0.26090  0.30230  0.76530  Biso   1.000  H
  C65      1.0000 0.24690  0.17756  0.78288  Biso   1.000  C
  C66      1.0000 0.23700  0.10115  0.74289  Biso   1.000  C
  H44      1.0000 0.23110  0.05250  0.77240  Biso   1.000  H
  C67      1.0000 0.23590  0.09677  0.65887  Biso   1.000  C
  C68      1.0000 0.24510  0.16896  0.61485  Biso   1.000  C
  H45      1.0000 0.24490  0.16610  0.55860  Biso   1.000  H
  C69      1.0000 0.22640  0.01339  0.61500  Biso   1.000  C
  C70      1.0000 0.25080  0.18274  0.87451  Biso   1.000  C
  C71      1.0000 0.26020  0.96675  0.12610  Biso   1.000  C
  C72      1.0000 0.25170  0.88241  0.16457  Biso   1.000  C
  C73      1.0000 0.24650  0.87653  0.24772  Biso   1.000  C
  H46      1.0000 0.25070  0.92460  0.27990  Biso   1.000  H
  C74      1.0000 0.23510  0.79955  0.28250  Biso   1.000  C
  C75      1.0000 0.23090  0.72687  0.23443  Biso   1.000  C
  H47      1.0000 0.22290  0.67500  0.25760  Biso   1.000  H
  C76      1.0000 0.23870  0.73244  0.15208  Biso   1.000  C
  C77      1.0000 0.24840  0.81090  0.11718  Biso   1.000  C
  H48      1.0000 0.25270  0.81490  0.06190  Biso   1.000  H
  C78      1.0000 0.22770  0.79328  0.37164  Biso   1.000  C
  C79      1.0000 0.19790  0.58850  0.12160  Biso   1.000  C
  H49      1.0000 0.21650  0.54280  0.08950  Biso   1.000  H
  H50      1.0000 0.22030  0.57610  0.17960  Biso   1.000  H
  C80      1.0000 0.09260  0.59556  0.10470  Biso   1.000  C
  C81      1.0000 0.03940  0.57340  0.16170  Biso   1.000  C
  H51      1.0000 0.06860  0.55360  0.21320  Biso   1.000  H
  C82      1.0000 0.94360  0.58050  0.14290  Biso   1.000  C
  H52      1.0000 0.90960  0.56390  0.18250  Biso   1.000  H
  C83      1.0000 0.94880  0.63040  0.01650  Biso   1.000  C
  H53      1.0000 0.91860  0.65060  0.96540  Biso   1.000  H
  C84      1.0000 0.04450  0.62380  0.03070  Biso   1.000  C
  H54      1.0000 0.07710  0.63880  0.98960  Biso   1.000  H
  Mn5      1.0000 0.26806  0.10754  0.04421  Biso   1.000  Mn
  Mn6      1.0000 0.26605  0.37101  0.95939  Biso   1.000  Mn
  N5       1.0000 0.92640  0.40461  0.56148  Biso   1.000  N
  N6       1.0000 0.89560  0.60983  0.07076  Biso   1.000  N
  O21      1.0000 0.25226  0.11541  0.91377  Biso   1.000  O
  O22      1.0000 0.25190  0.25314  0.90636  Biso   1.000  O
  O23      1.0000 0.22871  0.94701  0.65685  Biso   1.000  O
  O24      1.0000 0.21884  0.01151  0.53828  Biso   1.000  O
  O25      1.0000 0.24776  0.97136  0.04835  Biso   1.000  O
  O26      1.0000 0.27995  0.02988  0.17030  Biso   1.000  O
  O27      1.0000 0.23939  0.85813  0.41415  Biso   1.000  O
  O28      1.0000 0.20773  0.72302  0.39749  Biso   1.000  O
  O29      1.0000 0.26623  0.31430  0.60677  Biso   1.000  O
  O30      1.0000 0.24015  0.66554  0.10064  Biso   1.000  O
  C85      1.0000 0.52140  0.96760  0.90090  Biso   1.000  C
  H55      1.0000 0.55220  0.01550  0.88840  Biso   1.000  H
  C86      1.0000 0.42520  0.96550  0.87990  Biso   1.000  C
  H56      1.0000 0.39250  0.01120  0.85380  Biso   1.000  H
  C87      1.0000 0.37710  0.89576  0.89738  Biso   1.000  C
  C88      1.0000 0.42990  0.83190  0.93930  Biso   1.000  C
  H57      1.0000 0.40140  0.78360  0.95440  Biso   1.000  H
  C89      1.0000 0.52620  0.84180  0.95820  Biso   1.000  C
  H58      1.0000 0.56060  0.79890  0.98800  Biso   1.000  H
  C90      1.0000 0.27150  0.89309  0.87340  Biso   1.000  C
  H59      1.0000 0.25300  0.90300  0.81460  Biso   1.000  H
  H60      1.0000 0.24500  0.93750  0.90180  Biso   1.000  H
  C91      1.0000 0.24530  0.74584  0.84499  Biso   1.000  C
  C92      1.0000 0.24480  0.75074  0.76131  Biso   1.000  C
  H61      1.0000 0.23910  0.80230  0.73470  Biso   1.000  H
  C93      1.0000 0.25310  0.67756  0.71712  Biso   1.000  C
  C94      1.0000 0.26300  0.60115  0.75711  Biso   1.000  C
  H62      1.0000 0.26890  0.55250  0.72760  Biso   1.000  H
  C95      1.0000 0.26410  0.59677  0.84113  Biso   1.000  C
  C96      1.0000 0.25490  0.66896  0.88515  Biso   1.000  C
  H63      1.0000 0.25510  0.66610  0.94140  Biso   1.000  H
  C97      1.0000 0.27360  0.51339  0.88500  Biso   1.000  C
  C98      1.0000 0.24920  0.68274  0.62549  Biso   1.000  C
  C99      1.0000 0.23980  0.46675  0.37390  Biso   1.000  C
  C100     1.0000 0.24830  0.38241  0.33543  Biso   1.000  C
  C101     1.0000 0.25350  0.37653  0.25228  Biso   1.000  C
  H64      1.0000 0.24930  0.42460  0.22010  Biso   1.000  H
  C102     1.0000 0.26490  0.29955  0.21750  Biso   1.000  C
  C103     1.0000 0.26910  0.22687  0.26557  Biso   1.000  C
  H65      1.0000 0.27710  0.17500  0.24240  Biso   1.000  H
  C104     1.0000 0.26130  0.23244  0.34792  Biso   1.000  C
  C105     1.0000 0.25160  0.31090  0.38282  Biso   1.000  C
  H66      1.0000 0.24730  0.31490  0.43810  Biso   1.000  H
  C106     1.0000 0.27230  0.29328  0.12836  Biso   1.000  C
  C107     1.0000 0.30210  0.08850  0.37840  Biso   1.000  C
  H67      1.0000 0.28350  0.04280  0.41050  Biso   1.000  H
  H68      1.0000 0.27970  0.07610  0.32040  Biso   1.000  H
  C108     1.0000 0.40740  0.09556  0.39530  Biso   1.000  C
  C109     1.0000 0.46060  0.07340  0.33830  Biso   1.000  C
  H69      1.0000 0.43140  0.05360  0.28680  Biso   1.000  H
  C110     1.0000 0.55640  0.08050  0.35710  Biso   1.000  C
  H70      1.0000 0.59040  0.06390  0.31750  Biso   1.000  H
  C111     1.0000 0.55120  0.13040  0.48350  Biso   1.000  C
  H71      1.0000 0.58140  0.15060  0.53460  Biso   1.000  H
  C112     1.0000 0.45550  0.12380  0.46930  Biso   1.000  C
  H72      1.0000 0.42290  0.13880  0.51040  Biso   1.000  H
  Mn7      1.0000 0.23194  0.60754  0.45579  Biso   1.000  Mn
  Mn8      1.0000 0.23395  0.87101  0.54061  Biso   1.000  Mn
  N7       1.0000 0.57360  0.90461  0.93852  Biso   1.000  N
  N8       1.0000 0.60440  0.10983  0.42924  Biso   1.000  N
  O31      1.0000 0.24774  0.61541  0.58623  Biso   1.000  O
  O32      1.0000 0.24810  0.75314  0.59364  Biso   1.000  O
  O33      1.0000 0.27129  0.44701  0.84315  Biso   1.000  O
  O34      1.0000 0.28116  0.51151  0.96172  Biso   1.000  O
  O35      1.0000 0.25224  0.47136  0.45165  Biso   1.000  O
  O36      1.0000 0.22005  0.52988  0.32970  Biso   1.000  O
  O37      1.0000 0.26061  0.35813  0.08585  Biso   1.000  O
  O38      1.0000 0.29227  0.22302  0.10251  Biso   1.000  O
  O39      1.0000 0.23377  0.81430  0.89323  Biso   1.000  O
  O40      1.0000 0.25985  0.16554  0.39936  Biso   1.000  O
