data_image0
_cell_length_a       13.9876
_cell_length_b       13.9876
_cell_length_c       16.3093
_cell_angle_alpha    90
_cell_angle_beta     90
_cell_angle_gamma    120

_symmetry_space_group_name_H-M    "P 1"
_symmetry_int_tables_number       1

loop_
  _symmetry_equiv_pos_as_xyz
  'x, y, z'

loop_
  _atom_site_label
  _atom_site_occupancy
  _atom_site_fract_x
  _atom_site_fract_y
  _atom_site_fract_z
  _atom_site_thermal_displace_type
  _atom_site_B_iso_or_equiv
  _atom_site_type_symbol
  Cu1      1.0000 0.37349  0.44462  0.55991  Biso   1.000  Cu
  N1       1.0000 0.07440  0.42170  0.48630  Biso   1.000  N
  N2       1.0000 0.12690  0.51690  0.53070  Biso   1.000  N
  N3       1.0000 0.22090  0.52970  0.55650  Biso   1.000  N
  N4       1.0000 0.23390  0.44790  0.53010  Biso   1.000  N
  N5       1.0000 0.19990  0.64540  0.70990  Biso   1.000  N
  N6       1.0000 0.10240  0.62790  0.68340  Biso   1.000  N
  C1       1.0000 0.14270  0.38120  0.48730  Biso   1.000  C
  C2       1.0000 0.11930  0.27330  0.44800  Biso   1.000  C
  H1       1.0000 0.18770  0.27730  0.43340  Biso   1.000  H
  H2       1.0000 0.07530  0.26040  0.39970  Biso   1.000  H
  H3       1.0000 0.08000  0.21390  0.48610  Biso   1.000  H
  Cu2      1.0000 0.55538  0.92887  0.55991  Biso   1.000  Cu
  N7       1.0000 0.57830  0.65270  0.48630  Biso   1.000  N
  N8       1.0000 0.48310  0.61000  0.53070  Biso   1.000  N
  N9       1.0000 0.47030  0.69120  0.55650  Biso   1.000  N
  N10      1.0000 0.55210  0.78600  0.53010  Biso   1.000  N
  N11      1.0000 0.35460  0.55450  0.70990  Biso   1.000  N
  N12      1.0000 0.37210  0.47450  0.68340  Biso   1.000  N
  C3       1.0000 0.61880  0.76150  0.48730  Biso   1.000  C
  C4       1.0000 0.72670  0.84600  0.44800  Biso   1.000  C
  H4       1.0000 0.72270  0.91040  0.43340  Biso   1.000  H
  H5       1.0000 0.73960  0.81490  0.39970  Biso   1.000  H
  H6       1.0000 0.78610  0.86610  0.48610  Biso   1.000  H
  Cu3      1.0000 0.07113  0.62651  0.55991  Biso   1.000  Cu
  N13      1.0000 0.34730  0.92560  0.48630  Biso   1.000  N
  N14      1.0000 0.39000  0.87310  0.53070  Biso   1.000  N
  N15      1.0000 0.30880  0.77910  0.55650  Biso   1.000  N
  N16      1.0000 0.21400  0.76610  0.53010  Biso   1.000  N
  N17      1.0000 0.44550  0.80010  0.70990  Biso   1.000  N
  N18      1.0000 0.52550  0.89760  0.68340  Biso   1.000  N
  C5       1.0000 0.23850  0.85730  0.48730  Biso   1.000  C
  C6       1.0000 0.15400  0.88070  0.44800  Biso   1.000  C
  H7       1.0000 0.08960  0.81230  0.43340  Biso   1.000  H
  H8       1.0000 0.18510  0.92470  0.39970  Biso   1.000  H
  H9       1.0000 0.13390  0.92000  0.48610  Biso   1.000  H
  Cu4      1.0000 0.62651  0.55538  0.05991  Biso   1.000  Cu
  N19      1.0000 0.92560  0.57830  0.98630  Biso   1.000  N
  N20      1.0000 0.87310  0.48310  0.03070  Biso   1.000  N
  N21      1.0000 0.77910  0.47030  0.05650  Biso   1.000  N
  N22      1.0000 0.76610  0.55210  0.03010  Biso   1.000  N
  N23      1.0000 0.80010  0.35460  0.20990  Biso   1.000  N
  N24      1.0000 0.89760  0.37210  0.18340  Biso   1.000  N
  C7       1.0000 0.85730  0.61880  0.98730  Biso   1.000  C
  C8       1.0000 0.88070  0.72670  0.94800  Biso   1.000  C
  H10      1.0000 0.81230  0.72270  0.93340  Biso   1.000  H
  H11      1.0000 0.92470  0.73960  0.89970  Biso   1.000  H
  H12      1.0000 0.92000  0.78610  0.98610  Biso   1.000  H
  Cu5      1.0000 0.44462  0.07113  0.05991  Biso   1.000  Cu
  N25      1.0000 0.42170  0.34730  0.98630  Biso   1.000  N
  N26      1.0000 0.51690  0.39000  0.03070  Biso   1.000  N
  N27      1.0000 0.52970  0.30880  0.05650  Biso   1.000  N
  N28      1.0000 0.44790  0.21400  0.03010  Biso   1.000  N
  N29      1.0000 0.64540  0.44550  0.20990  Biso   1.000  N
  N30      1.0000 0.62790  0.52550  0.18340  Biso   1.000  N
  C9       1.0000 0.38120  0.23850  0.98730  Biso   1.000  C
  C10      1.0000 0.27330  0.15400  0.94800  Biso   1.000  C
  H13      1.0000 0.27730  0.08960  0.93340  Biso   1.000  H
  H14      1.0000 0.26040  0.18510  0.89970  Biso   1.000  H
  H15      1.0000 0.21390  0.13390  0.98610  Biso   1.000  H
  Cu6      1.0000 0.92887  0.37349  0.05991  Biso   1.000  Cu
  N31      1.0000 0.65270  0.07440  0.98630  Biso   1.000  N
  N32      1.0000 0.61000  0.12690  0.03070  Biso   1.000  N
  N33      1.0000 0.69120  0.22090  0.05650  Biso   1.000  N
  N34      1.0000 0.78600  0.23390  0.03010  Biso   1.000  N
  N35      1.0000 0.55450  0.19990  0.20990  Biso   1.000  N
  N36      1.0000 0.47450  0.10240  0.18340  Biso   1.000  N
  C11      1.0000 0.76150  0.14270  0.98730  Biso   1.000  C
  C12      1.0000 0.84600  0.11930  0.94800  Biso   1.000  C
  H16      1.0000 0.91040  0.18770  0.93340  Biso   1.000  H
  H17      1.0000 0.81490  0.07530  0.89970  Biso   1.000  H
  H18      1.0000 0.86610  0.08000  0.98610  Biso   1.000  H
  Cu7      1.0000 0.62651  0.55538  0.44009  Biso   1.000  Cu
  N37      1.0000 0.92560  0.57830  0.51370  Biso   1.000  N
  N38      1.0000 0.87310  0.48310  0.46930  Biso   1.000  N
  N39      1.0000 0.77910  0.47030  0.44350  Biso   1.000  N
  N40      1.0000 0.76610  0.55210  0.46990  Biso   1.000  N
  N41      1.0000 0.80010  0.35460  0.29010  Biso   1.000  N
  N42      1.0000 0.89760  0.37210  0.31660  Biso   1.000  N
  C13      1.0000 0.85730  0.61880  0.51270  Biso   1.000  C
  C14      1.0000 0.88070  0.72670  0.55200  Biso   1.000  C
  H19      1.0000 0.81230  0.72270  0.56660  Biso   1.000  H
  H20      1.0000 0.92470  0.73960  0.60030  Biso   1.000  H
  H21      1.0000 0.92000  0.78610  0.51390  Biso   1.000  H
  Cu8      1.0000 0.44462  0.07113  0.44009  Biso   1.000  Cu
  N43      1.0000 0.42170  0.34730  0.51370  Biso   1.000  N
  N44      1.0000 0.51690  0.39000  0.46930  Biso   1.000  N
  N45      1.0000 0.52970  0.30880  0.44350  Biso   1.000  N
  N46      1.0000 0.44790  0.21400  0.46990  Biso   1.000  N
  N47      1.0000 0.64540  0.44550  0.29010  Biso   1.000  N
  N48      1.0000 0.62790  0.52550  0.31660  Biso   1.000  N
  C15      1.0000 0.38120  0.23850  0.51270  Biso   1.000  C
  C16      1.0000 0.27330  0.15400  0.55200  Biso   1.000  C
  H22      1.0000 0.27730  0.08960  0.56660  Biso   1.000  H
  H23      1.0000 0.26040  0.18510  0.60030  Biso   1.000  H
  H24      1.0000 0.21390  0.13390  0.51390  Biso   1.000  H
  Cu9      1.0000 0.92887  0.37349  0.44009  Biso   1.000  Cu
  N49      1.0000 0.65270  0.07440  0.51370  Biso   1.000  N
  N50      1.0000 0.61000  0.12690  0.46930  Biso   1.000  N
  N51      1.0000 0.69120  0.22090  0.44350  Biso   1.000  N
  N52      1.0000 0.78600  0.23390  0.46990  Biso   1.000  N
  N53      1.0000 0.55450  0.19990  0.29010  Biso   1.000  N
  N54      1.0000 0.47450  0.10240  0.31660  Biso   1.000  N
  C17      1.0000 0.76150  0.14270  0.51270  Biso   1.000  C
  C18      1.0000 0.84600  0.11930  0.55200  Biso   1.000  C
  H25      1.0000 0.91040  0.18770  0.56660  Biso   1.000  H
  H26      1.0000 0.81490  0.07530  0.60030  Biso   1.000  H
  H27      1.0000 0.86610  0.08000  0.51390  Biso   1.000  H
  Cu10     1.0000 0.37349  0.44462  0.94009  Biso   1.000  Cu
  N55      1.0000 0.07440  0.42170  0.01370  Biso   1.000  N
  N56      1.0000 0.12690  0.51690  0.96930  Biso   1.000  N
  N57      1.0000 0.22090  0.52970  0.94350  Biso   1.000  N
  N58      1.0000 0.23390  0.44790  0.96990  Biso   1.000  N
  N59      1.0000 0.19990  0.64540  0.79010  Biso   1.000  N
  N60      1.0000 0.10240  0.62790  0.81660  Biso   1.000  N
  C19      1.0000 0.14270  0.38120  0.01270  Biso   1.000  C
  C20      1.0000 0.11930  0.27330  0.05200  Biso   1.000  C
  H28      1.0000 0.18770  0.27730  0.06660  Biso   1.000  H
  H29      1.0000 0.07530  0.26040  0.10030  Biso   1.000  H
  H30      1.0000 0.08000  0.21390  0.01390  Biso   1.000  H
  Cu11     1.0000 0.55538  0.92887  0.94009  Biso   1.000  Cu
  N61      1.0000 0.57830  0.65270  0.01370  Biso   1.000  N
  N62      1.0000 0.48310  0.61000  0.96930  Biso   1.000  N
  N63      1.0000 0.47030  0.69120  0.94350  Biso   1.000  N
  N64      1.0000 0.55210  0.78600  0.96990  Biso   1.000  N
  N65      1.0000 0.35460  0.55450  0.79010  Biso   1.000  N
  N66      1.0000 0.37210  0.47450  0.81660  Biso   1.000  N
  C21      1.0000 0.61880  0.76150  0.01270  Biso   1.000  C
  C22      1.0000 0.72670  0.84600  0.05200  Biso   1.000  C
  H31      1.0000 0.72270  0.91040  0.06660  Biso   1.000  H
  H32      1.0000 0.73960  0.81490  0.10030  Biso   1.000  H
  H33      1.0000 0.78610  0.86610  0.01390  Biso   1.000  H
  Cu12     1.0000 0.07113  0.62651  0.94009  Biso   1.000  Cu
  N67      1.0000 0.34730  0.92560  0.01370  Biso   1.000  N
  N68      1.0000 0.39000  0.87310  0.96930  Biso   1.000  N
  N69      1.0000 0.30880  0.77910  0.94350  Biso   1.000  N
  N70      1.0000 0.21400  0.76610  0.96990  Biso   1.000  N
  N71      1.0000 0.44550  0.80010  0.79010  Biso   1.000  N
  N72      1.0000 0.52550  0.89760  0.81660  Biso   1.000  N
  C23      1.0000 0.23850  0.85730  0.01270  Biso   1.000  C
  C24      1.0000 0.15400  0.88070  0.05200  Biso   1.000  C
  H34      1.0000 0.08960  0.81230  0.06660  Biso   1.000  H
  H35      1.0000 0.18510  0.92470  0.10030  Biso   1.000  H
  H36      1.0000 0.13390  0.92000  0.01390  Biso   1.000  H
  Cu13     1.0000 0.33333  0.66667  0.63032  Biso   1.000  Cu
  Cu14     1.0000 0.66667  0.33333  0.13032  Biso   1.000  Cu
  Cu15     1.0000 0.66667  0.33333  0.36968  Biso   1.000  Cu
  Cu16     1.0000 0.33333  0.66667  0.86968  Biso   1.000  Cu
  C25      1.0000 0.04590  0.61800  0.75000  Biso   1.000  C
  C26      1.0000 0.92870  0.60000  0.75000  Biso   1.000  C
  C27      1.0000 0.38200  0.42790  0.75000  Biso   1.000  C
  C28      1.0000 0.40000  0.32870  0.75000  Biso   1.000  C
  C29      1.0000 0.57210  0.95410  0.75000  Biso   1.000  C
  C30      1.0000 0.67130  0.07130  0.75000  Biso   1.000  C
  C31      1.0000 0.95410  0.38200  0.25000  Biso   1.000  C
  C32      1.0000 0.07130  0.40000  0.25000  Biso   1.000  C
  C33      1.0000 0.61800  0.57210  0.25000  Biso   1.000  C
  C34      1.0000 0.60000  0.67130  0.25000  Biso   1.000  C
  C35      1.0000 0.42790  0.04590  0.25000  Biso   1.000  C
  C36      1.0000 0.32870  0.92870  0.25000  Biso   1.000  C
