data_image0
_cell_length_a       18.587
_cell_length_b       20.07
_cell_length_c       8.7957
_cell_angle_alpha    90
_cell_angle_beta     100.611
_cell_angle_gamma    90

_symmetry_space_group_name_H-M    "P 1"
_symmetry_int_tables_number       1

loop_
  _symmetry_equiv_pos_as_xyz
  'x, y, z'

loop_
  _atom_site_label
  _atom_site_occupancy
  _atom_site_fract_x
  _atom_site_fract_y
  _atom_site_fract_z
  _atom_site_thermal_displace_type
  _atom_site_B_iso_or_equiv
  _atom_site_type_symbol
  N1       1.0000 0.49810  0.83187  0.50390  Biso   1.000  N
  N2       1.0000 0.41156  0.89951  0.71560  Biso   1.000  N
  N3       1.0000 0.08095  0.24550  0.77340  Biso   1.000  N
  C1       1.0000 0.49850  0.84730  0.38190  Biso   1.000  C
  C2       1.0000 0.41750  0.95770  0.64610  Biso   1.000  C
  H1       1.0000 0.45950  0.96530  0.60510  Biso   1.000  H
  C3       1.0000 0.36550  0.00760  0.63100  Biso   1.000  C
  H2       1.0000 0.37370  0.04800  0.58500  Biso   1.000  H
  C4       1.0000 0.30250  0.99730  0.68370  Biso   1.000  C
  C5       1.0000 0.29440  0.93570  0.75250  Biso   1.000  C
  H3       1.0000 0.25140  0.92570  0.78750  Biso   1.000  H
  C6       1.0000 0.35000  0.89030  0.76810  Biso   1.000  C
  H4       1.0000 0.34420  0.85050  0.81860  Biso   1.000  H
  C7       1.0000 0.24320  0.05100  0.66580  Biso   1.000  C
  H5       1.0000 0.25040  0.08120  0.58390  Biso   1.000  H
  H6       1.0000 0.19590  0.02980  0.63410  Biso   1.000  H
  C8       1.0000 0.24180  0.08910  0.80340  Biso   1.000  C
  H7       1.0000 0.28950  0.10960  0.83490  Biso   1.000  H
  H8       1.0000 0.23490  0.05850  0.88480  Biso   1.000  H
  C9       1.0000 0.08120  0.20390  0.65750  Biso   1.000  C
  H9       1.0000 0.04610  0.20960  0.56850  Biso   1.000  H
  C10      1.0000 0.13070  0.15250  0.66100  Biso   1.000  C
  H10      1.0000 0.12840  0.12420  0.57630  Biso   1.000  H
  C11      1.0000 0.18420  0.14320  0.79270  Biso   1.000  C
  C12      1.0000 0.18280  0.18470  0.91410  Biso   1.000  C
  H11      1.0000 0.21660  0.17920  0.00550  Biso   1.000  H
  C13      1.0000 0.13120  0.23510  0.90190  Biso   1.000  C
  H12      1.0000 0.13130  0.26290  0.98640  Biso   1.000  H
  N4       1.0000 0.99810  0.33187  0.50390  Biso   1.000  N
  N5       1.0000 0.91156  0.39951  0.71560  Biso   1.000  N
  N6       1.0000 0.58095  0.74550  0.77340  Biso   1.000  N
  C14      1.0000 0.99850  0.34730  0.38190  Biso   1.000  C
  C15      1.0000 0.91750  0.45770  0.64610  Biso   1.000  C
  H13      1.0000 0.95950  0.46530  0.60510  Biso   1.000  H
  C16      1.0000 0.86550  0.50760  0.63100  Biso   1.000  C
  H14      1.0000 0.87370  0.54800  0.58500  Biso   1.000  H
  C17      1.0000 0.80250  0.49730  0.68370  Biso   1.000  C
  C18      1.0000 0.79440  0.43570  0.75250  Biso   1.000  C
  H15      1.0000 0.75140  0.42570  0.78750  Biso   1.000  H
  C19      1.0000 0.85000  0.39030  0.76810  Biso   1.000  C
  H16      1.0000 0.84420  0.35050  0.81860  Biso   1.000  H
  C20      1.0000 0.74320  0.55100  0.66580  Biso   1.000  C
  H17      1.0000 0.75040  0.58120  0.58390  Biso   1.000  H
  H18      1.0000 0.69590  0.52980  0.63410  Biso   1.000  H
  C21      1.0000 0.74180  0.58910  0.80340  Biso   1.000  C
  H19      1.0000 0.78950  0.60960  0.83490  Biso   1.000  H
  H20      1.0000 0.73490  0.55850  0.88480  Biso   1.000  H
  C22      1.0000 0.58120  0.70390  0.65750  Biso   1.000  C
  H21      1.0000 0.54610  0.70960  0.56850  Biso   1.000  H
  C23      1.0000 0.63070  0.65250  0.66100  Biso   1.000  C
  H22      1.0000 0.62840  0.62420  0.57630  Biso   1.000  H
  C24      1.0000 0.68420  0.64320  0.79270  Biso   1.000  C
  C25      1.0000 0.68280  0.68470  0.91410  Biso   1.000  C
  H23      1.0000 0.71660  0.67920  0.00550  Biso   1.000  H
  C26      1.0000 0.63120  0.73510  0.90190  Biso   1.000  C
  H24      1.0000 0.63130  0.76290  0.98640  Biso   1.000  H
  N7       1.0000 0.50190  0.83187  0.99610  Biso   1.000  N
  N8       1.0000 0.58844  0.89951  0.78440  Biso   1.000  N
  N9       1.0000 0.91905  0.24550  0.72660  Biso   1.000  N
  C27      1.0000 0.50150  0.84730  0.11810  Biso   1.000  C
  C28      1.0000 0.58250  0.95770  0.85390  Biso   1.000  C
  H25      1.0000 0.54050  0.96530  0.89490  Biso   1.000  H
  C29      1.0000 0.63450  0.00760  0.86900  Biso   1.000  C
  H26      1.0000 0.62630  0.04800  0.91500  Biso   1.000  H
  C30      1.0000 0.69750  0.99730  0.81630  Biso   1.000  C
  C31      1.0000 0.70560  0.93570  0.74750  Biso   1.000  C
  H27      1.0000 0.74860  0.92570  0.71250  Biso   1.000  H
  C32      1.0000 0.65000  0.89030  0.73190  Biso   1.000  C
  H28      1.0000 0.65580  0.85050  0.68140  Biso   1.000  H
  C33      1.0000 0.75680  0.05100  0.83420  Biso   1.000  C
  H29      1.0000 0.74960  0.08120  0.91610  Biso   1.000  H
  H30      1.0000 0.80410  0.02980  0.86590  Biso   1.000  H
  C34      1.0000 0.75820  0.08910  0.69660  Biso   1.000  C
  H31      1.0000 0.71050  0.10960  0.66510  Biso   1.000  H
  H32      1.0000 0.76510  0.05850  0.61520  Biso   1.000  H
  C35      1.0000 0.91880  0.20390  0.84250  Biso   1.000  C
  H33      1.0000 0.95390  0.20960  0.93150  Biso   1.000  H
  C36      1.0000 0.86930  0.15250  0.83900  Biso   1.000  C
  H34      1.0000 0.87160  0.12420  0.92370  Biso   1.000  H
  C37      1.0000 0.81580  0.14320  0.70730  Biso   1.000  C
  C38      1.0000 0.81720  0.18470  0.58590  Biso   1.000  C
  H35      1.0000 0.78340  0.17920  0.49450  Biso   1.000  H
  C39      1.0000 0.86880  0.23510  0.59810  Biso   1.000  C
  H36      1.0000 0.86870  0.26290  0.51360  Biso   1.000  H
  N10      1.0000 0.00190  0.33187  0.99610  Biso   1.000  N
  N11      1.0000 0.08844  0.39951  0.78440  Biso   1.000  N
  N12      1.0000 0.41905  0.74550  0.72660  Biso   1.000  N
  C40      1.0000 0.00150  0.34730  0.11810  Biso   1.000  C
  C41      1.0000 0.08250  0.45770  0.85390  Biso   1.000  C
  H37      1.0000 0.04050  0.46530  0.89490  Biso   1.000  H
  C42      1.0000 0.13450  0.50760  0.86900  Biso   1.000  C
  H38      1.0000 0.12630  0.54800  0.91500  Biso   1.000  H
  C43      1.0000 0.19750  0.49730  0.81630  Biso   1.000  C
  C44      1.0000 0.20560  0.43570  0.74750  Biso   1.000  C
  H39      1.0000 0.24860  0.42570  0.71250  Biso   1.000  H
  C45      1.0000 0.15000  0.39030  0.73190  Biso   1.000  C
  H40      1.0000 0.15580  0.35050  0.68140  Biso   1.000  H
  C46      1.0000 0.25680  0.55100  0.83420  Biso   1.000  C
  H41      1.0000 0.24960  0.58120  0.91610  Biso   1.000  H
  H42      1.0000 0.30410  0.52980  0.86590  Biso   1.000  H
  C47      1.0000 0.25820  0.58910  0.69660  Biso   1.000  C
  H43      1.0000 0.21050  0.60960  0.66510  Biso   1.000  H
  H44      1.0000 0.26510  0.55850  0.61520  Biso   1.000  H
  C48      1.0000 0.41880  0.70390  0.84250  Biso   1.000  C
  H45      1.0000 0.45390  0.70960  0.93150  Biso   1.000  H
  C49      1.0000 0.36930  0.65250  0.83900  Biso   1.000  C
  H46      1.0000 0.37160  0.62420  0.92370  Biso   1.000  H
  C50      1.0000 0.31580  0.64320  0.70730  Biso   1.000  C
  C51      1.0000 0.31720  0.68470  0.58590  Biso   1.000  C
  H47      1.0000 0.28340  0.67920  0.49450  Biso   1.000  H
  C52      1.0000 0.36880  0.73510  0.59810  Biso   1.000  C
  H48      1.0000 0.36870  0.76290  0.51360  Biso   1.000  H
  Zn1      1.0000 0.50000  0.82406  0.75000  Biso   1.000  Zn
  Zn2      1.0000 0.00000  0.32406  0.75000  Biso   1.000  Zn
  N13      1.0000 0.50000  0.87620  0.25000  Biso   1.000  N
  N14      1.0000 0.00000  0.37620  0.25000  Biso   1.000  N
  N15      1.0000 0.50190  0.16813  0.49610  Biso   1.000  N
  N16      1.0000 0.58844  0.10049  0.28440  Biso   1.000  N
  N17      1.0000 0.91905  0.75450  0.22660  Biso   1.000  N
  C53      1.0000 0.50150  0.15270  0.61810  Biso   1.000  C
  C54      1.0000 0.58250  0.04230  0.35390  Biso   1.000  C
  H49      1.0000 0.54050  0.03470  0.39490  Biso   1.000  H
  C55      1.0000 0.63450  0.99240  0.36900  Biso   1.000  C
  H50      1.0000 0.62630  0.95200  0.41500  Biso   1.000  H
  C56      1.0000 0.69750  0.00270  0.31630  Biso   1.000  C
  C57      1.0000 0.70560  0.06430  0.24750  Biso   1.000  C
  H51      1.0000 0.74860  0.07430  0.21250  Biso   1.000  H
  C58      1.0000 0.65000  0.10970  0.23190  Biso   1.000  C
  H52      1.0000 0.65580  0.14950  0.18140  Biso   1.000  H
  C59      1.0000 0.75680  0.94900  0.33420  Biso   1.000  C
  H53      1.0000 0.74960  0.91880  0.41610  Biso   1.000  H
  H54      1.0000 0.80410  0.97020  0.36590  Biso   1.000  H
  C60      1.0000 0.75820  0.91090  0.19660  Biso   1.000  C
  H55      1.0000 0.71050  0.89040  0.16510  Biso   1.000  H
  H56      1.0000 0.76510  0.94150  0.11520  Biso   1.000  H
  C61      1.0000 0.91880  0.79610  0.34250  Biso   1.000  C
  H57      1.0000 0.95390  0.79040  0.43150  Biso   1.000  H
  C62      1.0000 0.86930  0.84750  0.33900  Biso   1.000  C
  H58      1.0000 0.87160  0.87580  0.42370  Biso   1.000  H
  C63      1.0000 0.81580  0.85680  0.20730  Biso   1.000  C
  C64      1.0000 0.81720  0.81530  0.08590  Biso   1.000  C
  H59      1.0000 0.78340  0.82080  0.99450  Biso   1.000  H
  C65      1.0000 0.86880  0.76490  0.09810  Biso   1.000  C
  H60      1.0000 0.86870  0.73710  0.01360  Biso   1.000  H
  N18      1.0000 0.00190  0.66813  0.49610  Biso   1.000  N
  N19      1.0000 0.08844  0.60049  0.28440  Biso   1.000  N
  N20      1.0000 0.41905  0.25450  0.22660  Biso   1.000  N
  C66      1.0000 0.00150  0.65270  0.61810  Biso   1.000  C
  C67      1.0000 0.08250  0.54230  0.35390  Biso   1.000  C
  H61      1.0000 0.04050  0.53470  0.39490  Biso   1.000  H
  C68      1.0000 0.13450  0.49240  0.36900  Biso   1.000  C
  H62      1.0000 0.12630  0.45200  0.41500  Biso   1.000  H
  C69      1.0000 0.19750  0.50270  0.31630  Biso   1.000  C
  C70      1.0000 0.20560  0.56430  0.24750  Biso   1.000  C
  H63      1.0000 0.24860  0.57430  0.21250  Biso   1.000  H
  C71      1.0000 0.15000  0.60970  0.23190  Biso   1.000  C
  H64      1.0000 0.15580  0.64950  0.18140  Biso   1.000  H
  C72      1.0000 0.25680  0.44900  0.33420  Biso   1.000  C
  H65      1.0000 0.24960  0.41880  0.41610  Biso   1.000  H
  H66      1.0000 0.30410  0.47020  0.36590  Biso   1.000  H
  C73      1.0000 0.25820  0.41090  0.19660  Biso   1.000  C
  H67      1.0000 0.21050  0.39040  0.16510  Biso   1.000  H
  H68      1.0000 0.26510  0.44150  0.11520  Biso   1.000  H
  C74      1.0000 0.41880  0.29610  0.34250  Biso   1.000  C
  H69      1.0000 0.45390  0.29040  0.43150  Biso   1.000  H
  C75      1.0000 0.36930  0.34750  0.33900  Biso   1.000  C
  H70      1.0000 0.37160  0.37580  0.42370  Biso   1.000  H
  C76      1.0000 0.31580  0.35680  0.20730  Biso   1.000  C
  C77      1.0000 0.31720  0.31530  0.08590  Biso   1.000  C
  H71      1.0000 0.28340  0.32080  0.99450  Biso   1.000  H
  C78      1.0000 0.36880  0.26490  0.09810  Biso   1.000  C
  H72      1.0000 0.36870  0.23710  0.01360  Biso   1.000  H
  N21      1.0000 0.49810  0.16813  0.00390  Biso   1.000  N
  N22      1.0000 0.41156  0.10049  0.21560  Biso   1.000  N
  N23      1.0000 0.08095  0.75450  0.27340  Biso   1.000  N
  C79      1.0000 0.49850  0.15270  0.88190  Biso   1.000  C
  C80      1.0000 0.41750  0.04230  0.14610  Biso   1.000  C
  H73      1.0000 0.45950  0.03470  0.10510  Biso   1.000  H
  C81      1.0000 0.36550  0.99240  0.13100  Biso   1.000  C
  H74      1.0000 0.37370  0.95200  0.08500  Biso   1.000  H
  C82      1.0000 0.30250  0.00270  0.18370  Biso   1.000  C
  C83      1.0000 0.29440  0.06430  0.25250  Biso   1.000  C
  H75      1.0000 0.25140  0.07430  0.28750  Biso   1.000  H
  C84      1.0000 0.35000  0.10970  0.26810  Biso   1.000  C
  H76      1.0000 0.34420  0.14950  0.31860  Biso   1.000  H
  C85      1.0000 0.24320  0.94900  0.16580  Biso   1.000  C
  H77      1.0000 0.25040  0.91880  0.08390  Biso   1.000  H
  H78      1.0000 0.19590  0.97020  0.13410  Biso   1.000  H
  C86      1.0000 0.24180  0.91090  0.30340  Biso   1.000  C
  H79      1.0000 0.28950  0.89040  0.33490  Biso   1.000  H
  H80      1.0000 0.23490  0.94150  0.38480  Biso   1.000  H
  C87      1.0000 0.08120  0.79610  0.15750  Biso   1.000  C
  H81      1.0000 0.04610  0.79040  0.06850  Biso   1.000  H
  C88      1.0000 0.13070  0.84750  0.16100  Biso   1.000  C
  H82      1.0000 0.12840  0.87580  0.07630  Biso   1.000  H
  C89      1.0000 0.18420  0.85680  0.29270  Biso   1.000  C
  C90      1.0000 0.18280  0.81530  0.41410  Biso   1.000  C
  H83      1.0000 0.21660  0.82080  0.50550  Biso   1.000  H
  C91      1.0000 0.13120  0.76490  0.40190  Biso   1.000  C
  H84      1.0000 0.13130  0.73710  0.48640  Biso   1.000  H
  N24      1.0000 0.99810  0.66813  0.00390  Biso   1.000  N
  N25      1.0000 0.91156  0.60049  0.21560  Biso   1.000  N
  N26      1.0000 0.58095  0.25450  0.27340  Biso   1.000  N
  C92      1.0000 0.99850  0.65270  0.88190  Biso   1.000  C
  C93      1.0000 0.91750  0.54230  0.14610  Biso   1.000  C
  H85      1.0000 0.95950  0.53470  0.10510  Biso   1.000  H
  C94      1.0000 0.86550  0.49240  0.13100  Biso   1.000  C
  H86      1.0000 0.87370  0.45200  0.08500  Biso   1.000  H
  C95      1.0000 0.80250  0.50270  0.18370  Biso   1.000  C
  C96      1.0000 0.79440  0.56430  0.25250  Biso   1.000  C
  H87      1.0000 0.75140  0.57430  0.28750  Biso   1.000  H
  C97      1.0000 0.85000  0.60970  0.26810  Biso   1.000  C
  H88      1.0000 0.84420  0.64950  0.31860  Biso   1.000  H
  C98      1.0000 0.74320  0.44900  0.16580  Biso   1.000  C
  H89      1.0000 0.75040  0.41880  0.08390  Biso   1.000  H
  H90      1.0000 0.69590  0.47020  0.13410  Biso   1.000  H
  C99      1.0000 0.74180  0.41090  0.30340  Biso   1.000  C
  H91      1.0000 0.78950  0.39040  0.33490  Biso   1.000  H
  H92      1.0000 0.73490  0.44150  0.38480  Biso   1.000  H
  C100     1.0000 0.58120  0.29610  0.15750  Biso   1.000  C
  H93      1.0000 0.54610  0.29040  0.06850  Biso   1.000  H
  C101     1.0000 0.63070  0.34750  0.16100  Biso   1.000  C
  H94      1.0000 0.62840  0.37580  0.07630  Biso   1.000  H
  C102     1.0000 0.68420  0.35680  0.29270  Biso   1.000  C
  C103     1.0000 0.68280  0.31530  0.41410  Biso   1.000  C
  H95      1.0000 0.71660  0.32080  0.50550  Biso   1.000  H
  C104     1.0000 0.63120  0.26490  0.40190  Biso   1.000  C
  H96      1.0000 0.63130  0.23710  0.48640  Biso   1.000  H
  Zn3      1.0000 0.50000  0.17594  0.25000  Biso   1.000  Zn
  Zn4      1.0000 0.00000  0.67594  0.25000  Biso   1.000  Zn
  N27      1.0000 0.50000  0.12380  0.75000  Biso   1.000  N
  N28      1.0000 0.00000  0.62380  0.75000  Biso   1.000  N
