data_image0
_cell_length_a       15.3873
_cell_length_b       15.3873
_cell_length_c       9.8582
_cell_angle_alpha    90
_cell_angle_beta     90
_cell_angle_gamma    90

_symmetry_space_group_name_H-M    "P 1"
_symmetry_int_tables_number       1

loop_
  _symmetry_equiv_pos_as_xyz
  'x, y, z'

loop_
  _atom_site_label
  _atom_site_occupancy
  _atom_site_fract_x
  _atom_site_fract_y
  _atom_site_fract_z
  _atom_site_thermal_displace_type
  _atom_site_B_iso_or_equiv
  _atom_site_type_symbol
  O1       1.0000 0.46912  0.62575  0.87610  Biso   1.000  O
  C1       1.0000 0.61560  0.75680  0.87990  Biso   1.000  C
  H1       1.0000 0.59070  0.73800  0.79900  Biso   1.000  H
  C2       1.0000 0.68670  0.80630  0.88160  Biso   1.000  C
  H2       1.0000 0.71010  0.82570  0.80010  Biso   1.000  H
  O2       1.0000 0.53088  0.37425  0.87610  Biso   1.000  O
  C3       1.0000 0.38440  0.24320  0.87990  Biso   1.000  C
  H3       1.0000 0.40930  0.26200  0.79900  Biso   1.000  H
  C4       1.0000 0.31330  0.19370  0.88160  Biso   1.000  C
  H4       1.0000 0.28990  0.17430  0.80010  Biso   1.000  H
  O3       1.0000 0.37425  0.46912  0.87610  Biso   1.000  O
  C5       1.0000 0.24320  0.61560  0.87990  Biso   1.000  C
  H5       1.0000 0.26200  0.59070  0.79900  Biso   1.000  H
  C6       1.0000 0.19370  0.68670  0.88160  Biso   1.000  C
  H6       1.0000 0.17430  0.71010  0.80010  Biso   1.000  H
  O4       1.0000 0.62575  0.53088  0.87610  Biso   1.000  O
  C7       1.0000 0.75680  0.38440  0.87990  Biso   1.000  C
  H7       1.0000 0.73800  0.40930  0.79900  Biso   1.000  H
  C8       1.0000 0.80630  0.31330  0.88160  Biso   1.000  C
  H8       1.0000 0.82570  0.28990  0.80010  Biso   1.000  H
  O5       1.0000 0.53088  0.62575  0.62390  Biso   1.000  O
  C9       1.0000 0.38440  0.75680  0.62010  Biso   1.000  C
  H9       1.0000 0.40930  0.73800  0.70100  Biso   1.000  H
  C10      1.0000 0.31330  0.80630  0.61840  Biso   1.000  C
  H10      1.0000 0.28990  0.82570  0.69990  Biso   1.000  H
  O6       1.0000 0.46912  0.37425  0.62390  Biso   1.000  O
  C11      1.0000 0.61560  0.24320  0.62010  Biso   1.000  C
  H11      1.0000 0.59070  0.26200  0.70100  Biso   1.000  H
  C12      1.0000 0.68670  0.19370  0.61840  Biso   1.000  C
  H12      1.0000 0.71010  0.17430  0.69990  Biso   1.000  H
  O7       1.0000 0.62575  0.46912  0.62390  Biso   1.000  O
  C13      1.0000 0.75680  0.61560  0.62010  Biso   1.000  C
  H13      1.0000 0.73800  0.59070  0.70100  Biso   1.000  H
  C14      1.0000 0.80630  0.68670  0.61840  Biso   1.000  C
  H14      1.0000 0.82570  0.71010  0.69990  Biso   1.000  H
  O8       1.0000 0.37425  0.53088  0.62390  Biso   1.000  O
  C15      1.0000 0.24320  0.38440  0.62010  Biso   1.000  C
  H15      1.0000 0.26200  0.40930  0.70100  Biso   1.000  H
  C16      1.0000 0.19370  0.31330  0.61840  Biso   1.000  C
  H16      1.0000 0.17430  0.28990  0.69990  Biso   1.000  H
  O9       1.0000 0.53088  0.37425  0.12390  Biso   1.000  O
  C17      1.0000 0.38440  0.24320  0.12010  Biso   1.000  C
  H17      1.0000 0.40930  0.26200  0.20100  Biso   1.000  H
  C18      1.0000 0.31330  0.19370  0.11840  Biso   1.000  C
  H18      1.0000 0.28990  0.17430  0.19990  Biso   1.000  H
  O10      1.0000 0.46912  0.62575  0.12390  Biso   1.000  O
  C19      1.0000 0.61560  0.75680  0.12010  Biso   1.000  C
  H19      1.0000 0.59070  0.73800  0.20100  Biso   1.000  H
  C20      1.0000 0.68670  0.80630  0.11840  Biso   1.000  C
  H20      1.0000 0.71010  0.82570  0.19990  Biso   1.000  H
  O11      1.0000 0.62575  0.53088  0.12390  Biso   1.000  O
  C21      1.0000 0.75680  0.38440  0.12010  Biso   1.000  C
  H21      1.0000 0.73800  0.40930  0.20100  Biso   1.000  H
  C22      1.0000 0.80630  0.31330  0.11840  Biso   1.000  C
  H22      1.0000 0.82570  0.28990  0.19990  Biso   1.000  H
  O12      1.0000 0.37425  0.46912  0.12390  Biso   1.000  O
  C23      1.0000 0.24320  0.61560  0.12010  Biso   1.000  C
  H23      1.0000 0.26200  0.59070  0.20100  Biso   1.000  H
  C24      1.0000 0.19370  0.68670  0.11840  Biso   1.000  C
  H24      1.0000 0.17430  0.71010  0.19990  Biso   1.000  H
  O13      1.0000 0.46912  0.37425  0.37610  Biso   1.000  O
  C25      1.0000 0.61560  0.24320  0.37990  Biso   1.000  C
  H25      1.0000 0.59070  0.26200  0.29900  Biso   1.000  H
  C26      1.0000 0.68670  0.19370  0.38160  Biso   1.000  C
  H26      1.0000 0.71010  0.17430  0.30010  Biso   1.000  H
  O14      1.0000 0.53088  0.62575  0.37610  Biso   1.000  O
  C27      1.0000 0.38440  0.75680  0.37990  Biso   1.000  C
  H27      1.0000 0.40930  0.73800  0.29900  Biso   1.000  H
  C28      1.0000 0.31330  0.80630  0.38160  Biso   1.000  C
  H28      1.0000 0.28990  0.82570  0.30010  Biso   1.000  H
  O15      1.0000 0.37425  0.53088  0.37610  Biso   1.000  O
  C29      1.0000 0.24320  0.38440  0.37990  Biso   1.000  C
  H29      1.0000 0.26200  0.40930  0.29900  Biso   1.000  H
  C30      1.0000 0.19370  0.31330  0.38160  Biso   1.000  C
  H30      1.0000 0.17430  0.28990  0.30010  Biso   1.000  H
  O16      1.0000 0.62575  0.46912  0.37610  Biso   1.000  O
  C31      1.0000 0.75680  0.61560  0.37990  Biso   1.000  C
  H31      1.0000 0.73800  0.59070  0.29900  Biso   1.000  H
  C32      1.0000 0.80630  0.68670  0.38160  Biso   1.000  C
  H32      1.0000 0.82570  0.71010  0.30010  Biso   1.000  H
  Gd1      1.0000 0.50000  0.50000  0.75000  Biso   1.000  Gd
  Gd2      1.0000 0.50000  0.50000  0.25000  Biso   1.000  Gd
  S1       1.0000 0.47478  0.67890  0.00000  Biso   1.000  S
  N1       1.0000 0.96800  0.87020  0.00000  Biso   1.000  N
  O17      1.0000 0.41480  0.74480  0.00000  Biso   1.000  O
  C33      1.0000 0.58190  0.73570  0.00000  Biso   1.000  C
  C34      1.0000 0.72560  0.82910  0.00000  Biso   1.000  C
  C35      1.0000 0.81190  0.88030  0.00000  Biso   1.000  C
  C36      1.0000 0.88460  0.83430  0.00000  Biso   1.000  C
  C37      1.0000 0.89420  0.73890  0.00000  Biso   1.000  C
  H33      1.0000 0.84920  0.69850  0.00000  Biso   1.000  H
  C38      1.0000 0.98190  0.72040  0.00000  Biso   1.000  C
  H34      1.0000 0.00720  0.66550  0.00000  Biso   1.000  H
  C39      1.0000 0.02570  0.80060  0.00000  Biso   1.000  C
  S2       1.0000 0.52522  0.32110  0.00000  Biso   1.000  S
  N2       1.0000 0.03200  0.12980  0.00000  Biso   1.000  N
  O18      1.0000 0.58520  0.25520  0.00000  Biso   1.000  O
  C40      1.0000 0.41810  0.26430  0.00000  Biso   1.000  C
  C41      1.0000 0.27440  0.17090  0.00000  Biso   1.000  C
  C42      1.0000 0.18810  0.11970  0.00000  Biso   1.000  C
  C43      1.0000 0.11540  0.16570  0.00000  Biso   1.000  C
  C44      1.0000 0.10580  0.26110  0.00000  Biso   1.000  C
  H35      1.0000 0.15080  0.30150  0.00000  Biso   1.000  H
  C45      1.0000 0.01810  0.27960  0.00000  Biso   1.000  C
  H36      1.0000 0.99280  0.33450  0.00000  Biso   1.000  H
  C46      1.0000 0.97430  0.19940  0.00000  Biso   1.000  C
  S3       1.0000 0.32110  0.47478  0.00000  Biso   1.000  S
  N3       1.0000 0.12980  0.96800  0.00000  Biso   1.000  N
  O19      1.0000 0.25520  0.41480  0.00000  Biso   1.000  O
  C47      1.0000 0.26430  0.58190  0.00000  Biso   1.000  C
  C48      1.0000 0.17090  0.72560  0.00000  Biso   1.000  C
  C49      1.0000 0.11970  0.81190  0.00000  Biso   1.000  C
  C50      1.0000 0.16570  0.88460  0.00000  Biso   1.000  C
  C51      1.0000 0.26110  0.89420  0.00000  Biso   1.000  C
  H37      1.0000 0.30150  0.84920  0.00000  Biso   1.000  H
  C52      1.0000 0.27960  0.98190  0.00000  Biso   1.000  C
  H38      1.0000 0.33450  0.00720  0.00000  Biso   1.000  H
  C53      1.0000 0.19940  0.02570  0.00000  Biso   1.000  C
  S4       1.0000 0.67890  0.52522  0.00000  Biso   1.000  S
  N4       1.0000 0.87020  0.03200  0.00000  Biso   1.000  N
  O20      1.0000 0.74480  0.58520  0.00000  Biso   1.000  O
  C54      1.0000 0.73570  0.41810  0.00000  Biso   1.000  C
  C55      1.0000 0.82910  0.27440  0.00000  Biso   1.000  C
  C56      1.0000 0.88030  0.18810  0.00000  Biso   1.000  C
  C57      1.0000 0.83430  0.11540  0.00000  Biso   1.000  C
  C58      1.0000 0.73890  0.10580  0.00000  Biso   1.000  C
  H39      1.0000 0.69850  0.15080  0.00000  Biso   1.000  H
  C59      1.0000 0.72040  0.01810  0.00000  Biso   1.000  C
  H40      1.0000 0.66550  0.99280  0.00000  Biso   1.000  H
  C60      1.0000 0.80060  0.97430  0.00000  Biso   1.000  C
  S5       1.0000 0.52522  0.67890  0.50000  Biso   1.000  S
  N5       1.0000 0.03200  0.87020  0.50000  Biso   1.000  N
  O21      1.0000 0.58520  0.74480  0.50000  Biso   1.000  O
  C61      1.0000 0.41810  0.73570  0.50000  Biso   1.000  C
  C62      1.0000 0.27440  0.82910  0.50000  Biso   1.000  C
  C63      1.0000 0.18810  0.88030  0.50000  Biso   1.000  C
  C64      1.0000 0.11540  0.83430  0.50000  Biso   1.000  C
  C65      1.0000 0.10580  0.73890  0.50000  Biso   1.000  C
  H41      1.0000 0.15080  0.69850  0.50000  Biso   1.000  H
  C66      1.0000 0.01810  0.72040  0.50000  Biso   1.000  C
  H42      1.0000 0.99280  0.66550  0.50000  Biso   1.000  H
  C67      1.0000 0.97430  0.80060  0.50000  Biso   1.000  C
  S6       1.0000 0.47478  0.32110  0.50000  Biso   1.000  S
  N6       1.0000 0.96800  0.12980  0.50000  Biso   1.000  N
  O22      1.0000 0.41480  0.25520  0.50000  Biso   1.000  O
  C68      1.0000 0.58190  0.26430  0.50000  Biso   1.000  C
  C69      1.0000 0.72560  0.17090  0.50000  Biso   1.000  C
  C70      1.0000 0.81190  0.11970  0.50000  Biso   1.000  C
  C71      1.0000 0.88460  0.16570  0.50000  Biso   1.000  C
  C72      1.0000 0.89420  0.26110  0.50000  Biso   1.000  C
  H43      1.0000 0.84920  0.30150  0.50000  Biso   1.000  H
  C73      1.0000 0.98190  0.27960  0.50000  Biso   1.000  C
  H44      1.0000 0.00720  0.33450  0.50000  Biso   1.000  H
  C74      1.0000 0.02570  0.19940  0.50000  Biso   1.000  C
  S7       1.0000 0.67890  0.47478  0.50000  Biso   1.000  S
  N7       1.0000 0.87020  0.96800  0.50000  Biso   1.000  N
  O23      1.0000 0.74480  0.41480  0.50000  Biso   1.000  O
  C75      1.0000 0.73570  0.58190  0.50000  Biso   1.000  C
  C76      1.0000 0.82910  0.72560  0.50000  Biso   1.000  C
  C77      1.0000 0.88030  0.81190  0.50000  Biso   1.000  C
  C78      1.0000 0.83430  0.88460  0.50000  Biso   1.000  C
  C79      1.0000 0.73890  0.89420  0.50000  Biso   1.000  C
  H45      1.0000 0.69850  0.84920  0.50000  Biso   1.000  H
  C80      1.0000 0.72040  0.98190  0.50000  Biso   1.000  C
  H46      1.0000 0.66550  0.00720  0.50000  Biso   1.000  H
  C81      1.0000 0.80060  0.02570  0.50000  Biso   1.000  C
  S8       1.0000 0.32110  0.52522  0.50000  Biso   1.000  S
  N8       1.0000 0.12980  0.03200  0.50000  Biso   1.000  N
  O24      1.0000 0.25520  0.58520  0.50000  Biso   1.000  O
  C82      1.0000 0.26430  0.41810  0.50000  Biso   1.000  C
  C83      1.0000 0.17090  0.27440  0.50000  Biso   1.000  C
  C84      1.0000 0.11970  0.18810  0.50000  Biso   1.000  C
  C85      1.0000 0.16570  0.11540  0.50000  Biso   1.000  C
  C86      1.0000 0.26110  0.10580  0.50000  Biso   1.000  C
  H47      1.0000 0.30150  0.15080  0.50000  Biso   1.000  H
  C87      1.0000 0.27960  0.01810  0.50000  Biso   1.000  C
  H48      1.0000 0.33450  0.99280  0.50000  Biso   1.000  H
  C88      1.0000 0.19940  0.97430  0.50000  Biso   1.000  C
