data_UQULAU_clean
_audit_creation_date              2014-07-02
_audit_creation_method            'Materials Studio'
_symmetry_space_group_name_H-M    'P1'
_symmetry_Int_Tables_number       1
_symmetry_cell_setting            triclinic
loop_
_symmetry_equiv_pos_as_xyz
  x,y,z
_cell_length_a                    12.0201
_cell_length_b                    12.9383
_cell_length_c                    20.7463
_cell_angle_alpha                 90.0000
_cell_angle_beta                  90.0000
_cell_angle_gamma                 90.1621
loop_
_atom_site_label
_atom_site_type_symbol
_atom_site_fract_x
_atom_site_fract_y
_atom_site_fract_z
_atom_site_U_iso_or_equiv
_atom_site_adp_type
_atom_site_occupancy
Co1    Co    0.30675   0.11759   0.82664   0.01267  Uiso   1.00
Co2    Co    0.16542   0.11470   0.67384   0.01267  Uiso   1.00
Co3    Co    0.80675   0.61759   0.17336   0.01267  Uiso   1.00
Co4    Co    0.66542   0.61470   0.32616   0.01267  Uiso   1.00
H1     H     0.19550   0.97630   0.75140   0.01267  Uiso   1.00
H2     H     0.30390   0.97290   0.74520   0.01267  Uiso   1.00
H3     H     0.29040   0.65110   0.67440   0.01267  Uiso   1.00
H4     H     0.69990   0.25520   0.88060   0.01267  Uiso   1.00
H5     H     0.29750   0.46300   0.72200   0.01267  Uiso   1.00
H6     H     0.27070   0.42180   0.65250   0.01267  Uiso   1.00
H7     H     0.41050   0.30900   0.59460   0.01267  Uiso   1.00
H8     H     0.52330   0.28120   0.62840   0.01267  Uiso   1.00
H9     H     0.56470   0.34610   0.74010   0.01267  Uiso   1.00
H10    H     0.47780   0.41540   0.77640   0.01267  Uiso   1.00
H11    H     0.37570   0.49100   0.55800   0.01267  Uiso   1.00
H12    H     0.46760   0.57620   0.56790   0.01267  Uiso   1.00
H13    H     0.55320   0.41480   0.55250   0.01267  Uiso   1.00
H14    H     0.65020   0.52890   0.62200   0.01267  Uiso   1.00
H15    H     0.66830   0.41480   0.64590   0.01267  Uiso   1.00
H16    H     0.62040   0.52190   0.73390   0.01267  Uiso   1.00
H17    H     0.44320   0.59620   0.73840   0.01267  Uiso   1.00
H18    H     0.50960   0.64120   0.67930   0.01267  Uiso   1.00
H19    H     0.13000   0.41620   0.85180   0.01267  Uiso   1.00
H20    H     0.09450   0.33620   0.90510   0.01267  Uiso   1.00
H21    H     0.03000   0.41820   0.74420   0.01267  Uiso   1.00
H22    H     0.93040   0.34150   0.73200   0.01267  Uiso   1.00
H23    H     0.93660   0.21380   0.88450   0.01267  Uiso   1.00
H24    H     0.87350   0.21550   0.81830   0.01267  Uiso   1.00
H25    H     0.91150   0.35890   0.96260   0.01267  Uiso   1.00
H26    H     0.83400   0.45230   0.94490   0.01267  Uiso   1.00
H27    H     0.02050   0.50020   0.93060   0.01267  Uiso   1.00
H28    H     0.00670   0.56370   0.82420   0.01267  Uiso   1.00
H29    H     0.89280   0.57900   0.86010   0.01267  Uiso   1.00
H30    H     0.85970   0.50780   0.75810   0.01267  Uiso   1.00
H31    H     0.75000   0.36420   0.79000   0.01267  Uiso   1.00
H32    H     0.73360   0.45540   0.83910   0.01267  Uiso   1.00
H33    H     0.53960   0.19370   0.02530   0.01267  Uiso   1.00
H34    H     0.43420   0.09720   0.95660   0.01267  Uiso   1.00
H35    H     0.33900   0.34350   0.86420   0.01267  Uiso   1.00
H36    H     0.44490   0.44630   0.92860   0.01267  Uiso   1.00
H37    H     0.83170   0.23620   0.54500   0.01267  Uiso   1.00
H38    H     0.92980   0.13660   0.61400   0.01267  Uiso   1.00
H39    H     0.20200   0.28280   0.57270   0.01267  Uiso   1.00
H40    H     0.11020   0.38910   0.50300   0.01267  Uiso   1.00
H41    H     0.52610   0.53790   0.99770   0.01267  Uiso   1.00
H42    H     0.66100   0.28380   0.07230   0.01267  Uiso   1.00
H43    H     0.63900   0.63380   0.06270   0.01267  Uiso   1.00
H44    H     0.76790   0.38640   0.13690   0.01267  Uiso   1.00
H45    H     0.74960   0.39990   0.52550   0.01267  Uiso   1.00
H46    H     0.65470   0.51030   0.46000   0.01267  Uiso   1.00
H47    H     0.91130   0.54450   0.34880   0.01267  Uiso   1.00
H48    H     0.01320   0.43120   0.40900   0.01267  Uiso   1.00
H49    H     0.69550   0.47630   0.24860   0.01267  Uiso   1.00
H50    H     0.80390   0.47290   0.25480   0.01267  Uiso   1.00
H51    H     0.79040   0.15110   0.32560   0.01267  Uiso   1.00
H52    H     0.19990   0.75520   0.11940   0.01267  Uiso   1.00
H53    H     0.79750   0.96300   0.27800   0.01267  Uiso   1.00
H54    H     0.77070   0.92180   0.34750   0.01267  Uiso   1.00
H55    H     0.91050   0.80900   0.40540   0.01267  Uiso   1.00
H56    H     0.02330   0.78120   0.37160   0.01267  Uiso   1.00
H57    H     0.06470   0.84610   0.25990   0.01267  Uiso   1.00
H58    H     0.97780   0.91540   0.22360   0.01267  Uiso   1.00
H59    H     0.87570   0.99100   0.44200   0.01267  Uiso   1.00
H60    H     0.96760   0.07620   0.43210   0.01267  Uiso   1.00
H61    H     0.05320   0.91480   0.44750   0.01267  Uiso   1.00
H62    H     0.15020   0.02890   0.37800   0.01267  Uiso   1.00
H63    H     0.16830   0.91480   0.35410   0.01267  Uiso   1.00
H64    H     0.12040   0.02190   0.26610   0.01267  Uiso   1.00
H65    H     0.94320   0.09620   0.26160   0.01267  Uiso   1.00
H66    H     0.00960   0.14120   0.32070   0.01267  Uiso   1.00
H67    H     0.63000   0.91620   0.14820   0.01267  Uiso   1.00
H68    H     0.59450   0.83620   0.09490   0.01267  Uiso   1.00
H69    H     0.53000   0.91820   0.25580   0.01267  Uiso   1.00
H70    H     0.43040   0.84150   0.26800   0.01267  Uiso   1.00
H71    H     0.43660   0.71380   0.11550   0.01267  Uiso   1.00
H72    H     0.37350   0.71550   0.18170   0.01267  Uiso   1.00
H73    H     0.41150   0.85890   0.03740   0.01267  Uiso   1.00
H74    H     0.33400   0.95230   0.05510   0.01267  Uiso   1.00
H75    H     0.52050   0.00020   0.06940   0.01267  Uiso   1.00
H76    H     0.50670   0.06370   0.17580   0.01267  Uiso   1.00
H77    H     0.39280   0.07900   0.13990   0.01267  Uiso   1.00
H78    H     0.35970   0.00780   0.24190   0.01267  Uiso   1.00
H79    H     0.25000   0.86420   0.21000   0.01267  Uiso   1.00
H80    H     0.23360   0.95540   0.16090   0.01267  Uiso   1.00
H81    H     0.03960   0.69370   0.97470   0.01267  Uiso   1.00
H82    H     0.93420   0.59720   0.04340   0.01267  Uiso   1.00
H83    H     0.83900   0.84350   0.13580   0.01267  Uiso   1.00
H84    H     0.94490   0.94630   0.07140   0.01267  Uiso   1.00
H85    H     0.33170   0.73620   0.45500   0.01267  Uiso   1.00
H86    H     0.42980   0.63660   0.38600   0.01267  Uiso   1.00
H87    H     0.70200   0.78280   0.42730   0.01267  Uiso   1.00
H88    H     0.61020   0.88910   0.49700   0.01267  Uiso   1.00
H89    H     0.02610   0.03790   0.00230   0.01267  Uiso   1.00
H90    H     0.16100   0.78380   0.92770   0.01267  Uiso   1.00
H91    H     0.13900   0.13380   0.93730   0.01267  Uiso   1.00
H92    H     0.26790   0.88640   0.86310   0.01267  Uiso   1.00
H93    H     0.24960   0.89990   0.47450   0.01267  Uiso   1.00
H94    H     0.15470   0.01030   0.54000   0.01267  Uiso   1.00
H95    H     0.41130   0.04450   0.65120   0.01267  Uiso   1.00
H96    H     0.51320   0.93120   0.59100   0.01267  Uiso   1.00
C1     C     0.41590   0.35910   0.68948   0.01267  Uiso   1.00
C2     C     0.32990   0.44560   0.68060   0.01267  Uiso   1.00
C3     C     0.46760   0.33470   0.62352   0.01267  Uiso   1.00
C4     C     0.50860   0.39910   0.73446   0.01267  Uiso   1.00
C5     C     0.38450   0.54150   0.65150   0.01267  Uiso   1.00
C6     C     0.43390   0.51500   0.58674   0.01267  Uiso   1.00
C7     C     0.52110   0.43150   0.59461   0.01267  Uiso   1.00
C8     C     0.61340   0.46890   0.64023   0.01267  Uiso   1.00
C9     C     0.56190   0.49650   0.70500   0.01267  Uiso   1.00
C10    C     0.47530   0.57920   0.69680   0.01267  Uiso   1.00
C11    C     0.35890   0.26070   0.71336   0.01267  Uiso   1.00
C12    C     0.01000   0.31310   0.81885   0.01267  Uiso   1.00
C13    C     0.06710   0.37990   0.87058   0.01267  Uiso   1.00
C14    C     0.96780   0.38290   0.76443   0.01267  Uiso   1.00
C15    C     0.91050   0.25830   0.85009   0.01267  Uiso   1.00
C16    C     0.82850   0.33670   0.87722   0.01267  Uiso   1.00
C17    C     0.88600   0.40230   0.92747   0.01267  Uiso   1.00
C18    C     0.98380   0.45800   0.89760   0.01267  Uiso   1.00
C19    C     0.94390   0.52780   0.84320   0.01267  Uiso   1.00
C20    C     0.88620   0.46270   0.79274   0.01267  Uiso   1.00
C21    C     0.78680   0.40580   0.82253   0.01267  Uiso   1.00
C22    C     0.09040   0.23200   0.79277   0.01267  Uiso   1.00
C23    C     0.50830   0.33300   0.98457   0.01267  Uiso   1.00
C24    C     0.50100   0.22600   0.99210   0.01267  Uiso   1.00
C25    C     0.43700   0.16840   0.95060   0.01267  Uiso   1.00
C26    C     0.38170   0.31280   0.89626   0.01267  Uiso   1.00
C27    C     0.44470   0.37520   0.93522   0.01267  Uiso   1.00
C28    C     0.95740   0.32910   0.51750   0.01267  Uiso   1.00
C29    C     0.90720   0.24890   0.55068   0.01267  Uiso   1.00
C30    C     0.96700   0.18830   0.59158   0.01267  Uiso   1.00
C31    C     0.12570   0.27400   0.56755   0.01267  Uiso   1.00
C32    C     0.07090   0.33890   0.52567   0.01267  Uiso   1.00
C33    C     0.57530   0.50480   0.02541   0.01267  Uiso   1.00
C34    C     0.65420   0.35520   0.06946   0.01267  Uiso   1.00
C35    C     0.64330   0.56210   0.06511   0.01267  Uiso   1.00
C36    C     0.71900   0.41780   0.10823   0.01267  Uiso   1.00
C37    C     0.58010   0.39760   0.02674   0.01267  Uiso   1.00
C38    C     0.89380   0.40040   0.47539   0.01267  Uiso   1.00
C39    C     0.78450   0.42720   0.48925   0.01267  Uiso   1.00
C40    C     0.72790   0.49400   0.44965   0.01267  Uiso   1.00
C41    C     0.87770   0.51350   0.38428   0.01267  Uiso   1.00
C42    C     0.94040   0.44610   0.42078   0.01267  Uiso   1.00
C43    C     0.91590   0.85910   0.31052   0.01267  Uiso   1.00
C44    C     0.82990   0.94560   0.31940   0.01267  Uiso   1.00
C45    C     0.96760   0.83470   0.37648   0.01267  Uiso   1.00
C46    C     0.00860   0.89910   0.26554   0.01267  Uiso   1.00
C47    C     0.88450   0.04150   0.34850   0.01267  Uiso   1.00
C48    C     0.93390   0.01500   0.41326   0.01267  Uiso   1.00
C49    C     0.02110   0.93150   0.40539   0.01267  Uiso   1.00
C50    C     0.11340   0.96890   0.35977   0.01267  Uiso   1.00
C51    C     0.06190   0.99650   0.29500   0.01267  Uiso   1.00
C52    C     0.97530   0.07920   0.30320   0.01267  Uiso   1.00
C53    C     0.85890   0.76070   0.28664   0.01267  Uiso   1.00
C54    C     0.51000   0.81310   0.18115   0.01267  Uiso   1.00
C55    C     0.56710   0.87990   0.12942   0.01267  Uiso   1.00
C56    C     0.46780   0.88290   0.23557   0.01267  Uiso   1.00
C57    C     0.41050   0.75830   0.14991   0.01267  Uiso   1.00
C58    C     0.32850   0.83670   0.12278   0.01267  Uiso   1.00
C59    C     0.38600   0.90230   0.07253   0.01267  Uiso   1.00
C60    C     0.48380   0.95800   0.10240   0.01267  Uiso   1.00
C61    C     0.44390   0.02780   0.15680   0.01267  Uiso   1.00
C62    C     0.38620   0.96270   0.20726   0.01267  Uiso   1.00
C63    C     0.28680   0.90580   0.17747   0.01267  Uiso   1.00
C64    C     0.59040   0.73200   0.20723   0.01267  Uiso   1.00
C65    C     0.00830   0.83300   0.01543   0.01267  Uiso   1.00
C66    C     0.00100   0.72600   0.00790   0.01267  Uiso   1.00
C67    C     0.93700   0.66840   0.04940   0.01267  Uiso   1.00
C68    C     0.88170   0.81280   0.10374   0.01267  Uiso   1.00
C69    C     0.94470   0.87520   0.06478   0.01267  Uiso   1.00
C70    C     0.45740   0.82910   0.48250   0.01267  Uiso   1.00
C71    C     0.40720   0.74890   0.44932   0.01267  Uiso   1.00
C72    C     0.46700   0.68830   0.40842   0.01267  Uiso   1.00
C73    C     0.62570   0.77400   0.43245   0.01267  Uiso   1.00
C74    C     0.57090   0.83890   0.47433   0.01267  Uiso   1.00
C75    C     0.07530   0.00480   0.97459   0.01267  Uiso   1.00
C76    C     0.15420   0.85520   0.93054   0.01267  Uiso   1.00
C77    C     0.14330   0.06210   0.93489   0.01267  Uiso   1.00
C78    C     0.21900   0.91780   0.89177   0.01267  Uiso   1.00
C79    C     0.08010   0.89760   0.97326   0.01267  Uiso   1.00
C80    C     0.39380   0.90040   0.52461   0.01267  Uiso   1.00
C81    C     0.28450   0.92720   0.51075   0.01267  Uiso   1.00
C82    C     0.22790   0.99400   0.55035   0.01267  Uiso   1.00
C83    C     0.37770   0.01350   0.61572   0.01267  Uiso   1.00
C84    C     0.44040   0.94610   0.57922   0.01267  Uiso   1.00
N1     N     0.37865   0.20915   0.90216   0.01267  Uiso   1.00
N2     N     0.07571   0.19921   0.60113   0.01267  Uiso   1.00
N3     N     0.71511   0.52111   0.10683   0.01267  Uiso   1.00
N4     N     0.77279   0.53679   0.39671   0.01267  Uiso   1.00
N5     N     0.87865   0.70915   0.09784   0.01267  Uiso   1.00
N6     N     0.57571   0.69921   0.39887   0.01267  Uiso   1.00
N7     N     0.21511   0.02111   0.89317   0.01267  Uiso   1.00
N8     N     0.27279   0.03679   0.60329   0.01267  Uiso   1.00
O1     O     0.24575   0.02265   0.74854   0.01267  Uiso   1.00
O2     O     0.27645   0.23185   0.68089   0.01267  Uiso   1.00
O3     O     0.39620   0.21450   0.76186   0.01267  Uiso   1.00
O4     O     0.30150   0.61930   0.64086   0.01267  Uiso   1.00
O5     O     0.18033   0.21983   0.82268   0.01267  Uiso   1.00
O6     O     0.06025   0.17905   0.74459   0.01267  Uiso   1.00
O7     O     0.73720   0.28540   0.90783   0.01267  Uiso   1.00
O8     O     0.74575   0.52265   0.25146   0.01267  Uiso   1.00
O9     O     0.77645   0.73185   0.31911   0.01267  Uiso   1.00
O10    O     0.89620   0.71450   0.23814   0.01267  Uiso   1.00
O11    O     0.80150   0.11930   0.35914   0.01267  Uiso   1.00
O12    O     0.68033   0.71983   0.17732   0.01267  Uiso   1.00
O13    O     0.56025   0.67905   0.25541   0.01267  Uiso   1.00
O14    O     0.23720   0.78540   0.09217   0.01267  Uiso   1.00
