data_image0
_cell_length_a       14.261
_cell_length_b       16.664
_cell_length_c       26.16
_cell_angle_alpha    90
_cell_angle_beta     90
_cell_angle_gamma    90

_symmetry_space_group_name_H-M    "P 1"
_symmetry_int_tables_number       1

loop_
  _symmetry_equiv_pos_as_xyz
  'x, y, z'

loop_
  _atom_site_label
  _atom_site_occupancy
  _atom_site_fract_x
  _atom_site_fract_y
  _atom_site_fract_z
  _atom_site_thermal_displace_type
  _atom_site_B_iso_or_equiv
  _atom_site_type_symbol
  Zn1      1.0000 0.77524  0.07662  0.89130  Biso   1.000  Zn
  Zn2      1.0000 0.93625  0.93611  0.90648  Biso   1.000  Zn
  O1       1.0000 0.86641  0.13696  0.93974  Biso   1.000  O
  O2       1.0000 0.95780  0.02908  0.94996  Biso   1.000  O
  O3       1.0000 0.17499  0.34307  0.09864  Biso   1.000  O
  O4       1.0000 0.24630  0.23159  0.12427  Biso   1.000  O
  O5       1.0000 0.03334  0.86891  0.93712  Biso   1.000  O
  O6       1.0000 0.97393  0.76413  0.89596  Biso   1.000  O
  O7       1.0000 0.31490  0.60655  0.07781  Biso   1.000  O
  O8       1.0000 0.23092  0.50009  0.05188  Biso   1.000  O
  O9       1.0000 0.54497  0.03877  0.33536  Biso   1.000  O
  O10      1.0000 0.62672  0.92395  0.33501  Biso   1.000  O
  N1       1.0000 0.27668  0.86094  0.06951  Biso   1.000  N
  N2       1.0000 0.18260  0.97113  0.04024  Biso   1.000  N
  N3       1.0000 0.29067  0.99206  0.10858  Biso   1.000  N
  N4       1.0000 0.38299  0.88211  0.13292  Biso   1.000  N
  H1       1.0000 0.40200  0.83590  0.12260  Biso   1.000  H
  N5       1.0000 0.16430  0.84924  0.00435  Biso   1.000  N
  H2       1.0000 0.13440  0.87760  0.98220  Biso   1.000  H
  N6       1.0000 0.19984  0.09593  0.07925  Biso   1.000  N
  H3       1.0000 0.23260  0.12330  0.10060  Biso   1.000  H
  C1       1.0000 0.31446  0.91483  0.10384  Biso   1.000  C
  C2       1.0000 0.21110  0.89334  0.04007  Biso   1.000  C
  C3       1.0000 0.22420  0.01633  0.07527  Biso   1.000  C
  C4       1.0000 0.13040  0.13881  0.05397  Biso   1.000  C
  C5       1.0000 0.06960  0.10285  0.01950  Biso   1.000  C
  H4       1.0000 0.07610  0.04850  0.01230  Biso   1.000  H
  C6       1.0000 0.99930  0.14649  0.99549  Biso   1.000  C
  C7       1.0000 0.98840  0.22774  0.00480  Biso   1.000  C
  H5       1.0000 0.94100  0.25700  0.98900  Biso   1.000  H
  C8       1.0000 0.05130  0.26458  0.03880  Biso   1.000  C
  H6       1.0000 0.04620  0.31940  0.04480  Biso   1.000  H
  C9       1.0000 0.12050  0.22148  0.06368  Biso   1.000  C
  C10      1.0000 0.93560  0.10138  0.95765  Biso   1.000  C
  C11      1.0000 0.18590  0.26851  0.09789  Biso   1.000  C
  C12      1.0000 0.15570  0.76670  0.99697  Biso   1.000  C
  C13      1.0000 0.08920  0.73803  0.95998  Biso   1.000  C
  C14      1.0000 0.08030  0.65695  0.95311  Biso   1.000  C
  H7       1.0000 0.03970  0.63860  0.92790  Biso   1.000  H
  C15      1.0000 0.12950  0.60018  0.98228  Biso   1.000  C
  H8       1.0000 0.11980  0.54540  0.97780  Biso   1.000  H
  C16      1.0000 0.19420  0.62919  0.01858  Biso   1.000  C
  C17      1.0000 0.20820  0.71189  0.02434  Biso   1.000  C
  H9       1.0000 0.25370  0.73020  0.04700  Biso   1.000  H
  C18      1.0000 0.02720  0.79201  0.92785  Biso   1.000  C
  C19      1.0000 0.24990  0.57394  0.05118  Biso   1.000  C
  C20      1.0000 0.42820  0.91014  0.17665  Biso   1.000  C
  C21      1.0000 0.50130  0.86310  0.19593  Biso   1.000  C
  H10      1.0000 0.51950  0.81720  0.17830  Biso   1.000  H
  C22      1.0000 0.54640  0.88310  0.24006  Biso   1.000  C
  H11      1.0000 0.59390  0.85010  0.25240  Biso   1.000  H
  C23      1.0000 0.52260  0.95205  0.26692  Biso   1.000  C
  C24      1.0000 0.44990  0.99810  0.24784  Biso   1.000  C
  H12      1.0000 0.43140  0.04370  0.26580  Biso   1.000  H
  C25      1.0000 0.40340  0.97860  0.20274  Biso   1.000  C
  H13      1.0000 0.35600  0.01160  0.19030  Biso   1.000  H
  C26      1.0000 0.56780  0.97261  0.31588  Biso   1.000  C
  Zn3      1.0000 0.72476  0.92338  0.39129  Biso   1.000  Zn
  Zn4      1.0000 0.56375  0.06389  0.40648  Biso   1.000  Zn
  O11      1.0000 0.63359  0.86304  0.43974  Biso   1.000  O
  O12      1.0000 0.54220  0.97092  0.44996  Biso   1.000  O
  O13      1.0000 0.32501  0.65693  0.59864  Biso   1.000  O
  O14      1.0000 0.25370  0.76841  0.62427  Biso   1.000  O
  O15      1.0000 0.46666  0.13109  0.43712  Biso   1.000  O
  O16      1.0000 0.52607  0.23587  0.39596  Biso   1.000  O
  O17      1.0000 0.18510  0.39345  0.57781  Biso   1.000  O
  O18      1.0000 0.26908  0.49991  0.55188  Biso   1.000  O
  O19      1.0000 0.95503  0.96123  0.83536  Biso   1.000  O
  O20      1.0000 0.87328  0.07605  0.83501  Biso   1.000  O
  N7       1.0000 0.22332  0.13906  0.56951  Biso   1.000  N
  N8       1.0000 0.31740  0.02887  0.54024  Biso   1.000  N
  N9       1.0000 0.20933  0.00794  0.60858  Biso   1.000  N
  N10      1.0000 0.11701  0.11789  0.63292  Biso   1.000  N
  H14      1.0000 0.09800  0.16410  0.62260  Biso   1.000  H
  N11      1.0000 0.33570  0.15076  0.50435  Biso   1.000  N
  H15      1.0000 0.36560  0.12240  0.48220  Biso   1.000  H
  N12      1.0000 0.30016  0.90407  0.57925  Biso   1.000  N
  H16      1.0000 0.26740  0.87670  0.60060  Biso   1.000  H
  C27      1.0000 0.18554  0.08517  0.60384  Biso   1.000  C
  C28      1.0000 0.28890  0.10666  0.54007  Biso   1.000  C
  C29      1.0000 0.27580  0.98367  0.57527  Biso   1.000  C
  C30      1.0000 0.36960  0.86119  0.55397  Biso   1.000  C
  C31      1.0000 0.43040  0.89715  0.51950  Biso   1.000  C
  H17      1.0000 0.42390  0.95150  0.51230  Biso   1.000  H
  C32      1.0000 0.50070  0.85351  0.49549  Biso   1.000  C
  C33      1.0000 0.51160  0.77226  0.50480  Biso   1.000  C
  H18      1.0000 0.55900  0.74300  0.48900  Biso   1.000  H
  C34      1.0000 0.44870  0.73542  0.53880  Biso   1.000  C
  H19      1.0000 0.45380  0.68060  0.54480  Biso   1.000  H
  C35      1.0000 0.37950  0.77852  0.56368  Biso   1.000  C
  C36      1.0000 0.56440  0.89862  0.45765  Biso   1.000  C
  C37      1.0000 0.31410  0.73149  0.59789  Biso   1.000  C
  C38      1.0000 0.34430  0.23330  0.49697  Biso   1.000  C
  C39      1.0000 0.41080  0.26197  0.45998  Biso   1.000  C
  C40      1.0000 0.41970  0.34305  0.45311  Biso   1.000  C
  H20      1.0000 0.46030  0.36140  0.42790  Biso   1.000  H
  C41      1.0000 0.37050  0.39982  0.48228  Biso   1.000  C
  H21      1.0000 0.38020  0.45460  0.47780  Biso   1.000  H
  C42      1.0000 0.30580  0.37081  0.51858  Biso   1.000  C
  C43      1.0000 0.29180  0.28811  0.52434  Biso   1.000  C
  H22      1.0000 0.24630  0.26980  0.54700  Biso   1.000  H
  C44      1.0000 0.47280  0.20799  0.42785  Biso   1.000  C
  C45      1.0000 0.25010  0.42606  0.55118  Biso   1.000  C
  C46      1.0000 0.07180  0.08986  0.67665  Biso   1.000  C
  C47      1.0000 0.99870  0.13690  0.69593  Biso   1.000  C
  H23      1.0000 0.98050  0.18280  0.67830  Biso   1.000  H
  C48      1.0000 0.95360  0.11690  0.74006  Biso   1.000  C
  H24      1.0000 0.90610  0.14990  0.75240  Biso   1.000  H
  C49      1.0000 0.97740  0.04795  0.76692  Biso   1.000  C
  C50      1.0000 0.05010  0.00190  0.74784  Biso   1.000  C
  H25      1.0000 0.06860  0.95630  0.76580  Biso   1.000  H
  C51      1.0000 0.09660  0.02140  0.70274  Biso   1.000  C
  H26      1.0000 0.14400  0.98840  0.69030  Biso   1.000  H
  C52      1.0000 0.93220  0.02739  0.81588  Biso   1.000  C
  Zn5      1.0000 0.22476  0.57662  0.60871  Biso   1.000  Zn
  Zn6      1.0000 0.06375  0.43611  0.59352  Biso   1.000  Zn
  O21      1.0000 0.13359  0.63696  0.56026  Biso   1.000  O
  O22      1.0000 0.04220  0.52908  0.55004  Biso   1.000  O
  O23      1.0000 0.82501  0.84307  0.40136  Biso   1.000  O
  O24      1.0000 0.75370  0.73159  0.37573  Biso   1.000  O
  O25      1.0000 0.96666  0.36891  0.56288  Biso   1.000  O
  O26      1.0000 0.02607  0.26413  0.60404  Biso   1.000  O
  O27      1.0000 0.68510  0.10655  0.42219  Biso   1.000  O
  O28      1.0000 0.76908  0.00009  0.44812  Biso   1.000  O
  O29      1.0000 0.45503  0.53877  0.16464  Biso   1.000  O
  O30      1.0000 0.37328  0.42395  0.16499  Biso   1.000  O
  N13      1.0000 0.72332  0.36094  0.43049  Biso   1.000  N
  N14      1.0000 0.81740  0.47113  0.45976  Biso   1.000  N
  N15      1.0000 0.70933  0.49206  0.39142  Biso   1.000  N
  N16      1.0000 0.61701  0.38211  0.36708  Biso   1.000  N
  H27      1.0000 0.59800  0.33590  0.37740  Biso   1.000  H
  N17      1.0000 0.83570  0.34924  0.49565  Biso   1.000  N
  H28      1.0000 0.86560  0.37760  0.51780  Biso   1.000  H
  N18      1.0000 0.80016  0.59593  0.42075  Biso   1.000  N
  H29      1.0000 0.76740  0.62330  0.39940  Biso   1.000  H
  C53      1.0000 0.68554  0.41483  0.39616  Biso   1.000  C
  C54      1.0000 0.78890  0.39334  0.45993  Biso   1.000  C
  C55      1.0000 0.77580  0.51633  0.42473  Biso   1.000  C
  C56      1.0000 0.86960  0.63881  0.44603  Biso   1.000  C
  C57      1.0000 0.93040  0.60285  0.48050  Biso   1.000  C
  H30      1.0000 0.92390  0.54850  0.48770  Biso   1.000  H
  C58      1.0000 0.00070  0.64649  0.50451  Biso   1.000  C
  C59      1.0000 0.01160  0.72774  0.49520  Biso   1.000  C
  H31      1.0000 0.05900  0.75700  0.51100  Biso   1.000  H
  C60      1.0000 0.94870  0.76458  0.46120  Biso   1.000  C
  H32      1.0000 0.95380  0.81940  0.45520  Biso   1.000  H
  C61      1.0000 0.87950  0.72148  0.43632  Biso   1.000  C
  C62      1.0000 0.06440  0.60138  0.54235  Biso   1.000  C
  C63      1.0000 0.81410  0.76851  0.40211  Biso   1.000  C
  C64      1.0000 0.84430  0.26670  0.50303  Biso   1.000  C
  C65      1.0000 0.91080  0.23803  0.54002  Biso   1.000  C
  C66      1.0000 0.91970  0.15695  0.54689  Biso   1.000  C
  H33      1.0000 0.96030  0.13860  0.57210  Biso   1.000  H
  C67      1.0000 0.87050  0.10018  0.51772  Biso   1.000  C
  H34      1.0000 0.88020  0.04540  0.52220  Biso   1.000  H
  C68      1.0000 0.80580  0.12919  0.48142  Biso   1.000  C
  C69      1.0000 0.79180  0.21189  0.47566  Biso   1.000  C
  H35      1.0000 0.74630  0.23020  0.45300  Biso   1.000  H
  C70      1.0000 0.97280  0.29201  0.57215  Biso   1.000  C
  C71      1.0000 0.75010  0.07394  0.44882  Biso   1.000  C
  C72      1.0000 0.57180  0.41014  0.32335  Biso   1.000  C
  C73      1.0000 0.49870  0.36310  0.30407  Biso   1.000  C
  H36      1.0000 0.48050  0.31720  0.32170  Biso   1.000  H
  C74      1.0000 0.45360  0.38310  0.25994  Biso   1.000  C
  H37      1.0000 0.40610  0.35010  0.24760  Biso   1.000  H
  C75      1.0000 0.47740  0.45205  0.23308  Biso   1.000  C
  C76      1.0000 0.55010  0.49810  0.25216  Biso   1.000  C
  H38      1.0000 0.56860  0.54370  0.23420  Biso   1.000  H
  C77      1.0000 0.59660  0.47860  0.29726  Biso   1.000  C
  H39      1.0000 0.64400  0.51160  0.30970  Biso   1.000  H
  C78      1.0000 0.43220  0.47261  0.18412  Biso   1.000  C
  Zn7      1.0000 0.27524  0.42338  0.10871  Biso   1.000  Zn
  Zn8      1.0000 0.43625  0.56389  0.09352  Biso   1.000  Zn
  O31      1.0000 0.36641  0.36304  0.06026  Biso   1.000  O
  O32      1.0000 0.45780  0.47092  0.05004  Biso   1.000  O
  O33      1.0000 0.67499  0.15693  0.90136  Biso   1.000  O
  O34      1.0000 0.74630  0.26841  0.87573  Biso   1.000  O
  O35      1.0000 0.53334  0.63109  0.06288  Biso   1.000  O
  O36      1.0000 0.47393  0.73587  0.10404  Biso   1.000  O
  O37      1.0000 0.81490  0.89345  0.92219  Biso   1.000  O
  O38      1.0000 0.73092  0.99991  0.94812  Biso   1.000  O
  O39      1.0000 0.04497  0.46123  0.66464  Biso   1.000  O
  O40      1.0000 0.12672  0.57605  0.66499  Biso   1.000  O
  N19      1.0000 0.77668  0.63906  0.93049  Biso   1.000  N
  N20      1.0000 0.68260  0.52887  0.95976  Biso   1.000  N
  N21      1.0000 0.79067  0.50794  0.89142  Biso   1.000  N
  N22      1.0000 0.88299  0.61789  0.86708  Biso   1.000  N
  H40      1.0000 0.90200  0.66410  0.87740  Biso   1.000  H
  N23      1.0000 0.66430  0.65076  0.99565  Biso   1.000  N
  H41      1.0000 0.63440  0.62240  0.01780  Biso   1.000  H
  N24      1.0000 0.69984  0.40407  0.92075  Biso   1.000  N
  H42      1.0000 0.73260  0.37670  0.89940  Biso   1.000  H
  C79      1.0000 0.81446  0.58517  0.89616  Biso   1.000  C
  C80      1.0000 0.71110  0.60666  0.95993  Biso   1.000  C
  C81      1.0000 0.72420  0.48367  0.92473  Biso   1.000  C
  C82      1.0000 0.63040  0.36119  0.94603  Biso   1.000  C
  C83      1.0000 0.56960  0.39715  0.98050  Biso   1.000  C
  H43      1.0000 0.57610  0.45150  0.98770  Biso   1.000  H
  C84      1.0000 0.49930  0.35351  0.00451  Biso   1.000  C
  C85      1.0000 0.48840  0.27226  0.99520  Biso   1.000  C
  H44      1.0000 0.44100  0.24300  0.01100  Biso   1.000  H
  C86      1.0000 0.55130  0.23542  0.96120  Biso   1.000  C
  H45      1.0000 0.54620  0.18060  0.95520  Biso   1.000  H
  C87      1.0000 0.62050  0.27852  0.93632  Biso   1.000  C
  C88      1.0000 0.43560  0.39862  0.04235  Biso   1.000  C
  C89      1.0000 0.68590  0.23149  0.90211  Biso   1.000  C
  C90      1.0000 0.65570  0.73330  0.00303  Biso   1.000  C
  C91      1.0000 0.58920  0.76197  0.04002  Biso   1.000  C
  C92      1.0000 0.58030  0.84305  0.04689  Biso   1.000  C
  H46      1.0000 0.53970  0.86140  0.07210  Biso   1.000  H
  C93      1.0000 0.62950  0.89982  0.01772  Biso   1.000  C
  H47      1.0000 0.61980  0.95460  0.02220  Biso   1.000  H
  C94      1.0000 0.69420  0.87081  0.98142  Biso   1.000  C
  C95      1.0000 0.70820  0.78811  0.97566  Biso   1.000  C
  H48      1.0000 0.75370  0.76980  0.95300  Biso   1.000  H
  C96      1.0000 0.52720  0.70799  0.07215  Biso   1.000  C
  C97      1.0000 0.74990  0.92606  0.94882  Biso   1.000  C
  C98      1.0000 0.92820  0.58986  0.82335  Biso   1.000  C
  C99      1.0000 0.00130  0.63690  0.80407  Biso   1.000  C
  H49      1.0000 0.01950  0.68280  0.82170  Biso   1.000  H
  C100     1.0000 0.04640  0.61690  0.75994  Biso   1.000  C
  H50      1.0000 0.09390  0.64990  0.74760  Biso   1.000  H
  C101     1.0000 0.02260  0.54795  0.73308  Biso   1.000  C
  C102     1.0000 0.94990  0.50190  0.75216  Biso   1.000  C
  H51      1.0000 0.93140  0.45630  0.73420  Biso   1.000  H
  C103     1.0000 0.90340  0.52140  0.79726  Biso   1.000  C
  H52      1.0000 0.85600  0.48840  0.80970  Biso   1.000  H
  C104     1.0000 0.06780  0.52739  0.68412  Biso   1.000  C
