data_image0
_cell_length_a       8.8475
_cell_length_b       10.716
_cell_length_c       18.895
_cell_angle_alpha    75.521
_cell_angle_beta     83.777
_cell_angle_gamma    69.306

_symmetry_space_group_name_H-M    "P 1"
_symmetry_int_tables_number       1

loop_
  _symmetry_equiv_pos_as_xyz
  'x, y, z'

loop_
  _atom_site_label
  _atom_site_occupancy
  _atom_site_fract_x
  _atom_site_fract_y
  _atom_site_fract_z
  _atom_site_thermal_displace_type
  _atom_site_B_iso_or_equiv
  _atom_site_type_symbol
  Sm1      1.0000 0.00220  0.41200  0.28695  Biso   1.000  Sm
  Sm2      1.0000 0.39655  0.53203  0.22375  Biso   1.000  Sm
  C1       1.0000 0.52600  0.31420  0.43950  Biso   1.000  C
  H1       1.0000 0.55740  0.29240  0.39430  Biso   1.000  H
  C2       1.0000 0.36140  0.37140  0.45440  Biso   1.000  C
  C3       1.0000 0.31200  0.40340  0.52140  Biso   1.000  C
  H2       1.0000 0.20290  0.44140  0.53290  Biso   1.000  H
  C4       1.0000 0.43160  0.37700  0.57210  Biso   1.000  C
  C5       1.0000 0.59150  0.31920  0.55280  Biso   1.000  C
  H3       1.0000 0.66940  0.29990  0.58700  Biso   1.000  H
  C6       1.0000 0.24430  0.40010  0.39610  Biso   1.000  C
  C7       1.0000 0.38570  0.41630  0.64390  Biso   1.000  C
  C8       1.0000 0.90050  0.69140  0.91620  Biso   1.000  C
  H4       1.0000 0.93680  0.71350  0.86820  Biso   1.000  H
  C9       1.0000 0.76950  0.64310  0.92970  Biso   1.000  C
  C10      1.0000 0.71050  0.61540  0.00100  Biso   1.000  C
  H5       1.0000 0.62050  0.58770  0.01120  Biso   1.000  H
  C11      1.0000 0.78930  0.63010  0.05690  Biso   1.000  C
  C12      1.0000 0.92210  0.67630  0.03710  Biso   1.000  C
  H6       1.0000 0.97560  0.68560  0.07410  Biso   1.000  H
  C13      1.0000 0.74480  0.59220  0.13600  Biso   1.000  C
  C14      1.0000 0.70080  0.61200  0.87020  Biso   1.000  C
  C15      1.0000 0.63210  0.07230  0.24390  Biso   1.000  C
  H7       1.0000 0.53420  0.14400  0.24200  Biso   1.000  H
  C16      1.0000 0.77280  0.84760  0.24570  Biso   1.000  C
  H8       1.0000 0.77330  0.76100  0.24490  Biso   1.000  H
  C17      1.0000 0.91820  0.86440  0.24980  Biso   1.000  C
  C18      1.0000 0.91810  0.99420  0.24890  Biso   1.000  C
  H9       1.0000 0.01520  0.00950  0.24920  Biso   1.000  H
  C19      1.0000 0.77250  0.10110  0.24750  Biso   1.000  C
  C20      1.0000 0.76290  0.24410  0.24790  Biso   1.000  C
  C21      1.0000 0.07240  0.74230  0.25400  Biso   1.000  C
  N1       1.0000 0.64180  0.28870  0.48700  Biso   1.000  N
  N2       1.0000 0.97510  0.70710  0.96930  Biso   1.000  N
  N3       1.0000 0.62770  0.95110  0.24290  Biso   1.000  N
  O1       1.0000 0.09460  0.42930  0.41130  Biso   1.000  O
  O2       1.0000 0.29680  0.39370  0.33150  Biso   1.000  O
  O3       1.0000 0.23410  0.46050  0.66010  Biso   1.000  O
  O4       1.0000 0.49470  0.41040  0.68260  Biso   1.000  O
  O5       1.0000 0.85150  0.55570  0.18050  Biso   1.000  O
  O6       1.0000 0.59790  0.60200  0.15040  Biso   1.000  O
  O7       1.0000 0.56760  0.58930  0.88120  Biso   1.000  O
  O8       1.0000 0.78020  0.60160  0.81050  Biso   1.000  O
  O9       1.0000 0.62420  0.32690  0.25650  Biso   1.000  O
  O10      1.0000 0.89250  0.26780  0.24130  Biso   1.000  O
  O11      1.0000 0.20430  0.75920  0.25350  Biso   1.000  O
  O12      1.0000 0.06270  0.62920  0.25560  Biso   1.000  O
  Sm3      1.0000 0.99780  0.58800  0.71305  Biso   1.000  Sm
  Sm4      1.0000 0.60345  0.46797  0.77625  Biso   1.000  Sm
  C22      1.0000 0.47400  0.68580  0.56050  Biso   1.000  C
  H10      1.0000 0.44260  0.70760  0.60570  Biso   1.000  H
  C23      1.0000 0.63860  0.62860  0.54560  Biso   1.000  C
  C24      1.0000 0.68800  0.59660  0.47860  Biso   1.000  C
  H11      1.0000 0.79710  0.55860  0.46710  Biso   1.000  H
  C25      1.0000 0.56840  0.62300  0.42790  Biso   1.000  C
  C26      1.0000 0.40850  0.68080  0.44720  Biso   1.000  C
  H12      1.0000 0.33060  0.70010  0.41300  Biso   1.000  H
  C27      1.0000 0.75570  0.59990  0.60390  Biso   1.000  C
  C28      1.0000 0.61430  0.58370  0.35610  Biso   1.000  C
  C29      1.0000 0.09950  0.30860  0.08380  Biso   1.000  C
  H13      1.0000 0.06320  0.28650  0.13180  Biso   1.000  H
  C30      1.0000 0.23050  0.35690  0.07030  Biso   1.000  C
  C31      1.0000 0.28950  0.38460  0.99900  Biso   1.000  C
  H14      1.0000 0.37950  0.41230  0.98880  Biso   1.000  H
  C32      1.0000 0.21070  0.36990  0.94310  Biso   1.000  C
  C33      1.0000 0.07790  0.32370  0.96290  Biso   1.000  C
  H15      1.0000 0.02440  0.31440  0.92590  Biso   1.000  H
  C34      1.0000 0.25520  0.40780  0.86400  Biso   1.000  C
  C35      1.0000 0.29920  0.38800  0.12980  Biso   1.000  C
  C36      1.0000 0.36790  0.92770  0.75610  Biso   1.000  C
  H16      1.0000 0.46580  0.85600  0.75800  Biso   1.000  H
  C37      1.0000 0.22720  0.15240  0.75430  Biso   1.000  C
  H17      1.0000 0.22670  0.23900  0.75510  Biso   1.000  H
  C38      1.0000 0.08180  0.13560  0.75020  Biso   1.000  C
  C39      1.0000 0.08190  0.00580  0.75110  Biso   1.000  C
  H18      1.0000 0.98480  0.99050  0.75080  Biso   1.000  H
  C40      1.0000 0.22750  0.89890  0.75250  Biso   1.000  C
  C41      1.0000 0.23710  0.75590  0.75210  Biso   1.000  C
  C42      1.0000 0.92760  0.25770  0.74600  Biso   1.000  C
  N4       1.0000 0.35820  0.71130  0.51300  Biso   1.000  N
  N5       1.0000 0.02490  0.29290  0.03070  Biso   1.000  N
  N6       1.0000 0.37230  0.04890  0.75710  Biso   1.000  N
  O13      1.0000 0.90540  0.57070  0.58870  Biso   1.000  O
  O14      1.0000 0.70320  0.60630  0.66850  Biso   1.000  O
  O15      1.0000 0.76590  0.53950  0.33990  Biso   1.000  O
  O16      1.0000 0.50530  0.58960  0.31740  Biso   1.000  O
  O17      1.0000 0.14850  0.44430  0.81950  Biso   1.000  O
  O18      1.0000 0.40210  0.39800  0.84960  Biso   1.000  O
  O19      1.0000 0.43240  0.41070  0.11880  Biso   1.000  O
  O20      1.0000 0.21980  0.39840  0.18950  Biso   1.000  O
  O21      1.0000 0.37580  0.67310  0.74350  Biso   1.000  O
  O22      1.0000 0.10750  0.73220  0.75870  Biso   1.000  O
  O23      1.0000 0.79570  0.24080  0.74650  Biso   1.000  O
  O24      1.0000 0.93730  0.37080  0.74440  Biso   1.000  O
