data_image0
_cell_length_a       8.8723
_cell_length_b       10.7152
_cell_length_c       18.92
_cell_angle_alpha    75.496
_cell_angle_beta     83.797
_cell_angle_gamma    69.336

_symmetry_space_group_name_H-M    "P 1"
_symmetry_int_tables_number       1

loop_
  _symmetry_equiv_pos_as_xyz
  'x, y, z'

loop_
  _atom_site_label
  _atom_site_occupancy
  _atom_site_fract_x
  _atom_site_fract_y
  _atom_site_fract_z
  _atom_site_thermal_displace_type
  _atom_site_B_iso_or_equiv
  _atom_site_type_symbol
  Pr1      1.0000 0.49816  0.58858  0.21300  Biso   1.000  Pr
  O1       1.0000 0.28020  0.60350  0.31043  Biso   1.000  O
  O2       1.0000 0.20240  0.60790  0.16790  Biso   1.000  O
  O3       1.0000 0.40340  0.57190  0.08810  Biso   1.000  O
  O4       1.0000 0.43480  0.37180  0.24430  Biso   1.000  O
  O5       1.0000 0.65060  0.44250  0.31892  Biso   1.000  O
  O6       1.0000 0.73660  0.45840  0.15957  Biso   1.000  O
  O7       1.0000 0.60950  0.73110  0.25880  Biso   1.000  O
  Pr2      1.0000 0.10400  0.46808  0.27628  Biso   1.000  Pr
  C1       1.0000 0.42670  0.25620  0.24590  Biso   1.000  C
  C2       1.0000 0.75860  0.40630  0.36460  Biso   1.000  C
  C3       1.0000 0.88500  0.41690  0.14380  Biso   1.000  C
  O8       1.0000 0.07020  0.59100  0.38070  Biso   1.000  O
  O9       1.0000 0.29520  0.23870  0.24610  Biso   1.000  O
  O10      1.0000 0.90240  0.39760  0.35110  Biso   1.000  O
  O11      1.0000 0.99480  0.40970  0.18211  Biso   1.000  O
  O12      1.0000 0.87600  0.67370  0.24350  Biso   1.000  O
  C4       1.0000 0.58130  0.13560  0.24980  Biso   1.000  C
  C5       1.0000 0.71000  0.36880  0.44360  Biso   1.000  C
  C6       1.0000 0.93110  0.37560  0.07200  Biso   1.000  C
  C7       1.0000 0.72790  0.15270  0.25390  Biso   1.000  C
  C8       1.0000 0.58190  0.00640  0.24960  Biso   1.000  C
  C9       1.0000 0.57880  0.32400  0.46300  Biso   1.000  C
  C10      1.0000 0.78710  0.38380  0.49870  Biso   1.000  C
  C11      1.0000 0.81320  0.40090  0.02200  Biso   1.000  C
  C12      1.0000 0.09200  0.31940  0.05260  Biso   1.000  C
  H1       1.0000 0.72740  0.23930  0.25460  Biso   1.000  H
  N1       1.0000 0.87050  0.05070  0.25700  Biso   1.000  N
  H2       1.0000 0.48550  0.99140  0.24770  Biso   1.000  H
  C13      1.0000 0.72700  0.89960  0.25230  Biso   1.000  C
  N2       1.0000 0.52600  0.29110  0.53070  Biso   1.000  N
  H3       1.0000 0.52430  0.31680  0.42570  Biso   1.000  H
  C14      1.0000 0.73010  0.35650  0.57040  Biso   1.000  C
  H4       1.0000 0.87660  0.41190  0.48820  Biso   1.000  H
  C15      1.0000 0.86150  0.37030  0.95430  Biso   1.000  C
  H5       1.0000 0.70450  0.43750  0.03380  Biso   1.000  H
  N3       1.0000 0.13970  0.28910  0.98690  Biso   1.000  N
  H6       1.0000 0.17010  0.30190  0.08620  Biso   1.000  H
  C16      1.0000 0.86830  0.92790  0.25530  Biso   1.000  C
  C17      1.0000 0.73840  0.75620  0.25200  Biso   1.000  C
  C18      1.0000 0.60150  0.30730  0.58320  Biso   1.000  C
  C19      1.0000 0.79910  0.38670  0.62970  Biso   1.000  C
  C20      1.0000 0.02390  0.31570  0.93960  Biso   1.000  C
  C21      1.0000 0.74350  0.40070  0.89640  Biso   1.000  C
  H7       1.0000 0.96620  0.85680  0.25620  Biso   1.000  H
  H8       1.0000 0.56620  0.28440  0.63120  Biso   1.000  H
  H9       1.0000 0.05540  0.29590  0.89400  Biso   1.000  H
  Pr3      1.0000 0.50184  0.41142  0.78700  Biso   1.000  Pr
  O13      1.0000 0.71980  0.39650  0.68957  Biso   1.000  O
  O14      1.0000 0.79760  0.39210  0.83210  Biso   1.000  O
  O15      1.0000 0.59660  0.42810  0.91190  Biso   1.000  O
  O16      1.0000 0.56520  0.62820  0.75570  Biso   1.000  O
  O17      1.0000 0.34940  0.55750  0.68108  Biso   1.000  O
  O18      1.0000 0.26340  0.54160  0.84043  Biso   1.000  O
  O19      1.0000 0.39050  0.26890  0.74120  Biso   1.000  O
  Pr4      1.0000 0.89600  0.53192  0.72372  Biso   1.000  Pr
  C22      1.0000 0.57330  0.74380  0.75410  Biso   1.000  C
  C23      1.0000 0.24140  0.59370  0.63540  Biso   1.000  C
  C24      1.0000 0.11500  0.58310  0.85620  Biso   1.000  C
  O20      1.0000 0.92980  0.40900  0.61930  Biso   1.000  O
  O21      1.0000 0.70480  0.76130  0.75390  Biso   1.000  O
  O22      1.0000 0.09760  0.60240  0.64890  Biso   1.000  O
  O23      1.0000 0.00520  0.59030  0.81789  Biso   1.000  O
  O24      1.0000 0.12400  0.32630  0.75650  Biso   1.000  O
  C25      1.0000 0.41870  0.86440  0.75020  Biso   1.000  C
  C26      1.0000 0.29000  0.63120  0.55640  Biso   1.000  C
  C27      1.0000 0.06890  0.62440  0.92800  Biso   1.000  C
  C28      1.0000 0.27210  0.84730  0.74610  Biso   1.000  C
  C29      1.0000 0.41810  0.99360  0.75040  Biso   1.000  C
  C30      1.0000 0.42120  0.67600  0.53700  Biso   1.000  C
  C31      1.0000 0.21290  0.61620  0.50130  Biso   1.000  C
  C32      1.0000 0.18680  0.59910  0.97800  Biso   1.000  C
  C33      1.0000 0.90800  0.68060  0.94740  Biso   1.000  C
  H10      1.0000 0.27260  0.76070  0.74540  Biso   1.000  H
  N4       1.0000 0.12950  0.94930  0.74300  Biso   1.000  N
  H11      1.0000 0.51450  0.00860  0.75230  Biso   1.000  H
  C34      1.0000 0.27300  0.10040  0.74770  Biso   1.000  C
  N5       1.0000 0.47400  0.70890  0.46930  Biso   1.000  N
  H12      1.0000 0.47570  0.68320  0.57430  Biso   1.000  H
  C35      1.0000 0.26990  0.64350  0.42960  Biso   1.000  C
  H13      1.0000 0.12340  0.58810  0.51180  Biso   1.000  H
  C36      1.0000 0.13850  0.62970  0.04570  Biso   1.000  C
  H14      1.0000 0.29550  0.56250  0.96620  Biso   1.000  H
  N6       1.0000 0.86030  0.71090  0.01310  Biso   1.000  N
  H15      1.0000 0.82990  0.69810  0.91380  Biso   1.000  H
  C37      1.0000 0.13170  0.07210  0.74470  Biso   1.000  C
  C38      1.0000 0.26160  0.24380  0.74800  Biso   1.000  C
  C39      1.0000 0.39850  0.69270  0.41680  Biso   1.000  C
  C40      1.0000 0.20090  0.61330  0.37030  Biso   1.000  C
  C41      1.0000 0.97610  0.68430  0.06040  Biso   1.000  C
  C42      1.0000 0.25650  0.59930  0.10360  Biso   1.000  C
  H16      1.0000 0.03380  0.14320  0.74380  Biso   1.000  H
  H17      1.0000 0.43380  0.71560  0.36880  Biso   1.000  H
  H18      1.0000 0.94460  0.70410  0.10600  Biso   1.000  H
