data_image0
_cell_length_a       18.899
_cell_length_b       18.899
_cell_length_c       31.69
_cell_angle_alpha    90
_cell_angle_beta     90
_cell_angle_gamma    120

_symmetry_space_group_name_H-M    "P 1"
_symmetry_int_tables_number       1

loop_
  _symmetry_equiv_pos_as_xyz
  'x, y, z'

loop_
  _atom_site_label
  _atom_site_occupancy
  _atom_site_fract_x
  _atom_site_fract_y
  _atom_site_fract_z
  _atom_site_thermal_displace_type
  _atom_site_B_iso_or_equiv
  _atom_site_type_symbol
  O1       1.0000 0.51750  0.62690  0.00691  Biso   1.000  O
  O2       1.0000 0.55480  0.59030  0.94728  Biso   1.000  O
  C1       1.0000 0.60130  0.73930  0.91120  Biso   1.000  C
  H1       1.0000 0.61210  0.70240  0.89730  Biso   1.000  H
  C2       1.0000 0.54570  0.64040  0.97080  Biso   1.000  C
  C3       1.0000 0.56740  0.72090  0.95101  Biso   1.000  C
  Cl1      1.0000 0.55900  0.84600  0.80896  Biso   1.000  Cl
  O3       1.0000 0.18417  0.96023  0.34024  Biso   1.000  O
  O4       1.0000 0.22147  0.92363  0.28061  Biso   1.000  O
  C4       1.0000 0.26797  0.07263  0.24453  Biso   1.000  C
  H2       1.0000 0.27877  0.03573  0.23063  Biso   1.000  H
  C5       1.0000 0.21237  0.97373  0.30413  Biso   1.000  C
  C6       1.0000 0.23407  0.05423  0.28434  Biso   1.000  C
  Cl2      1.0000 0.22567  0.17933  0.14229  Biso   1.000  Cl
  O5       1.0000 0.85083  0.29357  0.67358  Biso   1.000  O
  O6       1.0000 0.88813  0.25697  0.61395  Biso   1.000  O
  C7       1.0000 0.93463  0.40597  0.57787  Biso   1.000  C
  H3       1.0000 0.94543  0.36907  0.56397  Biso   1.000  H
  C8       1.0000 0.87903  0.30707  0.63747  Biso   1.000  C
  C9       1.0000 0.90073  0.38757  0.61768  Biso   1.000  C
  Cl3      1.0000 0.89233  0.51267  0.47563  Biso   1.000  Cl
  O7       1.0000 0.37310  0.89060  0.00691  Biso   1.000  O
  O8       1.0000 0.40970  0.96450  0.94728  Biso   1.000  O
  C10      1.0000 0.26070  0.86200  0.91120  Biso   1.000  C
  H4       1.0000 0.29760  0.90970  0.89730  Biso   1.000  H
  C11      1.0000 0.35960  0.90530  0.97080  Biso   1.000  C
  C12      1.0000 0.27910  0.84650  0.95101  Biso   1.000  C
  Cl4      1.0000 0.15400  0.71300  0.80896  Biso   1.000  Cl
  O9       1.0000 0.03977  0.22393  0.34024  Biso   1.000  O
  O10      1.0000 0.07637  0.29783  0.28061  Biso   1.000  O
  C13      1.0000 0.92737  0.19533  0.24453  Biso   1.000  C
  H5       1.0000 0.96427  0.24303  0.23063  Biso   1.000  H
  C14      1.0000 0.02627  0.23863  0.30413  Biso   1.000  C
  C15      1.0000 0.94577  0.17983  0.28434  Biso   1.000  C
  Cl5      1.0000 0.82067  0.04633  0.14229  Biso   1.000  Cl
  O11      1.0000 0.70643  0.55727  0.67358  Biso   1.000  O
  O12      1.0000 0.74303  0.63117  0.61395  Biso   1.000  O
  C16      1.0000 0.59403  0.52867  0.57787  Biso   1.000  C
  H6       1.0000 0.63093  0.57637  0.56397  Biso   1.000  H
  C17      1.0000 0.69293  0.57197  0.63747  Biso   1.000  C
  C18      1.0000 0.61243  0.51317  0.61768  Biso   1.000  C
  Cl6      1.0000 0.48733  0.37967  0.47563  Biso   1.000  Cl
  O13      1.0000 0.10940  0.48250  0.00691  Biso   1.000  O
  O14      1.0000 0.03550  0.44520  0.94728  Biso   1.000  O
  C19      1.0000 0.13800  0.39870  0.91120  Biso   1.000  C
  H7       1.0000 0.09030  0.38790  0.89730  Biso   1.000  H
  C20      1.0000 0.09470  0.45430  0.97080  Biso   1.000  C
  C21      1.0000 0.15350  0.43260  0.95101  Biso   1.000  C
  Cl7      1.0000 0.28700  0.44100  0.80896  Biso   1.000  Cl
  O15      1.0000 0.77607  0.81583  0.34024  Biso   1.000  O
  O16      1.0000 0.70217  0.77853  0.28061  Biso   1.000  O
  C22      1.0000 0.80467  0.73203  0.24453  Biso   1.000  C
  H8       1.0000 0.75697  0.72123  0.23063  Biso   1.000  H
  C23      1.0000 0.76137  0.78763  0.30413  Biso   1.000  C
  C24      1.0000 0.82017  0.76593  0.28434  Biso   1.000  C
  Cl8      1.0000 0.95367  0.77433  0.14229  Biso   1.000  Cl
  O17      1.0000 0.44273  0.14917  0.67358  Biso   1.000  O
  O18      1.0000 0.36883  0.11187  0.61395  Biso   1.000  O
  C25      1.0000 0.47133  0.06537  0.57787  Biso   1.000  C
  H9       1.0000 0.42363  0.05457  0.56397  Biso   1.000  H
  C26      1.0000 0.42803  0.12097  0.63747  Biso   1.000  C
  C27      1.0000 0.48683  0.09927  0.61768  Biso   1.000  C
  Cl9      1.0000 0.62033  0.10767  0.47563  Biso   1.000  Cl
  O19      1.0000 0.62690  0.51750  0.99309  Biso   1.000  O
  O20      1.0000 0.59030  0.55480  0.05272  Biso   1.000  O
  C28      1.0000 0.73930  0.60130  0.08880  Biso   1.000  C
  H10      1.0000 0.70240  0.61210  0.10270  Biso   1.000  H
  C29      1.0000 0.64040  0.54570  0.02920  Biso   1.000  C
  C30      1.0000 0.72090  0.56740  0.04899  Biso   1.000  C
  Cl10     1.0000 0.84600  0.55900  0.19104  Biso   1.000  Cl
  O21      1.0000 0.29357  0.85083  0.32642  Biso   1.000  O
  O22      1.0000 0.25697  0.88813  0.38605  Biso   1.000  O
  C31      1.0000 0.40597  0.93463  0.42213  Biso   1.000  C
  H11      1.0000 0.36907  0.94543  0.43603  Biso   1.000  H
  C32      1.0000 0.30707  0.87903  0.36253  Biso   1.000  C
  C33      1.0000 0.38757  0.90073  0.38232  Biso   1.000  C
  Cl11     1.0000 0.51267  0.89233  0.52437  Biso   1.000  Cl
  O23      1.0000 0.96023  0.18417  0.65976  Biso   1.000  O
  O24      1.0000 0.92363  0.22147  0.71939  Biso   1.000  O
  C34      1.0000 0.07263  0.26797  0.75547  Biso   1.000  C
  H12      1.0000 0.03573  0.27877  0.76937  Biso   1.000  H
  C35      1.0000 0.97373  0.21237  0.69587  Biso   1.000  C
  C36      1.0000 0.05423  0.23407  0.71566  Biso   1.000  C
  Cl12     1.0000 0.17933  0.22567  0.85771  Biso   1.000  Cl
  O25      1.0000 0.89060  0.37310  0.99309  Biso   1.000  O
  O26      1.0000 0.96450  0.40970  0.05272  Biso   1.000  O
  C37      1.0000 0.86200  0.26070  0.08880  Biso   1.000  C
  H13      1.0000 0.90970  0.29760  0.10270  Biso   1.000  H
  C38      1.0000 0.90530  0.35960  0.02920  Biso   1.000  C
  C39      1.0000 0.84650  0.27910  0.04899  Biso   1.000  C
  Cl13     1.0000 0.71300  0.15400  0.19104  Biso   1.000  Cl
  O27      1.0000 0.55727  0.70643  0.32642  Biso   1.000  O
  O28      1.0000 0.63117  0.74303  0.38605  Biso   1.000  O
  C40      1.0000 0.52867  0.59403  0.42213  Biso   1.000  C
  H14      1.0000 0.57637  0.63093  0.43603  Biso   1.000  H
  C41      1.0000 0.57197  0.69293  0.36253  Biso   1.000  C
  C42      1.0000 0.51317  0.61243  0.38232  Biso   1.000  C
  Cl14     1.0000 0.37967  0.48733  0.52437  Biso   1.000  Cl
  O29      1.0000 0.22393  0.03977  0.65976  Biso   1.000  O
  O30      1.0000 0.29783  0.07637  0.71939  Biso   1.000  O
  C43      1.0000 0.19533  0.92737  0.75547  Biso   1.000  C
  H15      1.0000 0.24303  0.96427  0.76937  Biso   1.000  H
  C44      1.0000 0.23863  0.02627  0.69587  Biso   1.000  C
  C45      1.0000 0.17983  0.94577  0.71566  Biso   1.000  C
  Cl15     1.0000 0.04633  0.82067  0.85771  Biso   1.000  Cl
  O31      1.0000 0.48250  0.10940  0.99309  Biso   1.000  O
  O32      1.0000 0.44520  0.03550  0.05272  Biso   1.000  O
  C46      1.0000 0.39870  0.13800  0.08880  Biso   1.000  C
  H16      1.0000 0.38790  0.09030  0.10270  Biso   1.000  H
  C47      1.0000 0.45430  0.09470  0.02920  Biso   1.000  C
  C48      1.0000 0.43260  0.15350  0.04899  Biso   1.000  C
  Cl16     1.0000 0.44100  0.28700  0.19104  Biso   1.000  Cl
  O33      1.0000 0.14917  0.44273  0.32642  Biso   1.000  O
  O34      1.0000 0.11187  0.36883  0.38605  Biso   1.000  O
  C49      1.0000 0.06537  0.47133  0.42213  Biso   1.000  C
  H17      1.0000 0.05457  0.42363  0.43603  Biso   1.000  H
  C50      1.0000 0.12097  0.42803  0.36253  Biso   1.000  C
  C51      1.0000 0.09927  0.48683  0.38232  Biso   1.000  C
  Cl17     1.0000 0.10767  0.62033  0.52437  Biso   1.000  Cl
  O35      1.0000 0.81583  0.77607  0.65976  Biso   1.000  O
  O36      1.0000 0.77853  0.70217  0.71939  Biso   1.000  O
  C52      1.0000 0.73203  0.80467  0.75547  Biso   1.000  C
  H18      1.0000 0.72123  0.75697  0.76937  Biso   1.000  H
  C53      1.0000 0.78763  0.76137  0.69587  Biso   1.000  C
  C54      1.0000 0.76593  0.82017  0.71566  Biso   1.000  C
  Cl18     1.0000 0.77433  0.95367  0.85771  Biso   1.000  Cl
  O37      1.0000 0.48250  0.37310  0.99309  Biso   1.000  O
  O38      1.0000 0.44520  0.40970  0.05272  Biso   1.000  O
  C55      1.0000 0.39870  0.26070  0.08880  Biso   1.000  C
  H19      1.0000 0.38790  0.29760  0.10270  Biso   1.000  H
  C56      1.0000 0.45430  0.35960  0.02920  Biso   1.000  C
  C57      1.0000 0.43260  0.27910  0.04899  Biso   1.000  C
  Cl19     1.0000 0.44100  0.15400  0.19104  Biso   1.000  Cl
  O39      1.0000 0.14917  0.70643  0.32642  Biso   1.000  O
  O40      1.0000 0.11187  0.74303  0.38605  Biso   1.000  O
  C58      1.0000 0.06537  0.59403  0.42213  Biso   1.000  C
  H20      1.0000 0.05457  0.63093  0.43603  Biso   1.000  H
  C59      1.0000 0.12097  0.69293  0.36253  Biso   1.000  C
  C60      1.0000 0.09927  0.61243  0.38232  Biso   1.000  C
  Cl20     1.0000 0.10767  0.48733  0.52437  Biso   1.000  Cl
  O41      1.0000 0.81583  0.03977  0.65976  Biso   1.000  O
  O42      1.0000 0.77853  0.07637  0.71939  Biso   1.000  O
  C61      1.0000 0.73203  0.92737  0.75547  Biso   1.000  C
  H21      1.0000 0.72123  0.96427  0.76937  Biso   1.000  H
  C62      1.0000 0.78763  0.02627  0.69587  Biso   1.000  C
  C63      1.0000 0.76593  0.94577  0.71566  Biso   1.000  C
  Cl21     1.0000 0.77433  0.82067  0.85771  Biso   1.000  Cl
  O43      1.0000 0.62690  0.10940  0.99309  Biso   1.000  O
  O44      1.0000 0.59030  0.03550  0.05272  Biso   1.000  O
  C64      1.0000 0.73930  0.13800  0.08880  Biso   1.000  C
  H22      1.0000 0.70240  0.09030  0.10270  Biso   1.000  H
  C65      1.0000 0.64040  0.09470  0.02920  Biso   1.000  C
  C66      1.0000 0.72090  0.15350  0.04899  Biso   1.000  C
  Cl22     1.0000 0.84600  0.28700  0.19104  Biso   1.000  Cl
  O45      1.0000 0.29357  0.44273  0.32642  Biso   1.000  O
  O46      1.0000 0.25697  0.36883  0.38605  Biso   1.000  O
  C67      1.0000 0.40597  0.47133  0.42213  Biso   1.000  C
  H23      1.0000 0.36907  0.42363  0.43603  Biso   1.000  H
  C68      1.0000 0.30707  0.42803  0.36253  Biso   1.000  C
  C69      1.0000 0.38757  0.48683  0.38232  Biso   1.000  C
  Cl23     1.0000 0.51267  0.62033  0.52437  Biso   1.000  Cl
  O47      1.0000 0.96023  0.77607  0.65976  Biso   1.000  O
  O48      1.0000 0.92363  0.70217  0.71939  Biso   1.000  O
  C70      1.0000 0.07263  0.80467  0.75547  Biso   1.000  C
  H24      1.0000 0.03573  0.75697  0.76937  Biso   1.000  H
  C71      1.0000 0.97373  0.76137  0.69587  Biso   1.000  C
  C72      1.0000 0.05423  0.82017  0.71566  Biso   1.000  C
  Cl24     1.0000 0.17933  0.95367  0.85771  Biso   1.000  Cl
  O49      1.0000 0.89060  0.51750  0.99309  Biso   1.000  O
  O50      1.0000 0.96450  0.55480  0.05272  Biso   1.000  O
  C73      1.0000 0.86200  0.60130  0.08880  Biso   1.000  C
  H25      1.0000 0.90970  0.61210  0.10270  Biso   1.000  H
  C74      1.0000 0.90530  0.54570  0.02920  Biso   1.000  C
  C75      1.0000 0.84650  0.56740  0.04899  Biso   1.000  C
  Cl25     1.0000 0.71300  0.55900  0.19104  Biso   1.000  Cl
  O51      1.0000 0.55727  0.85083  0.32642  Biso   1.000  O
  O52      1.0000 0.63117  0.88813  0.38605  Biso   1.000  O
  C76      1.0000 0.52867  0.93463  0.42213  Biso   1.000  C
  H26      1.0000 0.57637  0.94543  0.43603  Biso   1.000  H
  C77      1.0000 0.57197  0.87903  0.36253  Biso   1.000  C
  C78      1.0000 0.51317  0.90073  0.38232  Biso   1.000  C
  Cl26     1.0000 0.37967  0.89233  0.52437  Biso   1.000  Cl
  O53      1.0000 0.22393  0.18417  0.65976  Biso   1.000  O
  O54      1.0000 0.29783  0.22147  0.71939  Biso   1.000  O
  C79      1.0000 0.19533  0.26797  0.75547  Biso   1.000  C
  H27      1.0000 0.24303  0.27877  0.76937  Biso   1.000  H
  C80      1.0000 0.23863  0.21237  0.69587  Biso   1.000  C
  C81      1.0000 0.17983  0.23407  0.71566  Biso   1.000  C
  Cl27     1.0000 0.04633  0.22567  0.85771  Biso   1.000  Cl
  O55      1.0000 0.37310  0.48250  0.00691  Biso   1.000  O
  O56      1.0000 0.40970  0.44520  0.94728  Biso   1.000  O
  C82      1.0000 0.26070  0.39870  0.91120  Biso   1.000  C
  H28      1.0000 0.29760  0.38790  0.89730  Biso   1.000  H
  C83      1.0000 0.35960  0.45430  0.97080  Biso   1.000  C
  C84      1.0000 0.27910  0.43260  0.95101  Biso   1.000  C
  Cl28     1.0000 0.15400  0.44100  0.80896  Biso   1.000  Cl
  O57      1.0000 0.03977  0.81583  0.34024  Biso   1.000  O
  O58      1.0000 0.07637  0.77853  0.28061  Biso   1.000  O
  C85      1.0000 0.92737  0.73203  0.24453  Biso   1.000  C
  H29      1.0000 0.96427  0.72123  0.23063  Biso   1.000  H
  C86      1.0000 0.02627  0.78763  0.30413  Biso   1.000  C
  C87      1.0000 0.94577  0.76593  0.28434  Biso   1.000  C
  Cl29     1.0000 0.82067  0.77433  0.14229  Biso   1.000  Cl
  O59      1.0000 0.70643  0.14917  0.67358  Biso   1.000  O
  O60      1.0000 0.74303  0.11187  0.61395  Biso   1.000  O
  C88      1.0000 0.59403  0.06537  0.57787  Biso   1.000  C
  H30      1.0000 0.63093  0.05457  0.56397  Biso   1.000  H
  C89      1.0000 0.69293  0.12097  0.63747  Biso   1.000  C
  C90      1.0000 0.61243  0.09927  0.61768  Biso   1.000  C
  Cl30     1.0000 0.48733  0.10767  0.47563  Biso   1.000  Cl
  O61      1.0000 0.10940  0.62690  0.00691  Biso   1.000  O
  O62      1.0000 0.03550  0.59030  0.94728  Biso   1.000  O
  C91      1.0000 0.13800  0.73930  0.91120  Biso   1.000  C
  H31      1.0000 0.09030  0.70240  0.89730  Biso   1.000  H
  C92      1.0000 0.09470  0.64040  0.97080  Biso   1.000  C
  C93      1.0000 0.15350  0.72090  0.95101  Biso   1.000  C
  Cl31     1.0000 0.28700  0.84600  0.80896  Biso   1.000  Cl
  O63      1.0000 0.77607  0.96023  0.34024  Biso   1.000  O
  O64      1.0000 0.70217  0.92363  0.28061  Biso   1.000  O
  C94      1.0000 0.80467  0.07263  0.24453  Biso   1.000  C
  H32      1.0000 0.75697  0.03573  0.23063  Biso   1.000  H
  C95      1.0000 0.76137  0.97373  0.30413  Biso   1.000  C
  C96      1.0000 0.82017  0.05423  0.28434  Biso   1.000  C
  Cl32     1.0000 0.95367  0.17933  0.14229  Biso   1.000  Cl
  O65      1.0000 0.44273  0.29357  0.67358  Biso   1.000  O
  O66      1.0000 0.36883  0.25697  0.61395  Biso   1.000  O
  C97      1.0000 0.47133  0.40597  0.57787  Biso   1.000  C
  H33      1.0000 0.42363  0.36907  0.56397  Biso   1.000  H
  C98      1.0000 0.42803  0.30707  0.63747  Biso   1.000  C
  C99      1.0000 0.48683  0.38757  0.61768  Biso   1.000  C
  Cl33     1.0000 0.62033  0.51267  0.47563  Biso   1.000  Cl
  O67      1.0000 0.51750  0.89060  0.00691  Biso   1.000  O
  O68      1.0000 0.55480  0.96450  0.94728  Biso   1.000  O
  C100     1.0000 0.60130  0.86200  0.91120  Biso   1.000  C
  H34      1.0000 0.61210  0.90970  0.89730  Biso   1.000  H
  C101     1.0000 0.54570  0.90530  0.97080  Biso   1.000  C
  C102     1.0000 0.56740  0.84650  0.95101  Biso   1.000  C
  Cl34     1.0000 0.55900  0.71300  0.80896  Biso   1.000  Cl
  O69      1.0000 0.18417  0.22393  0.34024  Biso   1.000  O
  O70      1.0000 0.22147  0.29783  0.28061  Biso   1.000  O
  C103     1.0000 0.26797  0.19533  0.24453  Biso   1.000  C
  H35      1.0000 0.27877  0.24303  0.23063  Biso   1.000  H
  C104     1.0000 0.21237  0.23863  0.30413  Biso   1.000  C
  C105     1.0000 0.23407  0.17983  0.28434  Biso   1.000  C
  Cl35     1.0000 0.22567  0.04633  0.14229  Biso   1.000  Cl
  O71      1.0000 0.85083  0.55727  0.67358  Biso   1.000  O
  O72      1.0000 0.88813  0.63117  0.61395  Biso   1.000  O
  C106     1.0000 0.93463  0.52867  0.57787  Biso   1.000  C
  H36      1.0000 0.94543  0.57637  0.56397  Biso   1.000  H
  C107     1.0000 0.87903  0.57197  0.63747  Biso   1.000  C
  C108     1.0000 0.90073  0.51317  0.61768  Biso   1.000  C
  Cl36     1.0000 0.89233  0.37967  0.47563  Biso   1.000  Cl
  Cu1      1.0000 0.47815  0.52185  0.03591  Biso   1.000  Cu
  Cu2      1.0000 0.14482  0.85518  0.36924  Biso   1.000  Cu
  Cu3      1.0000 0.81148  0.18852  0.70258  Biso   1.000  Cu
  Cu4      1.0000 0.47815  0.95630  0.03591  Biso   1.000  Cu
  Cu5      1.0000 0.14482  0.28963  0.36924  Biso   1.000  Cu
  Cu6      1.0000 0.81148  0.62297  0.70258  Biso   1.000  Cu
  Cu7      1.0000 0.04370  0.52185  0.03591  Biso   1.000  Cu
  Cu8      1.0000 0.71037  0.85518  0.36924  Biso   1.000  Cu
  Cu9      1.0000 0.37703  0.18852  0.70258  Biso   1.000  Cu
  Cu10     1.0000 0.52185  0.47815  0.96409  Biso   1.000  Cu
  Cu11     1.0000 0.18852  0.81148  0.29742  Biso   1.000  Cu
  Cu12     1.0000 0.85518  0.14482  0.63076  Biso   1.000  Cu
  Cu13     1.0000 0.95630  0.47815  0.96409  Biso   1.000  Cu
  Cu14     1.0000 0.62297  0.81148  0.29742  Biso   1.000  Cu
  Cu15     1.0000 0.28963  0.14482  0.63076  Biso   1.000  Cu
  Cu16     1.0000 0.52185  0.04370  0.96409  Biso   1.000  Cu
  Cu17     1.0000 0.18852  0.37703  0.29742  Biso   1.000  Cu
  Cu18     1.0000 0.85518  0.71037  0.63076  Biso   1.000  Cu
  Pd1      1.0000 0.66667  0.83333  0.83333  Biso   1.000  Pd
  Pd2      1.0000 0.16667  0.83333  0.83333  Biso   1.000  Pd
  Pd3      1.0000 0.16667  0.33333  0.83333  Biso   1.000  Pd
  Pd4      1.0000 0.83333  0.66667  0.16667  Biso   1.000  Pd
  Pd5      1.0000 0.50000  0.00000  0.50000  Biso   1.000  Pd
  Pd6      1.0000 0.83333  0.16667  0.16667  Biso   1.000  Pd
  Pd7      1.0000 0.50000  0.50000  0.50000  Biso   1.000  Pd
  Pd8      1.0000 0.33333  0.16667  0.16667  Biso   1.000  Pd
  Pd9      1.0000 0.00000  0.50000  0.50000  Biso   1.000  Pd
  N1       1.0000 0.61890  0.80945  0.89210  Biso   1.000  N
  C109     1.0000 0.55070  0.77535  0.97110  Biso   1.000  C
  H37      1.0000 0.52830  0.76415  0.99810  Biso   1.000  H
  N2       1.0000 0.28557  0.14278  0.22543  Biso   1.000  N
  C110     1.0000 0.21737  0.10868  0.30443  Biso   1.000  C
  H38      1.0000 0.19497  0.09748  0.33143  Biso   1.000  H
  N3       1.0000 0.95223  0.47612  0.55877  Biso   1.000  N
  C111     1.0000 0.88403  0.44202  0.63777  Biso   1.000  C
  H39      1.0000 0.86163  0.43082  0.66477  Biso   1.000  H
  N4       1.0000 0.19055  0.80945  0.89210  Biso   1.000  N
  C112     1.0000 0.22465  0.77535  0.97110  Biso   1.000  C
  H40      1.0000 0.23585  0.76415  0.99810  Biso   1.000  H
  N5       1.0000 0.85722  0.14278  0.22543  Biso   1.000  N
  C113     1.0000 0.89132  0.10868  0.30443  Biso   1.000  C
  H41      1.0000 0.90252  0.09748  0.33143  Biso   1.000  H
  N6       1.0000 0.52388  0.47612  0.55877  Biso   1.000  N
  C114     1.0000 0.55798  0.44202  0.63777  Biso   1.000  C
  H42      1.0000 0.56918  0.43082  0.66477  Biso   1.000  H
  N7       1.0000 0.19055  0.38110  0.89210  Biso   1.000  N
  C115     1.0000 0.22465  0.44930  0.97110  Biso   1.000  C
  H43      1.0000 0.23585  0.47170  0.99810  Biso   1.000  H
  N8       1.0000 0.85722  0.71443  0.22543  Biso   1.000  N
  C116     1.0000 0.89132  0.78263  0.30443  Biso   1.000  C
  H44      1.0000 0.90252  0.80503  0.33143  Biso   1.000  H
  N9       1.0000 0.52388  0.04777  0.55877  Biso   1.000  N
  C117     1.0000 0.55798  0.11597  0.63777  Biso   1.000  C
  H45      1.0000 0.56918  0.13837  0.66477  Biso   1.000  H
  N10      1.0000 0.80945  0.61890  0.10790  Biso   1.000  N
  C118     1.0000 0.77535  0.55070  0.02890  Biso   1.000  C
  H46      1.0000 0.76415  0.52830  0.00190  Biso   1.000  H
  N11      1.0000 0.47612  0.95223  0.44123  Biso   1.000  N
  C119     1.0000 0.44202  0.88403  0.36223  Biso   1.000  C
  H47      1.0000 0.43082  0.86163  0.33523  Biso   1.000  H
  N12      1.0000 0.14278  0.28557  0.77457  Biso   1.000  N
  C120     1.0000 0.10868  0.21737  0.69557  Biso   1.000  C
  H48      1.0000 0.09748  0.19497  0.66857  Biso   1.000  H
  N13      1.0000 0.80945  0.19055  0.10790  Biso   1.000  N
  C121     1.0000 0.77535  0.22465  0.02890  Biso   1.000  C
  H49      1.0000 0.76415  0.23585  0.00190  Biso   1.000  H
  N14      1.0000 0.47612  0.52388  0.44123  Biso   1.000  N
  C122     1.0000 0.44202  0.55798  0.36223  Biso   1.000  C
  H50      1.0000 0.43082  0.56918  0.33523  Biso   1.000  H
  N15      1.0000 0.14278  0.85722  0.77457  Biso   1.000  N
  C123     1.0000 0.10868  0.89132  0.69557  Biso   1.000  C
  H51      1.0000 0.09748  0.90252  0.66857  Biso   1.000  H
  N16      1.0000 0.38110  0.19055  0.10790  Biso   1.000  N
  C124     1.0000 0.44930  0.22465  0.02890  Biso   1.000  C
  H52      1.0000 0.47170  0.23585  0.00190  Biso   1.000  H
  N17      1.0000 0.04777  0.52388  0.44123  Biso   1.000  N
  C125     1.0000 0.11597  0.55798  0.36223  Biso   1.000  C
  H53      1.0000 0.13837  0.56918  0.33523  Biso   1.000  H
  N18      1.0000 0.71443  0.85722  0.77457  Biso   1.000  N
  C126     1.0000 0.78263  0.89132  0.69557  Biso   1.000  C
  H54      1.0000 0.80503  0.90252  0.66857  Biso   1.000  H
