data_image0
_cell_length_a       32.04
_cell_length_b       16.79
_cell_length_c       10.77
_cell_angle_alpha    90
_cell_angle_beta     92.36
_cell_angle_gamma    90

_symmetry_space_group_name_H-M    "P 1"
_symmetry_int_tables_number       1

loop_
  _symmetry_equiv_pos_as_xyz
  'x, y, z'

loop_
  _atom_site_label
  _atom_site_occupancy
  _atom_site_fract_x
  _atom_site_fract_y
  _atom_site_fract_z
  _atom_site_thermal_displace_type
  _atom_site_B_iso_or_equiv
  _atom_site_type_symbol
  Cu1      1.0000 0.94456  0.44593  0.03240  Biso   1.000  Cu
  N1       1.0000 0.92280  0.44570  0.19760  Biso   1.000  N
  N2       1.0000 0.94450  0.48550  0.28510  Biso   1.000  N
  N3       1.0000 0.92340  0.49500  0.38780  Biso   1.000  N
  N4       1.0000 0.78040  0.34310  0.21500  Biso   1.000  N
  N5       1.0000 0.77950  0.41110  0.45560  Biso   1.000  N
  N6       1.0000 0.64440  0.31310  0.51120  Biso   1.000  N
  N7       1.0000 0.64480  0.23710  0.27940  Biso   1.000  N
  N8       1.0000 0.51640  0.16480  0.58550  Biso   1.000  N
  N9       1.0000 0.49610  0.11580  0.50270  Biso   1.000  N
  N10      1.0000 0.51530  0.10850  0.39680  Biso   1.000  N
  C1       1.0000 0.88470  0.42630  0.24450  Biso   1.000  C
  C2       1.0000 0.88480  0.45900  0.36820  Biso   1.000  C
  C3       1.0000 0.85070  0.45260  0.44170  Biso   1.000  C
  H1       1.0000 0.85130  0.47300  0.52400  Biso   1.000  H
  C4       1.0000 0.81510  0.41450  0.38890  Biso   1.000  C
  C5       1.0000 0.81580  0.38040  0.26590  Biso   1.000  C
  C6       1.0000 0.84970  0.38670  0.18980  Biso   1.000  C
  H2       1.0000 0.84930  0.36610  0.10770  Biso   1.000  H
  C7       1.0000 0.74740  0.34030  0.28150  Biso   1.000  C
  C8       1.0000 0.74540  0.38030  0.39930  Biso   1.000  C
  C9       1.0000 0.70660  0.38420  0.47660  Biso   1.000  C
  C10      1.0000 0.67340  0.32420  0.43170  Biso   1.000  C
  C11      1.0000 0.67350  0.28820  0.31520  Biso   1.000  C
  C12      1.0000 0.70770  0.30310  0.22250  Biso   1.000  C
  C13      1.0000 0.69030  0.35060  0.11180  Biso   1.000  C
  H3       1.0000 0.67980  0.40190  0.14040  Biso   1.000  H
  H4       1.0000 0.66750  0.32080  0.07000  Biso   1.000  H
  H5       1.0000 0.71260  0.35970  0.05350  Biso   1.000  H
  C14      1.0000 0.71900  0.22170  0.16270  Biso   1.000  C
  H6       1.0000 0.69510  0.20220  0.11200  Biso   1.000  H
  H7       1.0000 0.72610  0.18310  0.22840  Biso   1.000  H
  H8       1.0000 0.74300  0.22890  0.11020  Biso   1.000  H
  C15      1.0000 0.61340  0.22050  0.36030  Biso   1.000  C
  C16      1.0000 0.61330  0.25970  0.47950  Biso   1.000  C
  C17      1.0000 0.58160  0.24430  0.56200  Biso   1.000  C
  H9       1.0000 0.58170  0.26880  0.64140  Biso   1.000  H
  C18      1.0000 0.55070  0.19280  0.52460  Biso   1.000  C
  C19      1.0000 0.55030  0.15570  0.40880  Biso   1.000  C
  C20      1.0000 0.58140  0.16930  0.32130  Biso   1.000  C
  H10      1.0000 0.58040  0.14510  0.24150  Biso   1.000  H
  C21      1.0000 0.71100  0.39600  0.60050  Biso   1.000  C
  H11      1.0000 0.72150  0.45000  0.61670  Biso   1.000  H
  H12      1.0000 0.73090  0.35710  0.63650  Biso   1.000  H
  H13      1.0000 0.68390  0.38940  0.63810  Biso   1.000  H
  Cu2      1.0000 0.44456  0.94593  0.03240  Biso   1.000  Cu
  N11      1.0000 0.42280  0.94570  0.19760  Biso   1.000  N
  N12      1.0000 0.44450  0.98550  0.28510  Biso   1.000  N
  N13      1.0000 0.42340  0.99500  0.38780  Biso   1.000  N
  N14      1.0000 0.28040  0.84310  0.21500  Biso   1.000  N
  N15      1.0000 0.27950  0.91110  0.45560  Biso   1.000  N
  N16      1.0000 0.14440  0.81310  0.51120  Biso   1.000  N
  N17      1.0000 0.14480  0.73710  0.27940  Biso   1.000  N
  N18      1.0000 0.01640  0.66480  0.58550  Biso   1.000  N
  N19      1.0000 0.99610  0.61580  0.50270  Biso   1.000  N
  N20      1.0000 0.01530  0.60850  0.39680  Biso   1.000  N
  C22      1.0000 0.38470  0.92630  0.24450  Biso   1.000  C
  C23      1.0000 0.38480  0.95900  0.36820  Biso   1.000  C
  C24      1.0000 0.35070  0.95260  0.44170  Biso   1.000  C
  H14      1.0000 0.35130  0.97300  0.52400  Biso   1.000  H
  C25      1.0000 0.31510  0.91450  0.38890  Biso   1.000  C
  C26      1.0000 0.31580  0.88040  0.26590  Biso   1.000  C
  C27      1.0000 0.34970  0.88670  0.18980  Biso   1.000  C
  H15      1.0000 0.34930  0.86610  0.10770  Biso   1.000  H
  C28      1.0000 0.24740  0.84030  0.28150  Biso   1.000  C
  C29      1.0000 0.24540  0.88030  0.39930  Biso   1.000  C
  C30      1.0000 0.20660  0.88420  0.47660  Biso   1.000  C
  C31      1.0000 0.17340  0.82420  0.43170  Biso   1.000  C
  C32      1.0000 0.17350  0.78820  0.31520  Biso   1.000  C
  C33      1.0000 0.20770  0.80310  0.22250  Biso   1.000  C
  C34      1.0000 0.19030  0.85060  0.11180  Biso   1.000  C
  H16      1.0000 0.17980  0.90190  0.14040  Biso   1.000  H
  H17      1.0000 0.16750  0.82080  0.07000  Biso   1.000  H
  H18      1.0000 0.21260  0.85970  0.05350  Biso   1.000  H
  C35      1.0000 0.21900  0.72170  0.16270  Biso   1.000  C
  H19      1.0000 0.19510  0.70220  0.11200  Biso   1.000  H
  H20      1.0000 0.22610  0.68310  0.22840  Biso   1.000  H
  H21      1.0000 0.24300  0.72890  0.11020  Biso   1.000  H
  C36      1.0000 0.11340  0.72050  0.36030  Biso   1.000  C
  C37      1.0000 0.11330  0.75970  0.47950  Biso   1.000  C
  C38      1.0000 0.08160  0.74430  0.56200  Biso   1.000  C
  H22      1.0000 0.08170  0.76880  0.64140  Biso   1.000  H
  C39      1.0000 0.05070  0.69280  0.52460  Biso   1.000  C
  C40      1.0000 0.05030  0.65570  0.40880  Biso   1.000  C
  C41      1.0000 0.08140  0.66930  0.32130  Biso   1.000  C
  H23      1.0000 0.08040  0.64510  0.24150  Biso   1.000  H
  C42      1.0000 0.21100  0.89600  0.60050  Biso   1.000  C
  H24      1.0000 0.22150  0.95000  0.61670  Biso   1.000  H
  H25      1.0000 0.23090  0.85710  0.63650  Biso   1.000  H
  H26      1.0000 0.18390  0.88940  0.63810  Biso   1.000  H
  Cu3      1.0000 0.05544  0.44593  0.46760  Biso   1.000  Cu
  N21      1.0000 0.07720  0.44570  0.30240  Biso   1.000  N
  N22      1.0000 0.05550  0.48550  0.21490  Biso   1.000  N
  N23      1.0000 0.07660  0.49500  0.11220  Biso   1.000  N
  N24      1.0000 0.21960  0.34310  0.28500  Biso   1.000  N
  N25      1.0000 0.22050  0.41110  0.04440  Biso   1.000  N
  N26      1.0000 0.35560  0.31310  0.98880  Biso   1.000  N
  N27      1.0000 0.35520  0.23710  0.22060  Biso   1.000  N
  N28      1.0000 0.48360  0.16480  0.91450  Biso   1.000  N
  N29      1.0000 0.50390  0.11580  0.99730  Biso   1.000  N
  N30      1.0000 0.48470  0.10850  0.10320  Biso   1.000  N
  C43      1.0000 0.11530  0.42630  0.25550  Biso   1.000  C
  C44      1.0000 0.11520  0.45900  0.13180  Biso   1.000  C
  C45      1.0000 0.14930  0.45260  0.05830  Biso   1.000  C
  H27      1.0000 0.14870  0.47300  0.97600  Biso   1.000  H
  C46      1.0000 0.18490  0.41450  0.11110  Biso   1.000  C
  C47      1.0000 0.18420  0.38040  0.23410  Biso   1.000  C
  C48      1.0000 0.15030  0.38670  0.31020  Biso   1.000  C
  H28      1.0000 0.15070  0.36610  0.39230  Biso   1.000  H
  C49      1.0000 0.25260  0.34030  0.21850  Biso   1.000  C
  C50      1.0000 0.25460  0.38030  0.10070  Biso   1.000  C
  C51      1.0000 0.29340  0.38420  0.02340  Biso   1.000  C
  C52      1.0000 0.32660  0.32420  0.06830  Biso   1.000  C
  C53      1.0000 0.32650  0.28820  0.18480  Biso   1.000  C
  C54      1.0000 0.29230  0.30310  0.27750  Biso   1.000  C
  C55      1.0000 0.30970  0.35060  0.38820  Biso   1.000  C
  H29      1.0000 0.32020  0.40190  0.35960  Biso   1.000  H
  H30      1.0000 0.33250  0.32080  0.43000  Biso   1.000  H
  H31      1.0000 0.28740  0.35970  0.44650  Biso   1.000  H
  C56      1.0000 0.28100  0.22170  0.33730  Biso   1.000  C
  H32      1.0000 0.30490  0.20220  0.38800  Biso   1.000  H
  H33      1.0000 0.27390  0.18310  0.27160  Biso   1.000  H
  H34      1.0000 0.25700  0.22890  0.38980  Biso   1.000  H
  C57      1.0000 0.38660  0.22050  0.13970  Biso   1.000  C
  C58      1.0000 0.38670  0.25970  0.02050  Biso   1.000  C
  C59      1.0000 0.41840  0.24430  0.93800  Biso   1.000  C
  H35      1.0000 0.41830  0.26880  0.85860  Biso   1.000  H
  C60      1.0000 0.44930  0.19280  0.97540  Biso   1.000  C
  C61      1.0000 0.44970  0.15570  0.09120  Biso   1.000  C
  C62      1.0000 0.41860  0.16930  0.17870  Biso   1.000  C
  H36      1.0000 0.41960  0.14510  0.25850  Biso   1.000  H
  C63      1.0000 0.28900  0.39600  0.89950  Biso   1.000  C
  H37      1.0000 0.27850  0.45000  0.88330  Biso   1.000  H
  H38      1.0000 0.26910  0.35710  0.86350  Biso   1.000  H
  H39      1.0000 0.31610  0.38940  0.86190  Biso   1.000  H
  Cu4      1.0000 0.55544  0.94593  0.46760  Biso   1.000  Cu
  N31      1.0000 0.57720  0.94570  0.30240  Biso   1.000  N
  N32      1.0000 0.55550  0.98550  0.21490  Biso   1.000  N
  N33      1.0000 0.57660  0.99500  0.11220  Biso   1.000  N
  N34      1.0000 0.71960  0.84310  0.28500  Biso   1.000  N
  N35      1.0000 0.72050  0.91110  0.04440  Biso   1.000  N
  N36      1.0000 0.85560  0.81310  0.98880  Biso   1.000  N
  N37      1.0000 0.85520  0.73710  0.22060  Biso   1.000  N
  N38      1.0000 0.98360  0.66480  0.91450  Biso   1.000  N
  N39      1.0000 0.00390  0.61580  0.99730  Biso   1.000  N
  N40      1.0000 0.98470  0.60850  0.10320  Biso   1.000  N
  C64      1.0000 0.61530  0.92630  0.25550  Biso   1.000  C
  C65      1.0000 0.61520  0.95900  0.13180  Biso   1.000  C
  C66      1.0000 0.64930  0.95260  0.05830  Biso   1.000  C
  H40      1.0000 0.64870  0.97300  0.97600  Biso   1.000  H
  C67      1.0000 0.68490  0.91450  0.11110  Biso   1.000  C
  C68      1.0000 0.68420  0.88040  0.23410  Biso   1.000  C
  C69      1.0000 0.65030  0.88670  0.31020  Biso   1.000  C
  H41      1.0000 0.65070  0.86610  0.39230  Biso   1.000  H
  C70      1.0000 0.75260  0.84030  0.21850  Biso   1.000  C
  C71      1.0000 0.75460  0.88030  0.10070  Biso   1.000  C
  C72      1.0000 0.79340  0.88420  0.02340  Biso   1.000  C
  C73      1.0000 0.82660  0.82420  0.06830  Biso   1.000  C
  C74      1.0000 0.82650  0.78820  0.18480  Biso   1.000  C
  C75      1.0000 0.79230  0.80310  0.27750  Biso   1.000  C
  C76      1.0000 0.80970  0.85060  0.38820  Biso   1.000  C
  H42      1.0000 0.82020  0.90190  0.35960  Biso   1.000  H
  H43      1.0000 0.83250  0.82080  0.43000  Biso   1.000  H
  H44      1.0000 0.78740  0.85970  0.44650  Biso   1.000  H
  C77      1.0000 0.78100  0.72170  0.33730  Biso   1.000  C
  H45      1.0000 0.80490  0.70220  0.38800  Biso   1.000  H
  H46      1.0000 0.77390  0.68310  0.27160  Biso   1.000  H
  H47      1.0000 0.75700  0.72890  0.38980  Biso   1.000  H
  C78      1.0000 0.88660  0.72050  0.13970  Biso   1.000  C
  C79      1.0000 0.88670  0.75970  0.02050  Biso   1.000  C
  C80      1.0000 0.91840  0.74430  0.93800  Biso   1.000  C
  H48      1.0000 0.91830  0.76880  0.85860  Biso   1.000  H
  C81      1.0000 0.94930  0.69280  0.97540  Biso   1.000  C
  C82      1.0000 0.94970  0.65570  0.09120  Biso   1.000  C
  C83      1.0000 0.91860  0.66930  0.17870  Biso   1.000  C
  H49      1.0000 0.91960  0.64510  0.25850  Biso   1.000  H
  C84      1.0000 0.78900  0.89600  0.89950  Biso   1.000  C
  H50      1.0000 0.77850  0.95000  0.88330  Biso   1.000  H
  H51      1.0000 0.76910  0.85710  0.86350  Biso   1.000  H
  H52      1.0000 0.81610  0.88940  0.86190  Biso   1.000  H
  Cu5      1.0000 0.05544  0.55407  0.96760  Biso   1.000  Cu
  N41      1.0000 0.07720  0.55430  0.80240  Biso   1.000  N
  N42      1.0000 0.05550  0.51450  0.71490  Biso   1.000  N
  N43      1.0000 0.07660  0.50500  0.61220  Biso   1.000  N
  N44      1.0000 0.21960  0.65690  0.78500  Biso   1.000  N
  N45      1.0000 0.22050  0.58890  0.54440  Biso   1.000  N
  N46      1.0000 0.35560  0.68690  0.48880  Biso   1.000  N
  N47      1.0000 0.35520  0.76290  0.72060  Biso   1.000  N
  N48      1.0000 0.48360  0.83520  0.41450  Biso   1.000  N
  N49      1.0000 0.50390  0.88420  0.49730  Biso   1.000  N
  N50      1.0000 0.48470  0.89150  0.60320  Biso   1.000  N
  C85      1.0000 0.11530  0.57370  0.75550  Biso   1.000  C
  C86      1.0000 0.11520  0.54100  0.63180  Biso   1.000  C
  C87      1.0000 0.14930  0.54740  0.55830  Biso   1.000  C
  H53      1.0000 0.14870  0.52700  0.47600  Biso   1.000  H
  C88      1.0000 0.18490  0.58550  0.61110  Biso   1.000  C
  C89      1.0000 0.18420  0.61960  0.73410  Biso   1.000  C
  C90      1.0000 0.15030  0.61330  0.81020  Biso   1.000  C
  H54      1.0000 0.15070  0.63390  0.89230  Biso   1.000  H
  C91      1.0000 0.25260  0.65970  0.71850  Biso   1.000  C
  C92      1.0000 0.25460  0.61970  0.60070  Biso   1.000  C
  C93      1.0000 0.29340  0.61580  0.52340  Biso   1.000  C
  C94      1.0000 0.32660  0.67580  0.56830  Biso   1.000  C
  C95      1.0000 0.32650  0.71180  0.68480  Biso   1.000  C
  C96      1.0000 0.29230  0.69690  0.77750  Biso   1.000  C
  C97      1.0000 0.30970  0.64940  0.88820  Biso   1.000  C
  H55      1.0000 0.32020  0.59810  0.85960  Biso   1.000  H
  H56      1.0000 0.33250  0.67920  0.93000  Biso   1.000  H
  H57      1.0000 0.28740  0.64030  0.94650  Biso   1.000  H
  C98      1.0000 0.28100  0.77830  0.83730  Biso   1.000  C
  H58      1.0000 0.30490  0.79780  0.88800  Biso   1.000  H
  H59      1.0000 0.27390  0.81690  0.77160  Biso   1.000  H
  H60      1.0000 0.25700  0.77110  0.88980  Biso   1.000  H
  C99      1.0000 0.38660  0.77950  0.63970  Biso   1.000  C
  C100     1.0000 0.38670  0.74030  0.52050  Biso   1.000  C
  C101     1.0000 0.41840  0.75570  0.43800  Biso   1.000  C
  H61      1.0000 0.41830  0.73120  0.35860  Biso   1.000  H
  C102     1.0000 0.44930  0.80720  0.47540  Biso   1.000  C
  C103     1.0000 0.44970  0.84430  0.59120  Biso   1.000  C
  C104     1.0000 0.41860  0.83070  0.67870  Biso   1.000  C
  H62      1.0000 0.41960  0.85490  0.75850  Biso   1.000  H
  C105     1.0000 0.28900  0.60400  0.39950  Biso   1.000  C
  H63      1.0000 0.27850  0.55000  0.38330  Biso   1.000  H
  H64      1.0000 0.26910  0.64290  0.36350  Biso   1.000  H
  H65      1.0000 0.31610  0.61060  0.36190  Biso   1.000  H
  Cu6      1.0000 0.55544  0.05407  0.96760  Biso   1.000  Cu
  N51      1.0000 0.57720  0.05430  0.80240  Biso   1.000  N
  N52      1.0000 0.55550  0.01450  0.71490  Biso   1.000  N
  N53      1.0000 0.57660  0.00500  0.61220  Biso   1.000  N
  N54      1.0000 0.71960  0.15690  0.78500  Biso   1.000  N
  N55      1.0000 0.72050  0.08890  0.54440  Biso   1.000  N
  N56      1.0000 0.85560  0.18690  0.48880  Biso   1.000  N
  N57      1.0000 0.85520  0.26290  0.72060  Biso   1.000  N
  N58      1.0000 0.98360  0.33520  0.41450  Biso   1.000  N
  N59      1.0000 0.00390  0.38420  0.49730  Biso   1.000  N
  N60      1.0000 0.98470  0.39150  0.60320  Biso   1.000  N
  C106     1.0000 0.61530  0.07370  0.75550  Biso   1.000  C
  C107     1.0000 0.61520  0.04100  0.63180  Biso   1.000  C
  C108     1.0000 0.64930  0.04740  0.55830  Biso   1.000  C
  H66      1.0000 0.64870  0.02700  0.47600  Biso   1.000  H
  C109     1.0000 0.68490  0.08550  0.61110  Biso   1.000  C
  C110     1.0000 0.68420  0.11960  0.73410  Biso   1.000  C
  C111     1.0000 0.65030  0.11330  0.81020  Biso   1.000  C
  H67      1.0000 0.65070  0.13390  0.89230  Biso   1.000  H
  C112     1.0000 0.75260  0.15970  0.71850  Biso   1.000  C
  C113     1.0000 0.75460  0.11970  0.60070  Biso   1.000  C
  C114     1.0000 0.79340  0.11580  0.52340  Biso   1.000  C
  C115     1.0000 0.82660  0.17580  0.56830  Biso   1.000  C
  C116     1.0000 0.82650  0.21180  0.68480  Biso   1.000  C
  C117     1.0000 0.79230  0.19690  0.77750  Biso   1.000  C
  C118     1.0000 0.80970  0.14940  0.88820  Biso   1.000  C
  H68      1.0000 0.82020  0.09810  0.85960  Biso   1.000  H
  H69      1.0000 0.83250  0.17920  0.93000  Biso   1.000  H
  H70      1.0000 0.78740  0.14030  0.94650  Biso   1.000  H
  C119     1.0000 0.78100  0.27830  0.83730  Biso   1.000  C
  H71      1.0000 0.80490  0.29780  0.88800  Biso   1.000  H
  H72      1.0000 0.77390  0.31690  0.77160  Biso   1.000  H
  H73      1.0000 0.75700  0.27110  0.88980  Biso   1.000  H
  C120     1.0000 0.88660  0.27950  0.63970  Biso   1.000  C
  C121     1.0000 0.88670  0.24030  0.52050  Biso   1.000  C
  C122     1.0000 0.91840  0.25570  0.43800  Biso   1.000  C
  H74      1.0000 0.91830  0.23120  0.35860  Biso   1.000  H
  C123     1.0000 0.94930  0.30720  0.47540  Biso   1.000  C
  C124     1.0000 0.94970  0.34430  0.59120  Biso   1.000  C
  C125     1.0000 0.91860  0.33070  0.67870  Biso   1.000  C
  H75      1.0000 0.91960  0.35490  0.75850  Biso   1.000  H
  C126     1.0000 0.78900  0.10400  0.39950  Biso   1.000  C
  H76      1.0000 0.77850  0.05000  0.38330  Biso   1.000  H
  H77      1.0000 0.76910  0.14290  0.36350  Biso   1.000  H
  H78      1.0000 0.81610  0.11060  0.36190  Biso   1.000  H
  Cu7      1.0000 0.94456  0.55407  0.53240  Biso   1.000  Cu
  N61      1.0000 0.92280  0.55430  0.69760  Biso   1.000  N
  N62      1.0000 0.94450  0.51450  0.78510  Biso   1.000  N
  N63      1.0000 0.92340  0.50500  0.88780  Biso   1.000  N
  N64      1.0000 0.78040  0.65690  0.71500  Biso   1.000  N
  N65      1.0000 0.77950  0.58890  0.95560  Biso   1.000  N
  N66      1.0000 0.64440  0.68690  0.01120  Biso   1.000  N
  N67      1.0000 0.64480  0.76290  0.77940  Biso   1.000  N
  N68      1.0000 0.51640  0.83520  0.08550  Biso   1.000  N
  N69      1.0000 0.49610  0.88420  0.00270  Biso   1.000  N
  N70      1.0000 0.51530  0.89150  0.89680  Biso   1.000  N
  C127     1.0000 0.88470  0.57370  0.74450  Biso   1.000  C
  C128     1.0000 0.88480  0.54100  0.86820  Biso   1.000  C
  C129     1.0000 0.85070  0.54740  0.94170  Biso   1.000  C
  H79      1.0000 0.85130  0.52700  0.02400  Biso   1.000  H
  C130     1.0000 0.81510  0.58550  0.88890  Biso   1.000  C
  C131     1.0000 0.81580  0.61960  0.76590  Biso   1.000  C
  C132     1.0000 0.84970  0.61330  0.68980  Biso   1.000  C
  H80      1.0000 0.84930  0.63390  0.60770  Biso   1.000  H
  C133     1.0000 0.74740  0.65970  0.78150  Biso   1.000  C
  C134     1.0000 0.74540  0.61970  0.89930  Biso   1.000  C
  C135     1.0000 0.70660  0.61580  0.97660  Biso   1.000  C
  C136     1.0000 0.67340  0.67580  0.93170  Biso   1.000  C
  C137     1.0000 0.67350  0.71180  0.81520  Biso   1.000  C
  C138     1.0000 0.70770  0.69690  0.72250  Biso   1.000  C
  C139     1.0000 0.69030  0.64940  0.61180  Biso   1.000  C
  H81      1.0000 0.67980  0.59810  0.64040  Biso   1.000  H
  H82      1.0000 0.66750  0.67920  0.57000  Biso   1.000  H
  H83      1.0000 0.71260  0.64030  0.55350  Biso   1.000  H
  C140     1.0000 0.71900  0.77830  0.66270  Biso   1.000  C
  H84      1.0000 0.69510  0.79780  0.61200  Biso   1.000  H
  H85      1.0000 0.72610  0.81690  0.72840  Biso   1.000  H
  H86      1.0000 0.74300  0.77110  0.61020  Biso   1.000  H
  C141     1.0000 0.61340  0.77950  0.86030  Biso   1.000  C
  C142     1.0000 0.61330  0.74030  0.97950  Biso   1.000  C
  C143     1.0000 0.58160  0.75570  0.06200  Biso   1.000  C
  H87      1.0000 0.58170  0.73120  0.14140  Biso   1.000  H
  C144     1.0000 0.55070  0.80720  0.02460  Biso   1.000  C
  C145     1.0000 0.55030  0.84430  0.90880  Biso   1.000  C
  C146     1.0000 0.58140  0.83070  0.82130  Biso   1.000  C
  H88      1.0000 0.58040  0.85490  0.74150  Biso   1.000  H
  C147     1.0000 0.71100  0.60400  0.10050  Biso   1.000  C
  H89      1.0000 0.72150  0.55000  0.11670  Biso   1.000  H
  H90      1.0000 0.73090  0.64290  0.13650  Biso   1.000  H
  H91      1.0000 0.68390  0.61060  0.13810  Biso   1.000  H
  Cu8      1.0000 0.44456  0.05407  0.53240  Biso   1.000  Cu
  N71      1.0000 0.42280  0.05430  0.69760  Biso   1.000  N
  N72      1.0000 0.44450  0.01450  0.78510  Biso   1.000  N
  N73      1.0000 0.42340  0.00500  0.88780  Biso   1.000  N
  N74      1.0000 0.28040  0.15690  0.71500  Biso   1.000  N
  N75      1.0000 0.27950  0.08890  0.95560  Biso   1.000  N
  N76      1.0000 0.14440  0.18690  0.01120  Biso   1.000  N
  N77      1.0000 0.14480  0.26290  0.77940  Biso   1.000  N
  N78      1.0000 0.01640  0.33520  0.08550  Biso   1.000  N
  N79      1.0000 0.99610  0.38420  0.00270  Biso   1.000  N
  N80      1.0000 0.01530  0.39150  0.89680  Biso   1.000  N
  C148     1.0000 0.38470  0.07370  0.74450  Biso   1.000  C
  C149     1.0000 0.38480  0.04100  0.86820  Biso   1.000  C
  C150     1.0000 0.35070  0.04740  0.94170  Biso   1.000  C
  H92      1.0000 0.35130  0.02700  0.02400  Biso   1.000  H
  C151     1.0000 0.31510  0.08550  0.88890  Biso   1.000  C
  C152     1.0000 0.31580  0.11960  0.76590  Biso   1.000  C
  C153     1.0000 0.34970  0.11330  0.68980  Biso   1.000  C
  H93      1.0000 0.34930  0.13390  0.60770  Biso   1.000  H
  C154     1.0000 0.24740  0.15970  0.78150  Biso   1.000  C
  C155     1.0000 0.24540  0.11970  0.89930  Biso   1.000  C
  C156     1.0000 0.20660  0.11580  0.97660  Biso   1.000  C
  C157     1.0000 0.17340  0.17580  0.93170  Biso   1.000  C
  C158     1.0000 0.17350  0.21180  0.81520  Biso   1.000  C
  C159     1.0000 0.20770  0.19690  0.72250  Biso   1.000  C
  C160     1.0000 0.19030  0.14940  0.61180  Biso   1.000  C
  H94      1.0000 0.17980  0.09810  0.64040  Biso   1.000  H
  H95      1.0000 0.16750  0.17920  0.57000  Biso   1.000  H
  H96      1.0000 0.21260  0.14030  0.55350  Biso   1.000  H
  C161     1.0000 0.21900  0.27830  0.66270  Biso   1.000  C
  H97      1.0000 0.19510  0.29780  0.61200  Biso   1.000  H
  H98      1.0000 0.22610  0.31690  0.72840  Biso   1.000  H
  H99      1.0000 0.24300  0.27110  0.61020  Biso   1.000  H
  C162     1.0000 0.11340  0.27950  0.86030  Biso   1.000  C
  C163     1.0000 0.11330  0.24030  0.97950  Biso   1.000  C
  C164     1.0000 0.08160  0.25570  0.06200  Biso   1.000  C
  H100     1.0000 0.08170  0.23120  0.14140  Biso   1.000  H
  C165     1.0000 0.05070  0.30720  0.02460  Biso   1.000  C
  C166     1.0000 0.05030  0.34430  0.90880  Biso   1.000  C
  C167     1.0000 0.08140  0.33070  0.82130  Biso   1.000  C
  H101     1.0000 0.08040  0.35490  0.74150  Biso   1.000  H
  C168     1.0000 0.21100  0.10400  0.10050  Biso   1.000  C
  H102     1.0000 0.22150  0.05000  0.11670  Biso   1.000  H
  H103     1.0000 0.23090  0.14290  0.13650  Biso   1.000  H
  H104     1.0000 0.18390  0.11060  0.13810  Biso   1.000  H
  Cu9      1.0000 0.00000  0.53346  0.25000  Biso   1.000  Cu
  Cu10     1.0000 0.50000  0.03346  0.25000  Biso   1.000  Cu
  Cu11     1.0000 0.00000  0.46654  0.75000  Biso   1.000  Cu
  Cu12     1.0000 0.50000  0.96654  0.75000  Biso   1.000  Cu
  Cu13     1.0000 0.50000  0.17481  0.75000  Biso   1.000  Cu
  Cu14     1.0000 0.00000  0.67481  0.75000  Biso   1.000  Cu
  Cu15     1.0000 0.50000  0.82519  0.25000  Biso   1.000  Cu
  Cu16     1.0000 0.00000  0.32519  0.25000  Biso   1.000  Cu
