data_image0
_cell_length_a       10.463
_cell_length_b       11.846
_cell_length_c       12.511
_cell_angle_alpha    89.2
_cell_angle_beta     75.08
_cell_angle_gamma    73.36

_symmetry_space_group_name_H-M    "P 1"
_symmetry_int_tables_number       1

loop_
  _symmetry_equiv_pos_as_xyz
  'x, y, z'

loop_
  _atom_site_label
  _atom_site_occupancy
  _atom_site_fract_x
  _atom_site_fract_y
  _atom_site_fract_z
  _atom_site_thermal_displace_type
  _atom_site_B_iso_or_equiv
  _atom_site_type_symbol
  C1       1.0000 0.03190  0.84820  0.09310  Biso   1.000  C
  H1       1.0000 0.12170  0.81850  0.09990  Biso   1.000  H
  C2       1.0000 0.84010  0.86560  0.05570  Biso   1.000  C
  H2       1.0000 0.77090  0.84930  0.03010  Biso   1.000  H
  C3       1.0000 0.82870  0.96570  0.10770  Biso   1.000  C
  H3       1.0000 0.75070  0.03110  0.12520  Biso   1.000  H
  C4       1.0000 0.98200  0.04330  0.19260  Biso   1.000  C
  H4       1.0000 0.95980  0.11870  0.15980  Biso   1.000  H
  H5       1.0000 0.08070  0.01870  0.18600  Biso   1.000  H
  C5       1.0000 0.90470  0.05860  0.31380  Biso   1.000  C
  C6       1.0000 0.81950  0.16680  0.36030  Biso   1.000  C
  H6       1.0000 0.80830  0.23090  0.31620  Biso   1.000  H
  C7       1.0000 0.75060  0.18230  0.47030  Biso   1.000  C
  H7       1.0000 0.69710  0.25740  0.50060  Biso   1.000  H
  C8       1.0000 0.75900  0.08810  0.53700  Biso   1.000  C
  C9       1.0000 0.84200  0.97820  0.49010  Biso   1.000  C
  H8       1.0000 0.84930  0.91370  0.53380  Biso   1.000  H
  C10      1.0000 0.91430  0.96230  0.38000  Biso   1.000  C
  H9       1.0000 0.96950  0.88750  0.34970  Biso   1.000  H
  C11      1.0000 0.46160  0.27070  0.71190  Biso   1.000  C
  H10      1.0000 0.49900  0.32360  0.73810  Biso   1.000  H
  C12      1.0000 0.32180  0.19410  0.66460  Biso   1.000  C
  H11      1.0000 0.24150  0.18370  0.65300  Biso   1.000  H
  C13      1.0000 0.44430  0.11290  0.64080  Biso   1.000  C
  H12      1.0000 0.46570  0.03740  0.60820  Biso   1.000  H
  C14      1.0000 0.68120  0.10790  0.65780  Biso   1.000  C
  H13      1.0000 0.69610  0.03290  0.69190  Biso   1.000  H
  H14      1.0000 0.71720  0.15860  0.69470  Biso   1.000  H
  C15      1.0000 0.09210  0.59260  0.22600  Biso   1.000  C
  C16      1.0000 0.17400  0.56140  0.31060  Biso   1.000  C
  C17      1.0000 0.10540  0.59540  0.42150  Biso   1.000  C
  H15      1.0000 0.01590  0.64660  0.44200  Biso   1.000  H
  C18      1.0000 0.17670  0.54950  0.50130  Biso   1.000  C
  C19      1.0000 0.31040  0.47190  0.47110  Biso   1.000  C
  H16      1.0000 0.35640  0.44350  0.52490  Biso   1.000  H
  C20      1.0000 0.37430  0.43750  0.35970  Biso   1.000  C
  C21      1.0000 0.30930  0.48620  0.27880  Biso   1.000  C
  H17      1.0000 0.35550  0.46890  0.20410  Biso   1.000  H
  C22      1.0000 0.98280  0.65520  0.64870  Biso   1.000  C
  H18      1.0000 0.91840  0.62380  0.62410  Biso   1.000  H
  H19      1.0000 0.98170  0.72990  0.61560  Biso   1.000  H
  C23      1.0000 0.93780  0.67520  0.77340  Biso   1.000  C
  C24      1.0000 0.57680  0.31750  0.22790  Biso   1.000  C
  H20      1.0000 0.51410  0.32790  0.18100  Biso   1.000  H
  H21      1.0000 0.62580  0.23400  0.22380  Biso   1.000  H
  C25      1.0000 0.68110  0.38500  0.18290  Biso   1.000  C
  Co1      1.0000 0.05570  0.61135  0.99280  Biso   1.000  Co
  Co2      1.0000 0.17306  0.44786  0.77354  Biso   1.000  Co
  N1       1.0000 0.97090  0.78890  0.04510  Biso   1.000  N
  N2       1.0000 0.94890  0.95650  0.13090  Biso   1.000  N
  N3       1.0000 0.53310  0.16190  0.67370  Biso   1.000  N
  N4       1.0000 0.33190  0.29670  0.70920  Biso   1.000  N
  O1       1.0000 0.12650  0.43380  0.93810  Biso   1.000  O
  O2       1.0000 0.96200  0.62730  0.26450  Biso   1.000  O
  O3       1.0000 0.15440  0.57670  0.12490  Biso   1.000  O
  O4       1.0000 0.11930  0.57440  0.61300  Biso   1.000  O
  O5       1.0000 0.82530  0.75030  0.81220  Biso   1.000  O
  O6       1.0000 0.01740  0.61440  0.82810  Biso   1.000  O
  O7       1.0000 0.49740  0.35350  0.33980  Biso   1.000  O
  O8       1.0000 0.68010  0.46860  0.24310  Biso   1.000  O
  O9       1.0000 0.76080  0.34730  0.09000  Biso   1.000  O
  C26      1.0000 0.96810  0.15180  0.90690  Biso   1.000  C
  H22      1.0000 0.87830  0.18150  0.90010  Biso   1.000  H
  C27      1.0000 0.15990  0.13440  0.94430  Biso   1.000  C
  H23      1.0000 0.22910  0.15070  0.96990  Biso   1.000  H
  C28      1.0000 0.17130  0.03430  0.89230  Biso   1.000  C
  H24      1.0000 0.24930  0.96890  0.87480  Biso   1.000  H
  C29      1.0000 0.01800  0.95670  0.80740  Biso   1.000  C
  H25      1.0000 0.04020  0.88130  0.84020  Biso   1.000  H
  H26      1.0000 0.91930  0.98130  0.81400  Biso   1.000  H
  C30      1.0000 0.09530  0.94140  0.68620  Biso   1.000  C
  C31      1.0000 0.18050  0.83320  0.63970  Biso   1.000  C
  H27      1.0000 0.19170  0.76910  0.68380  Biso   1.000  H
  C32      1.0000 0.24940  0.81770  0.52970  Biso   1.000  C
  H28      1.0000 0.30290  0.74260  0.49940  Biso   1.000  H
  C33      1.0000 0.24100  0.91190  0.46300  Biso   1.000  C
  C34      1.0000 0.15800  0.02180  0.50990  Biso   1.000  C
  H29      1.0000 0.15070  0.08630  0.46620  Biso   1.000  H
  C35      1.0000 0.08570  0.03770  0.62000  Biso   1.000  C
  H30      1.0000 0.03050  0.11250  0.65030  Biso   1.000  H
  C36      1.0000 0.53840  0.72930  0.28810  Biso   1.000  C
  H31      1.0000 0.50100  0.67640  0.26190  Biso   1.000  H
  C37      1.0000 0.67820  0.80590  0.33540  Biso   1.000  C
  H32      1.0000 0.75850  0.81630  0.34700  Biso   1.000  H
  C38      1.0000 0.55570  0.88710  0.35920  Biso   1.000  C
  H33      1.0000 0.53430  0.96260  0.39180  Biso   1.000  H
  C39      1.0000 0.31880  0.89210  0.34220  Biso   1.000  C
  H34      1.0000 0.30390  0.96710  0.30810  Biso   1.000  H
  H35      1.0000 0.28280  0.84140  0.30530  Biso   1.000  H
  C40      1.0000 0.90790  0.40740  0.77400  Biso   1.000  C
  C41      1.0000 0.82600  0.43860  0.68940  Biso   1.000  C
  C42      1.0000 0.89460  0.40460  0.57850  Biso   1.000  C
  H36      1.0000 0.98410  0.35340  0.55800  Biso   1.000  H
  C43      1.0000 0.82330  0.45050  0.49870  Biso   1.000  C
  C44      1.0000 0.68960  0.52810  0.52890  Biso   1.000  C
  H37      1.0000 0.64360  0.55650  0.47510  Biso   1.000  H
  C45      1.0000 0.62570  0.56250  0.64030  Biso   1.000  C
  C46      1.0000 0.69070  0.51380  0.72120  Biso   1.000  C
  H38      1.0000 0.64450  0.53110  0.79590  Biso   1.000  H
  C47      1.0000 0.01720  0.34480  0.35130  Biso   1.000  C
  H39      1.0000 0.08160  0.37620  0.37590  Biso   1.000  H
  H40      1.0000 0.01830  0.27010  0.38440  Biso   1.000  H
  C48      1.0000 0.06220  0.32480  0.22660  Biso   1.000  C
  C49      1.0000 0.42320  0.68250  0.77210  Biso   1.000  C
  H41      1.0000 0.48590  0.67210  0.81900  Biso   1.000  H
  H42      1.0000 0.37420  0.76600  0.77620  Biso   1.000  H
  C50      1.0000 0.31890  0.61500  0.81710  Biso   1.000  C
  Co3      1.0000 0.94430  0.38865  0.00720  Biso   1.000  Co
  Co4      1.0000 0.82694  0.55214  0.22646  Biso   1.000  Co
  N5       1.0000 0.02910  0.21110  0.95490  Biso   1.000  N
  N6       1.0000 0.05110  0.04350  0.86910  Biso   1.000  N
  N7       1.0000 0.46690  0.83810  0.32630  Biso   1.000  N
  N8       1.0000 0.66810  0.70330  0.29080  Biso   1.000  N
  O10      1.0000 0.87350  0.56620  0.06190  Biso   1.000  O
  O11      1.0000 0.03800  0.37270  0.73550  Biso   1.000  O
  O12      1.0000 0.84560  0.42330  0.87510  Biso   1.000  O
  O13      1.0000 0.88070  0.42560  0.38700  Biso   1.000  O
  O14      1.0000 0.17470  0.24970  0.18780  Biso   1.000  O
  O15      1.0000 0.98260  0.38560  0.17190  Biso   1.000  O
  O16      1.0000 0.50260  0.64650  0.66020  Biso   1.000  O
  O17      1.0000 0.31990  0.53140  0.75690  Biso   1.000  O
  O18      1.0000 0.23920  0.65270  0.91000  Biso   1.000  O
