data_image0
_cell_length_a       34.3
_cell_length_b       9.426
_cell_length_c       21.337
_cell_angle_alpha    90
_cell_angle_beta     113.766
_cell_angle_gamma    90

_symmetry_space_group_name_H-M    "P 1"
_symmetry_int_tables_number       1

loop_
  _symmetry_equiv_pos_as_xyz
  'x, y, z'

loop_
  _atom_site_label
  _atom_site_occupancy
  _atom_site_fract_x
  _atom_site_fract_y
  _atom_site_fract_z
  _atom_site_thermal_displace_type
  _atom_site_B_iso_or_equiv
  _atom_site_type_symbol
  Cd1      1.0000 0.26590  0.12249  0.95351  Biso   1.000  Cd
  O1       1.0000 0.23576  0.14010  0.02780  Biso   1.000  O
  N1       1.0000 0.22672  0.91420  0.94490  Biso   1.000  N
  C1       1.0000 0.20748  0.04220  0.02540  Biso   1.000  C
  O2       1.0000 0.34353  0.12430  0.03090  Biso   1.000  O
  N2       1.0000 0.27337  0.68740  0.66220  Biso   1.000  N
  C2       1.0000 0.18350  0.04760  0.06440  Biso   1.000  C
  H1       1.0000 0.18740  0.12370  0.09550  Biso   1.000  H
  O3       1.0000 0.32064  0.06970  0.92170  Biso   1.000  O
  C3       1.0000 0.15360  0.94120  0.05820  Biso   1.000  C
  H2       1.0000 0.13670  0.95000  0.08390  Biso   1.000  H
  C4       1.0000 0.14800  0.82820  0.01800  Biso   1.000  C
  H3       1.0000 0.12800  0.75700  0.01660  Biso   1.000  H
  C5       1.0000 0.17170  0.81440  0.97720  Biso   1.000  C
  C6       1.0000 0.20225  0.92170  0.98160  Biso   1.000  C
  C7       1.0000 0.16770  0.70020  0.93240  Biso   1.000  C
  H4       1.0000 0.14730  0.62770  0.92670  Biso   1.000  H
  C8       1.0000 0.19320  0.69410  0.89720  Biso   1.000  C
  H5       1.0000 0.19120  0.61550  0.86820  Biso   1.000  H
  C9       1.0000 0.22270  0.80450  0.90360  Biso   1.000  C
  C10      1.0000 0.24880  0.80620  0.86430  Biso   1.000  C
  H6       1.0000 0.27130  0.87360  0.87790  Biso   1.000  H
  C11      1.0000 0.24470  0.72430  0.81200  Biso   1.000  C
  H7       1.0000 0.22370  0.65180  0.79980  Biso   1.000  H
  C12      1.0000 0.27020  0.73700  0.77110  Biso   1.000  C
  C13      1.0000 0.30810  0.81740  0.79090  Biso   1.000  C
  H8       1.0000 0.32010  0.86160  0.83460  Biso   1.000  H
  C14      1.0000 0.32710  0.83000  0.74540  Biso   1.000  C
  H9       1.0000 0.35260  0.88300  0.75740  Biso   1.000  H
  C15      1.0000 0.30850  0.76400  0.68120  Biso   1.000  C
  H10      1.0000 0.32170  0.77500  0.65000  Biso   1.000  H
  C16      1.0000 0.25550  0.67270  0.70730  Biso   1.000  C
  H11      1.0000 0.23090  0.61420  0.69460  Biso   1.000  H
  C17      1.0000 0.35030  0.09060  0.98090  Biso   1.000  C
  C18      1.0000 0.39460  0.06520  0.98530  Biso   1.000  C
  C19      1.0000 0.42860  0.06260  0.04970  Biso   1.000  C
  H12      1.0000 0.42400  0.07980  0.09000  Biso   1.000  H
  C20      1.0000 0.46990  0.03390  0.05360  Biso   1.000  C
  H13      1.0000 0.49280  0.02950  0.09740  Biso   1.000  H
  C21      1.0000 0.47800  0.01230  0.99670  Biso   1.000  C
  C22      1.0000 0.44340  0.00860  0.93530  Biso   1.000  C
  H14      1.0000 0.44770  0.98590  0.89510  Biso   1.000  H
  C23      1.0000 0.40250  0.03690  0.92950  Biso   1.000  C
  H15      1.0000 0.37960  0.03640  0.88560  Biso   1.000  H
  Cd2      1.0000 0.76590  0.62249  0.95351  Biso   1.000  Cd
  O4       1.0000 0.73576  0.64010  0.02780  Biso   1.000  O
  N3       1.0000 0.72672  0.41420  0.94490  Biso   1.000  N
  C24      1.0000 0.70748  0.54220  0.02540  Biso   1.000  C
  O5       1.0000 0.84353  0.62430  0.03090  Biso   1.000  O
  N4       1.0000 0.77337  0.18740  0.66220  Biso   1.000  N
  C25      1.0000 0.68350  0.54760  0.06440  Biso   1.000  C
  H16      1.0000 0.68740  0.62370  0.09550  Biso   1.000  H
  O6       1.0000 0.82064  0.56970  0.92170  Biso   1.000  O
  C26      1.0000 0.65360  0.44120  0.05820  Biso   1.000  C
  H17      1.0000 0.63670  0.45000  0.08390  Biso   1.000  H
  C27      1.0000 0.64800  0.32820  0.01800  Biso   1.000  C
  H18      1.0000 0.62800  0.25700  0.01660  Biso   1.000  H
  C28      1.0000 0.67170  0.31440  0.97720  Biso   1.000  C
  C29      1.0000 0.70225  0.42170  0.98160  Biso   1.000  C
  C30      1.0000 0.66770  0.20020  0.93240  Biso   1.000  C
  H19      1.0000 0.64730  0.12770  0.92670  Biso   1.000  H
  C31      1.0000 0.69320  0.19410  0.89720  Biso   1.000  C
  H20      1.0000 0.69120  0.11550  0.86820  Biso   1.000  H
  C32      1.0000 0.72270  0.30450  0.90360  Biso   1.000  C
  C33      1.0000 0.74880  0.30620  0.86430  Biso   1.000  C
  H21      1.0000 0.77130  0.37360  0.87790  Biso   1.000  H
  C34      1.0000 0.74470  0.22430  0.81200  Biso   1.000  C
  H22      1.0000 0.72370  0.15180  0.79980  Biso   1.000  H
  C35      1.0000 0.77020  0.23700  0.77110  Biso   1.000  C
  C36      1.0000 0.80810  0.31740  0.79090  Biso   1.000  C
  H23      1.0000 0.82010  0.36160  0.83460  Biso   1.000  H
  C37      1.0000 0.82710  0.33000  0.74540  Biso   1.000  C
  H24      1.0000 0.85260  0.38300  0.75740  Biso   1.000  H
  C38      1.0000 0.80850  0.26400  0.68120  Biso   1.000  C
  H25      1.0000 0.82170  0.27500  0.65000  Biso   1.000  H
  C39      1.0000 0.75550  0.17270  0.70730  Biso   1.000  C
  H26      1.0000 0.73090  0.11420  0.69460  Biso   1.000  H
  C40      1.0000 0.85030  0.59060  0.98090  Biso   1.000  C
  C41      1.0000 0.89460  0.56520  0.98530  Biso   1.000  C
  C42      1.0000 0.92860  0.56260  0.04970  Biso   1.000  C
  H27      1.0000 0.92400  0.57980  0.09000  Biso   1.000  H
  C43      1.0000 0.96990  0.53390  0.05360  Biso   1.000  C
  H28      1.0000 0.99280  0.52950  0.09740  Biso   1.000  H
  C44      1.0000 0.97800  0.51230  0.99670  Biso   1.000  C
  C45      1.0000 0.94340  0.50860  0.93530  Biso   1.000  C
  H29      1.0000 0.94770  0.48590  0.89510  Biso   1.000  H
  C46      1.0000 0.90250  0.53690  0.92950  Biso   1.000  C
  H30      1.0000 0.87960  0.53640  0.88560  Biso   1.000  H
  Cd3      1.0000 0.73410  0.12249  0.54649  Biso   1.000  Cd
  O7       1.0000 0.76424  0.14010  0.47220  Biso   1.000  O
  N5       1.0000 0.77328  0.91420  0.55510  Biso   1.000  N
  C47      1.0000 0.79252  0.04220  0.47460  Biso   1.000  C
  O8       1.0000 0.65647  0.12430  0.46910  Biso   1.000  O
  N6       1.0000 0.72663  0.68740  0.83780  Biso   1.000  N
  C48      1.0000 0.81650  0.04760  0.43560  Biso   1.000  C
  H31      1.0000 0.81260  0.12370  0.40450  Biso   1.000  H
  O9       1.0000 0.67936  0.06970  0.57830  Biso   1.000  O
  C49      1.0000 0.84640  0.94120  0.44180  Biso   1.000  C
  H32      1.0000 0.86330  0.95000  0.41610  Biso   1.000  H
  C50      1.0000 0.85200  0.82820  0.48200  Biso   1.000  C
  H33      1.0000 0.87200  0.75700  0.48340  Biso   1.000  H
  C51      1.0000 0.82830  0.81440  0.52280  Biso   1.000  C
  C52      1.0000 0.79775  0.92170  0.51840  Biso   1.000  C
  C53      1.0000 0.83230  0.70020  0.56760  Biso   1.000  C
  H34      1.0000 0.85270  0.62770  0.57330  Biso   1.000  H
  C54      1.0000 0.80680  0.69410  0.60280  Biso   1.000  C
  H35      1.0000 0.80880  0.61550  0.63180  Biso   1.000  H
  C55      1.0000 0.77730  0.80450  0.59640  Biso   1.000  C
  C56      1.0000 0.75120  0.80620  0.63570  Biso   1.000  C
  H36      1.0000 0.72870  0.87360  0.62210  Biso   1.000  H
  C57      1.0000 0.75530  0.72430  0.68800  Biso   1.000  C
  H37      1.0000 0.77630  0.65180  0.70020  Biso   1.000  H
  C58      1.0000 0.72980  0.73700  0.72890  Biso   1.000  C
  C59      1.0000 0.69190  0.81740  0.70910  Biso   1.000  C
  H38      1.0000 0.67990  0.86160  0.66540  Biso   1.000  H
  C60      1.0000 0.67290  0.83000  0.75460  Biso   1.000  C
  H39      1.0000 0.64740  0.88300  0.74260  Biso   1.000  H
  C61      1.0000 0.69150  0.76400  0.81880  Biso   1.000  C
  H40      1.0000 0.67830  0.77500  0.85000  Biso   1.000  H
  C62      1.0000 0.74450  0.67270  0.79270  Biso   1.000  C
  H41      1.0000 0.76910  0.61420  0.80540  Biso   1.000  H
  C63      1.0000 0.64970  0.09060  0.51910  Biso   1.000  C
  C64      1.0000 0.60540  0.06520  0.51470  Biso   1.000  C
  C65      1.0000 0.57140  0.06260  0.45030  Biso   1.000  C
  H42      1.0000 0.57600  0.07980  0.41000  Biso   1.000  H
  C66      1.0000 0.53010  0.03390  0.44640  Biso   1.000  C
  H43      1.0000 0.50720  0.02950  0.40260  Biso   1.000  H
  C67      1.0000 0.52200  0.01230  0.50330  Biso   1.000  C
  C68      1.0000 0.55660  0.00860  0.56470  Biso   1.000  C
  H44      1.0000 0.55230  0.98590  0.60490  Biso   1.000  H
  C69      1.0000 0.59750  0.03690  0.57050  Biso   1.000  C
  H45      1.0000 0.62040  0.03640  0.61440  Biso   1.000  H
  Cd4      1.0000 0.23410  0.62249  0.54649  Biso   1.000  Cd
  O10      1.0000 0.26424  0.64010  0.47220  Biso   1.000  O
  N7       1.0000 0.27328  0.41420  0.55510  Biso   1.000  N
  C70      1.0000 0.29252  0.54220  0.47460  Biso   1.000  C
  O11      1.0000 0.15647  0.62430  0.46910  Biso   1.000  O
  N8       1.0000 0.22663  0.18740  0.83780  Biso   1.000  N
  C71      1.0000 0.31650  0.54760  0.43560  Biso   1.000  C
  H46      1.0000 0.31260  0.62370  0.40450  Biso   1.000  H
  O12      1.0000 0.17936  0.56970  0.57830  Biso   1.000  O
  C72      1.0000 0.34640  0.44120  0.44180  Biso   1.000  C
  H47      1.0000 0.36330  0.45000  0.41610  Biso   1.000  H
  C73      1.0000 0.35200  0.32820  0.48200  Biso   1.000  C
  H48      1.0000 0.37200  0.25700  0.48340  Biso   1.000  H
  C74      1.0000 0.32830  0.31440  0.52280  Biso   1.000  C
  C75      1.0000 0.29775  0.42170  0.51840  Biso   1.000  C
  C76      1.0000 0.33230  0.20020  0.56760  Biso   1.000  C
  H49      1.0000 0.35270  0.12770  0.57330  Biso   1.000  H
  C77      1.0000 0.30680  0.19410  0.60280  Biso   1.000  C
  H50      1.0000 0.30880  0.11550  0.63180  Biso   1.000  H
  C78      1.0000 0.27730  0.30450  0.59640  Biso   1.000  C
  C79      1.0000 0.25120  0.30620  0.63570  Biso   1.000  C
  H51      1.0000 0.22870  0.37360  0.62210  Biso   1.000  H
  C80      1.0000 0.25530  0.22430  0.68800  Biso   1.000  C
  H52      1.0000 0.27630  0.15180  0.70020  Biso   1.000  H
  C81      1.0000 0.22980  0.23700  0.72890  Biso   1.000  C
  C82      1.0000 0.19190  0.31740  0.70910  Biso   1.000  C
  H53      1.0000 0.17990  0.36160  0.66540  Biso   1.000  H
  C83      1.0000 0.17290  0.33000  0.75460  Biso   1.000  C
  H54      1.0000 0.14740  0.38300  0.74260  Biso   1.000  H
  C84      1.0000 0.19150  0.26400  0.81880  Biso   1.000  C
  H55      1.0000 0.17830  0.27500  0.85000  Biso   1.000  H
  C85      1.0000 0.24450  0.17270  0.79270  Biso   1.000  C
  H56      1.0000 0.26910  0.11420  0.80540  Biso   1.000  H
  C86      1.0000 0.14970  0.59060  0.51910  Biso   1.000  C
  C87      1.0000 0.10540  0.56520  0.51470  Biso   1.000  C
  C88      1.0000 0.07140  0.56260  0.45030  Biso   1.000  C
  H57      1.0000 0.07600  0.57980  0.41000  Biso   1.000  H
  C89      1.0000 0.03010  0.53390  0.44640  Biso   1.000  C
  H58      1.0000 0.00720  0.52950  0.40260  Biso   1.000  H
  C90      1.0000 0.02200  0.51230  0.50330  Biso   1.000  C
  C91      1.0000 0.05660  0.50860  0.56470  Biso   1.000  C
  H59      1.0000 0.05230  0.48590  0.60490  Biso   1.000  H
  C92      1.0000 0.09750  0.53690  0.57050  Biso   1.000  C
  H60      1.0000 0.12040  0.53640  0.61440  Biso   1.000  H
  Cd5      1.0000 0.73410  0.87751  0.04649  Biso   1.000  Cd
  O13      1.0000 0.76424  0.85990  0.97220  Biso   1.000  O
  N9       1.0000 0.77328  0.08580  0.05510  Biso   1.000  N
  C93      1.0000 0.79252  0.95780  0.97460  Biso   1.000  C
  O14      1.0000 0.65647  0.87570  0.96910  Biso   1.000  O
  N10      1.0000 0.72663  0.31260  0.33780  Biso   1.000  N
  C94      1.0000 0.81650  0.95240  0.93560  Biso   1.000  C
  H61      1.0000 0.81260  0.87630  0.90450  Biso   1.000  H
  O15      1.0000 0.67936  0.93030  0.07830  Biso   1.000  O
  C95      1.0000 0.84640  0.05880  0.94180  Biso   1.000  C
  H62      1.0000 0.86330  0.05000  0.91610  Biso   1.000  H
  C96      1.0000 0.85200  0.17180  0.98200  Biso   1.000  C
  H63      1.0000 0.87200  0.24300  0.98340  Biso   1.000  H
  C97      1.0000 0.82830  0.18560  0.02280  Biso   1.000  C
  C98      1.0000 0.79775  0.07830  0.01840  Biso   1.000  C
  C99      1.0000 0.83230  0.29980  0.06760  Biso   1.000  C
  H64      1.0000 0.85270  0.37230  0.07330  Biso   1.000  H
  C100     1.0000 0.80680  0.30590  0.10280  Biso   1.000  C
  H65      1.0000 0.80880  0.38450  0.13180  Biso   1.000  H
  C101     1.0000 0.77730  0.19550  0.09640  Biso   1.000  C
  C102     1.0000 0.75120  0.19380  0.13570  Biso   1.000  C
  H66      1.0000 0.72870  0.12640  0.12210  Biso   1.000  H
  C103     1.0000 0.75530  0.27570  0.18800  Biso   1.000  C
  H67      1.0000 0.77630  0.34820  0.20020  Biso   1.000  H
  C104     1.0000 0.72980  0.26300  0.22890  Biso   1.000  C
  C105     1.0000 0.69190  0.18260  0.20910  Biso   1.000  C
  H68      1.0000 0.67990  0.13840  0.16540  Biso   1.000  H
  C106     1.0000 0.67290  0.17000  0.25460  Biso   1.000  C
  H69      1.0000 0.64740  0.11700  0.24260  Biso   1.000  H
  C107     1.0000 0.69150  0.23600  0.31880  Biso   1.000  C
  H70      1.0000 0.67830  0.22500  0.35000  Biso   1.000  H
  C108     1.0000 0.74450  0.32730  0.29270  Biso   1.000  C
  H71      1.0000 0.76910  0.38580  0.30540  Biso   1.000  H
  C109     1.0000 0.64970  0.90940  0.01910  Biso   1.000  C
  C110     1.0000 0.60540  0.93480  0.01470  Biso   1.000  C
  C111     1.0000 0.57140  0.93740  0.95030  Biso   1.000  C
  H72      1.0000 0.57600  0.92020  0.91000  Biso   1.000  H
  C112     1.0000 0.53010  0.96610  0.94640  Biso   1.000  C
  H73      1.0000 0.50720  0.97050  0.90260  Biso   1.000  H
  C113     1.0000 0.52200  0.98770  0.00330  Biso   1.000  C
  C114     1.0000 0.55660  0.99140  0.06470  Biso   1.000  C
  H74      1.0000 0.55230  0.01410  0.10490  Biso   1.000  H
  C115     1.0000 0.59750  0.96310  0.07050  Biso   1.000  C
  H75      1.0000 0.62040  0.96360  0.11440  Biso   1.000  H
  Cd6      1.0000 0.23410  0.37751  0.04649  Biso   1.000  Cd
  O16      1.0000 0.26424  0.35990  0.97220  Biso   1.000  O
  N11      1.0000 0.27328  0.58580  0.05510  Biso   1.000  N
  C116     1.0000 0.29252  0.45780  0.97460  Biso   1.000  C
  O17      1.0000 0.15647  0.37570  0.96910  Biso   1.000  O
  N12      1.0000 0.22663  0.81260  0.33780  Biso   1.000  N
  C117     1.0000 0.31650  0.45240  0.93560  Biso   1.000  C
  H76      1.0000 0.31260  0.37630  0.90450  Biso   1.000  H
  O18      1.0000 0.17936  0.43030  0.07830  Biso   1.000  O
  C118     1.0000 0.34640  0.55880  0.94180  Biso   1.000  C
  H77      1.0000 0.36330  0.55000  0.91610  Biso   1.000  H
  C119     1.0000 0.35200  0.67180  0.98200  Biso   1.000  C
  H78      1.0000 0.37200  0.74300  0.98340  Biso   1.000  H
  C120     1.0000 0.32830  0.68560  0.02280  Biso   1.000  C
  C121     1.0000 0.29775  0.57830  0.01840  Biso   1.000  C
  C122     1.0000 0.33230  0.79980  0.06760  Biso   1.000  C
  H79      1.0000 0.35270  0.87230  0.07330  Biso   1.000  H
  C123     1.0000 0.30680  0.80590  0.10280  Biso   1.000  C
  H80      1.0000 0.30880  0.88450  0.13180  Biso   1.000  H
  C124     1.0000 0.27730  0.69550  0.09640  Biso   1.000  C
  C125     1.0000 0.25120  0.69380  0.13570  Biso   1.000  C
  H81      1.0000 0.22870  0.62640  0.12210  Biso   1.000  H
  C126     1.0000 0.25530  0.77570  0.18800  Biso   1.000  C
  H82      1.0000 0.27630  0.84820  0.20020  Biso   1.000  H
  C127     1.0000 0.22980  0.76300  0.22890  Biso   1.000  C
  C128     1.0000 0.19190  0.68260  0.20910  Biso   1.000  C
  H83      1.0000 0.17990  0.63840  0.16540  Biso   1.000  H
  C129     1.0000 0.17290  0.67000  0.25460  Biso   1.000  C
  H84      1.0000 0.14740  0.61700  0.24260  Biso   1.000  H
  C130     1.0000 0.19150  0.73600  0.31880  Biso   1.000  C
  H85      1.0000 0.17830  0.72500  0.35000  Biso   1.000  H
  C131     1.0000 0.24450  0.82730  0.29270  Biso   1.000  C
  H86      1.0000 0.26910  0.88580  0.30540  Biso   1.000  H
  C132     1.0000 0.14970  0.40940  0.01910  Biso   1.000  C
  C133     1.0000 0.10540  0.43480  0.01470  Biso   1.000  C
  C134     1.0000 0.07140  0.43740  0.95030  Biso   1.000  C
  H87      1.0000 0.07600  0.42020  0.91000  Biso   1.000  H
  C135     1.0000 0.03010  0.46610  0.94640  Biso   1.000  C
  H88      1.0000 0.00720  0.47050  0.90260  Biso   1.000  H
  C136     1.0000 0.02200  0.48770  0.00330  Biso   1.000  C
  C137     1.0000 0.05660  0.49140  0.06470  Biso   1.000  C
  H89      1.0000 0.05230  0.51410  0.10490  Biso   1.000  H
  C138     1.0000 0.09750  0.46310  0.07050  Biso   1.000  C
  H90      1.0000 0.12040  0.46360  0.11440  Biso   1.000  H
  Cd7      1.0000 0.26590  0.87751  0.45351  Biso   1.000  Cd
  O19      1.0000 0.23576  0.85990  0.52780  Biso   1.000  O
  N13      1.0000 0.22672  0.08580  0.44490  Biso   1.000  N
  C139     1.0000 0.20748  0.95780  0.52540  Biso   1.000  C
  O20      1.0000 0.34353  0.87570  0.53090  Biso   1.000  O
  N14      1.0000 0.27337  0.31260  0.16220  Biso   1.000  N
  C140     1.0000 0.18350  0.95240  0.56440  Biso   1.000  C
  H91      1.0000 0.18740  0.87630  0.59550  Biso   1.000  H
  O21      1.0000 0.32064  0.93030  0.42170  Biso   1.000  O
  C141     1.0000 0.15360  0.05880  0.55820  Biso   1.000  C
  H92      1.0000 0.13670  0.05000  0.58390  Biso   1.000  H
  C142     1.0000 0.14800  0.17180  0.51800  Biso   1.000  C
  H93      1.0000 0.12800  0.24300  0.51660  Biso   1.000  H
  C143     1.0000 0.17170  0.18560  0.47720  Biso   1.000  C
  C144     1.0000 0.20225  0.07830  0.48160  Biso   1.000  C
  C145     1.0000 0.16770  0.29980  0.43240  Biso   1.000  C
  H94      1.0000 0.14730  0.37230  0.42670  Biso   1.000  H
  C146     1.0000 0.19320  0.30590  0.39720  Biso   1.000  C
  H95      1.0000 0.19120  0.38450  0.36820  Biso   1.000  H
  C147     1.0000 0.22270  0.19550  0.40360  Biso   1.000  C
  C148     1.0000 0.24880  0.19380  0.36430  Biso   1.000  C
  H96      1.0000 0.27130  0.12640  0.37790  Biso   1.000  H
  C149     1.0000 0.24470  0.27570  0.31200  Biso   1.000  C
  H97      1.0000 0.22370  0.34820  0.29980  Biso   1.000  H
  C150     1.0000 0.27020  0.26300  0.27110  Biso   1.000  C
  C151     1.0000 0.30810  0.18260  0.29090  Biso   1.000  C
  H98      1.0000 0.32010  0.13840  0.33460  Biso   1.000  H
  C152     1.0000 0.32710  0.17000  0.24540  Biso   1.000  C
  H99      1.0000 0.35260  0.11700  0.25740  Biso   1.000  H
  C153     1.0000 0.30850  0.23600  0.18120  Biso   1.000  C
  H100     1.0000 0.32170  0.22500  0.15000  Biso   1.000  H
  C154     1.0000 0.25550  0.32730  0.20730  Biso   1.000  C
  H101     1.0000 0.23090  0.38580  0.19460  Biso   1.000  H
  C155     1.0000 0.35030  0.90940  0.48090  Biso   1.000  C
  C156     1.0000 0.39460  0.93480  0.48530  Biso   1.000  C
  C157     1.0000 0.42860  0.93740  0.54970  Biso   1.000  C
  H102     1.0000 0.42400  0.92020  0.59000  Biso   1.000  H
  C158     1.0000 0.46990  0.96610  0.55360  Biso   1.000  C
  H103     1.0000 0.49280  0.97050  0.59740  Biso   1.000  H
  C159     1.0000 0.47800  0.98770  0.49670  Biso   1.000  C
  C160     1.0000 0.44340  0.99140  0.43530  Biso   1.000  C
  H104     1.0000 0.44770  0.01410  0.39510  Biso   1.000  H
  C161     1.0000 0.40250  0.96310  0.42950  Biso   1.000  C
  H105     1.0000 0.37960  0.96360  0.38560  Biso   1.000  H
  Cd8      1.0000 0.76590  0.37751  0.45351  Biso   1.000  Cd
  O22      1.0000 0.73576  0.35990  0.52780  Biso   1.000  O
  N15      1.0000 0.72672  0.58580  0.44490  Biso   1.000  N
  C162     1.0000 0.70748  0.45780  0.52540  Biso   1.000  C
  O23      1.0000 0.84353  0.37570  0.53090  Biso   1.000  O
  N16      1.0000 0.77337  0.81260  0.16220  Biso   1.000  N
  C163     1.0000 0.68350  0.45240  0.56440  Biso   1.000  C
  H106     1.0000 0.68740  0.37630  0.59550  Biso   1.000  H
  O24      1.0000 0.82064  0.43030  0.42170  Biso   1.000  O
  C164     1.0000 0.65360  0.55880  0.55820  Biso   1.000  C
  H107     1.0000 0.63670  0.55000  0.58390  Biso   1.000  H
  C165     1.0000 0.64800  0.67180  0.51800  Biso   1.000  C
  H108     1.0000 0.62800  0.74300  0.51660  Biso   1.000  H
  C166     1.0000 0.67170  0.68560  0.47720  Biso   1.000  C
  C167     1.0000 0.70225  0.57830  0.48160  Biso   1.000  C
  C168     1.0000 0.66770  0.79980  0.43240  Biso   1.000  C
  H109     1.0000 0.64730  0.87230  0.42670  Biso   1.000  H
  C169     1.0000 0.69320  0.80590  0.39720  Biso   1.000  C
  H110     1.0000 0.69120  0.88450  0.36820  Biso   1.000  H
  C170     1.0000 0.72270  0.69550  0.40360  Biso   1.000  C
  C171     1.0000 0.74880  0.69380  0.36430  Biso   1.000  C
  H111     1.0000 0.77130  0.62640  0.37790  Biso   1.000  H
  C172     1.0000 0.74470  0.77570  0.31200  Biso   1.000  C
  H112     1.0000 0.72370  0.84820  0.29980  Biso   1.000  H
  C173     1.0000 0.77020  0.76300  0.27110  Biso   1.000  C
  C174     1.0000 0.80810  0.68260  0.29090  Biso   1.000  C
  H113     1.0000 0.82010  0.63840  0.33460  Biso   1.000  H
  C175     1.0000 0.82710  0.67000  0.24540  Biso   1.000  C
  H114     1.0000 0.85260  0.61700  0.25740  Biso   1.000  H
  C176     1.0000 0.80850  0.73600  0.18120  Biso   1.000  C
  H115     1.0000 0.82170  0.72500  0.15000  Biso   1.000  H
  C177     1.0000 0.75550  0.82730  0.20730  Biso   1.000  C
  H116     1.0000 0.73090  0.88580  0.19460  Biso   1.000  H
  C178     1.0000 0.85030  0.40940  0.48090  Biso   1.000  C
  C179     1.0000 0.89460  0.43480  0.48530  Biso   1.000  C
  C180     1.0000 0.92860  0.43740  0.54970  Biso   1.000  C
  H117     1.0000 0.92400  0.42020  0.59000  Biso   1.000  H
  C181     1.0000 0.96990  0.46610  0.55360  Biso   1.000  C
  H118     1.0000 0.99280  0.47050  0.59740  Biso   1.000  H
  C182     1.0000 0.97800  0.48770  0.49670  Biso   1.000  C
  C183     1.0000 0.94340  0.49140  0.43530  Biso   1.000  C
  H119     1.0000 0.94770  0.51410  0.39510  Biso   1.000  H
  C184     1.0000 0.90250  0.46310  0.42950  Biso   1.000  C
  H120     1.0000 0.87960  0.46360  0.38560  Biso   1.000  H
