data_image0
_cell_length_a       19.4499
_cell_length_b       10.8839
_cell_length_c       27.7796
_cell_angle_alpha    90
_cell_angle_beta     104.467
_cell_angle_gamma    90

_symmetry_space_group_name_H-M    "P 1"
_symmetry_int_tables_number       1

loop_
  _symmetry_equiv_pos_as_xyz
  'x, y, z'

loop_
  _atom_site_label
  _atom_site_occupancy
  _atom_site_fract_x
  _atom_site_fract_y
  _atom_site_fract_z
  _atom_site_thermal_displace_type
  _atom_site_B_iso_or_equiv
  _atom_site_type_symbol
  O1       1.0000 0.45826  0.45310  0.06063  Biso   1.000  O
  O2       1.0000 0.41617  0.63151  0.97766  Biso   1.000  O
  O3       1.0000 0.43049  0.62200  0.45937  Biso   1.000  O
  C1       1.0000 0.41540  0.47930  0.08502  Biso   1.000  C
  Co1      1.0000 0.40132  0.72571  0.04219  Biso   1.000  Co
  C2       1.0000 0.40848  0.73300  0.95382  Biso   1.000  C
  C3       1.0000 0.40990  0.39500  0.12655  Biso   1.000  C
  O4       1.0000 0.37535  0.57430  0.07676  Biso   1.000  O
  O5       1.0000 0.40209  0.82980  0.97679  Biso   1.000  O
  O6       1.0000 0.49513  0.73740  0.42085  Biso   1.000  O
  O7       1.0000 0.38488  0.14620  0.59029  Biso   1.000  O
  O8       1.0000 0.27973  0.27080  0.51378  Biso   1.000  O
  C4       1.0000 0.40330  0.73440  0.89977  Biso   1.000  C
  H1       1.0000 0.36190  0.36660  0.12130  Biso   1.000  H
  H2       1.0000 0.42340  0.43850  0.15760  Biso   1.000  H
  H3       1.0000 0.44100  0.32600  0.12740  Biso   1.000  H
  Co2      1.0000 0.27081  0.62442  0.08154  Biso   1.000  Co
  C5       1.0000 0.39228  0.62630  0.87220  Biso   1.000  C
  C6       1.0000 0.40805  0.84480  0.87561  Biso   1.000  C
  O9       1.0000 0.15996  0.66960  0.07740  Biso   1.000  O
  O10      1.0000 0.25729  0.48620  0.12523  Biso   1.000  O
  O11      1.0000 0.30269  0.22710  0.62445  Biso   1.000  O
  O12      1.0000 0.21639  0.43850  0.50721  Biso   1.000  O
  H4       1.0000 0.38990  0.55180  0.88810  Biso   1.000  H
  C7       1.0000 0.38487  0.62840  0.82172  Biso   1.000  C
  C8       1.0000 0.40187  0.84710  0.82499  Biso   1.000  C
  H5       1.0000 0.41540  0.91770  0.89370  Biso   1.000  H
  Co3      1.0000 0.11185  0.53395  0.02687  Biso   1.000  Co
  C9       1.0000 0.12623  0.76110  0.09085  Biso   1.000  C
  C10      1.0000 0.20236  0.41970  0.11794  Biso   1.000  C
  H6       1.0000 0.37670  0.55580  0.80350  Biso   1.000  H
  C11      1.0000 0.38953  0.73860  0.79793  Biso   1.000  C
  H7       1.0000 0.40600  0.92100  0.80910  Biso   1.000  H
  O13      1.0000 0.16114  0.39860  0.07616  Biso   1.000  O
  O14      1.0000 0.08019  0.41060  0.97006  Biso   1.000  O
  O15      1.0000 0.97217  0.48960  0.94002  Biso   1.000  O
  C12      1.0000 0.14516  0.79280  0.14494  Biso   1.000  C
  O16      1.0000 0.07937  0.81920  0.06174  Biso   1.000  O
  C13      1.0000 0.18444  0.36560  0.16271  Biso   1.000  C
  O17      1.0000 0.38429  0.73190  0.74776  Biso   1.000  O
  C14      1.0000 0.02433  0.42680  0.93576  Biso   1.000  C
  C15      1.0000 0.11612  0.89530  0.16188  Biso   1.000  C
  C16      1.0000 0.19001  0.71750  0.17921  Biso   1.000  C
  C17      1.0000 0.12305  0.29610  0.15780  Biso   1.000  C
  C18      1.0000 0.22455  0.39190  0.21002  Biso   1.000  C
  C19      1.0000 0.37450  0.83860  0.71908  Biso   1.000  C
  C20      1.0000 0.02095  0.37120  0.88618  Biso   1.000  C
  H8       1.0000 0.08540  0.94570  0.13920  Biso   1.000  H
  C21      1.0000 0.13209  0.92390  0.21198  Biso   1.000  C
  C22      1.0000 0.20583  0.74430  0.22939  Biso   1.000  C
  H9       1.0000 0.20960  0.64820  0.16830  Biso   1.000  H
  H10      1.0000 0.09590  0.27600  0.12620  Biso   1.000  H
  C23      1.0000 0.10188  0.25650  0.19911  Biso   1.000  C
  C24      1.0000 0.20456  0.35270  0.25196  Biso   1.000  C
  H11      1.0000 0.26610  0.43720  0.21380  Biso   1.000  H
  C25      1.0000 0.42649  0.86750  0.69543  Biso   1.000  C
  C26      1.0000 0.31330  0.90810  0.71181  Biso   1.000  C
  C27      1.0000 0.97434  0.41980  0.84427  Biso   1.000  C
  C28      1.0000 0.06123  0.27010  0.88125  Biso   1.000  C
  H12      1.0000 0.11300  0.99370  0.22300  Biso   1.000  H
  C29      1.0000 0.17668  0.84740  0.24520  Biso   1.000  C
  H13      1.0000 0.23580  0.69330  0.25220  Biso   1.000  H
  H14      1.0000 0.06050  0.21070  0.19540  Biso   1.000  H
  C30      1.0000 0.14290  0.28550  0.24614  Biso   1.000  C
  H15      1.0000 0.23230  0.37130  0.28350  Biso   1.000  H
  H16      1.0000 0.46780  0.82090  0.70110  Biso   1.000  H
  C31      1.0000 0.41695  0.96630  0.66315  Biso   1.000  C
  H17      1.0000 0.27820  0.88760  0.72780  Biso   1.000  H
  C32      1.0000 0.30497  0.00880  0.68045  Biso   1.000  C
  H18      1.0000 0.94640  0.48720  0.84750  Biso   1.000  H
  C33      1.0000 0.96897  0.36880  0.79759  Biso   1.000  C
  C34      1.0000 0.05432  0.21500  0.83565  Biso   1.000  C
  H19      1.0000 0.09350  0.23870  0.90900  Biso   1.000  H
  O18      1.0000 0.18907  0.87840  0.29500  Biso   1.000  O
  O19      1.0000 0.11829  0.24060  0.28489  Biso   1.000  O
  C35      1.0000 0.35639  0.03890  0.65606  Biso   1.000  C
  H20      1.0000 0.45120  0.98430  0.64610  Biso   1.000  H
  H21      1.0000 0.26420  0.05670  0.67580  Biso   1.000  H
  H22      1.0000 0.93950  0.40390  0.76940  Biso   1.000  H
  C36      1.0000 0.00819  0.26510  0.79390  Biso   1.000  C
  H23      1.0000 0.08030  0.14480  0.83290  Biso   1.000  H
  C37      1.0000 0.25001  0.82900  0.32668  Biso   1.000  C
  C38      1.0000 0.15326  0.27270  0.33343  Biso   1.000  C
  C39      1.0000 0.34705  0.14620  0.62091  Biso   1.000  C
  C40      1.0000 0.24436  0.73830  0.35949  Biso   1.000  C
  C41      1.0000 0.31460  0.87360  0.32428  Biso   1.000  C
  C42      1.0000 0.19780  0.18920  0.36194  Biso   1.000  C
  C43      1.0000 0.13800  0.38330  0.35291  Biso   1.000  C
  C44      1.0000 0.30590  0.69410  0.39168  Biso   1.000  C
  H24      1.0000 0.20020  0.70680  0.36020  Biso   1.000  H
  C45      1.0000 0.37532  0.82940  0.35641  Biso   1.000  C
  H25      1.0000 0.31770  0.93370  0.30110  Biso   1.000  H
  C46      1.0000 0.22733  0.21500  0.41184  Biso   1.000  C
  H26      1.0000 0.20840  0.11590  0.34810  Biso   1.000  H
  C47      1.0000 0.16690  0.40820  0.40254  Biso   1.000  C
  H27      1.0000 0.10850  0.44020  0.33280  Biso   1.000  H
  C48      1.0000 0.37144  0.74110  0.39076  Biso   1.000  C
  H28      1.0000 0.30290  0.63210  0.41410  Biso   1.000  H
  H29      1.0000 0.41940  0.85980  0.35480  Biso   1.000  H
  C49      1.0000 0.21118  0.32410  0.43268  Biso   1.000  C
  H30      1.0000 0.25810  0.15890  0.43140  Biso   1.000  H
  H31      1.0000 0.15670  0.48230  0.41590  Biso   1.000  H
  C50      1.0000 0.43789  0.69550  0.42644  Biso   1.000  C
  C51      1.0000 0.23751  0.34660  0.48695  Biso   1.000  C
  O20      1.0000 0.54174  0.45310  0.43937  Biso   1.000  O
  O21      1.0000 0.58383  0.63151  0.52234  Biso   1.000  O
  O22      1.0000 0.56951  0.62200  0.04063  Biso   1.000  O
  C52      1.0000 0.58460  0.47930  0.41498  Biso   1.000  C
  Co4      1.0000 0.59868  0.72571  0.45781  Biso   1.000  Co
  C53      1.0000 0.59152  0.73300  0.54618  Biso   1.000  C
  C54      1.0000 0.59010  0.39500  0.37345  Biso   1.000  C
  O23      1.0000 0.62465  0.57430  0.42324  Biso   1.000  O
  O24      1.0000 0.59791  0.82980  0.52321  Biso   1.000  O
  O25      1.0000 0.50487  0.73740  0.07915  Biso   1.000  O
  O26      1.0000 0.61512  0.14620  0.90971  Biso   1.000  O
  O27      1.0000 0.72027  0.27080  0.98622  Biso   1.000  O
  C55      1.0000 0.59670  0.73440  0.60023  Biso   1.000  C
  H32      1.0000 0.63810  0.36660  0.37870  Biso   1.000  H
  H33      1.0000 0.57660  0.43850  0.34240  Biso   1.000  H
  H34      1.0000 0.55900  0.32600  0.37260  Biso   1.000  H
  Co5      1.0000 0.72919  0.62442  0.41846  Biso   1.000  Co
  C56      1.0000 0.60772  0.62630  0.62780  Biso   1.000  C
  C57      1.0000 0.59195  0.84480  0.62439  Biso   1.000  C
  O28      1.0000 0.84004  0.66960  0.42260  Biso   1.000  O
  O29      1.0000 0.74271  0.48620  0.37477  Biso   1.000  O
  O30      1.0000 0.69731  0.22710  0.87555  Biso   1.000  O
  O31      1.0000 0.78361  0.43850  0.99279  Biso   1.000  O
  H35      1.0000 0.61010  0.55180  0.61190  Biso   1.000  H
  C58      1.0000 0.61513  0.62840  0.67828  Biso   1.000  C
  C59      1.0000 0.59813  0.84710  0.67501  Biso   1.000  C
  H36      1.0000 0.58460  0.91770  0.60630  Biso   1.000  H
  Co6      1.0000 0.88815  0.53395  0.47313  Biso   1.000  Co
  C60      1.0000 0.87377  0.76110  0.40915  Biso   1.000  C
  C61      1.0000 0.79764  0.41970  0.38206  Biso   1.000  C
  H37      1.0000 0.62330  0.55580  0.69650  Biso   1.000  H
  C62      1.0000 0.61047  0.73860  0.70207  Biso   1.000  C
  H38      1.0000 0.59400  0.92100  0.69090  Biso   1.000  H
  O32      1.0000 0.83886  0.39860  0.42384  Biso   1.000  O
  O33      1.0000 0.91981  0.41060  0.52994  Biso   1.000  O
  O34      1.0000 0.02783  0.48960  0.55998  Biso   1.000  O
  C63      1.0000 0.85484  0.79280  0.35506  Biso   1.000  C
  O35      1.0000 0.92063  0.81920  0.43826  Biso   1.000  O
  C64      1.0000 0.81556  0.36560  0.33729  Biso   1.000  C
  O36      1.0000 0.61571  0.73190  0.75224  Biso   1.000  O
  C65      1.0000 0.97567  0.42680  0.56424  Biso   1.000  C
  C66      1.0000 0.88388  0.89530  0.33812  Biso   1.000  C
  C67      1.0000 0.80999  0.71750  0.32079  Biso   1.000  C
  C68      1.0000 0.87695  0.29610  0.34220  Biso   1.000  C
  C69      1.0000 0.77545  0.39190  0.28998  Biso   1.000  C
  C70      1.0000 0.62550  0.83860  0.78092  Biso   1.000  C
  C71      1.0000 0.97905  0.37120  0.61382  Biso   1.000  C
  H39      1.0000 0.91460  0.94570  0.36080  Biso   1.000  H
  C72      1.0000 0.86791  0.92390  0.28802  Biso   1.000  C
  C73      1.0000 0.79417  0.74430  0.27061  Biso   1.000  C
  H40      1.0000 0.79040  0.64820  0.33170  Biso   1.000  H
  H41      1.0000 0.90410  0.27600  0.37380  Biso   1.000  H
  C74      1.0000 0.89812  0.25650  0.30089  Biso   1.000  C
  C75      1.0000 0.79544  0.35270  0.24804  Biso   1.000  C
  H42      1.0000 0.73390  0.43720  0.28620  Biso   1.000  H
  C76      1.0000 0.57351  0.86750  0.80457  Biso   1.000  C
  C77      1.0000 0.68670  0.90810  0.78819  Biso   1.000  C
  C78      1.0000 0.02566  0.41980  0.65573  Biso   1.000  C
  C79      1.0000 0.93877  0.27010  0.61875  Biso   1.000  C
  H43      1.0000 0.88700  0.99370  0.27700  Biso   1.000  H
  C80      1.0000 0.82332  0.84740  0.25480  Biso   1.000  C
  H44      1.0000 0.76420  0.69330  0.24780  Biso   1.000  H
  H45      1.0000 0.93950  0.21070  0.30460  Biso   1.000  H
  C81      1.0000 0.85710  0.28550  0.25386  Biso   1.000  C
  H46      1.0000 0.76770  0.37130  0.21650  Biso   1.000  H
  H47      1.0000 0.53220  0.82090  0.79890  Biso   1.000  H
  C82      1.0000 0.58305  0.96630  0.83685  Biso   1.000  C
  H48      1.0000 0.72180  0.88760  0.77220  Biso   1.000  H
  C83      1.0000 0.69503  0.00880  0.81955  Biso   1.000  C
  H49      1.0000 0.05360  0.48720  0.65250  Biso   1.000  H
  C84      1.0000 0.03103  0.36880  0.70241  Biso   1.000  C
  C85      1.0000 0.94568  0.21500  0.66435  Biso   1.000  C
  H50      1.0000 0.90650  0.23870  0.59100  Biso   1.000  H
  O37      1.0000 0.81093  0.87840  0.20500  Biso   1.000  O
  O38      1.0000 0.88171  0.24060  0.21511  Biso   1.000  O
  C86      1.0000 0.64361  0.03890  0.84394  Biso   1.000  C
  H51      1.0000 0.54880  0.98430  0.85390  Biso   1.000  H
  H52      1.0000 0.73580  0.05670  0.82420  Biso   1.000  H
  H53      1.0000 0.06050  0.40390  0.73060  Biso   1.000  H
  C87      1.0000 0.99181  0.26510  0.70610  Biso   1.000  C
  H54      1.0000 0.91970  0.14480  0.66710  Biso   1.000  H
  C88      1.0000 0.74999  0.82900  0.17332  Biso   1.000  C
  C89      1.0000 0.84674  0.27270  0.16657  Biso   1.000  C
  C90      1.0000 0.65295  0.14620  0.87909  Biso   1.000  C
  C91      1.0000 0.75564  0.73830  0.14051  Biso   1.000  C
  C92      1.0000 0.68540  0.87360  0.17572  Biso   1.000  C
  C93      1.0000 0.80220  0.18920  0.13806  Biso   1.000  C
  C94      1.0000 0.86200  0.38330  0.14709  Biso   1.000  C
  C95      1.0000 0.69410  0.69410  0.10832  Biso   1.000  C
  H55      1.0000 0.79980  0.70680  0.13980  Biso   1.000  H
  C96      1.0000 0.62468  0.82940  0.14359  Biso   1.000  C
  H56      1.0000 0.68230  0.93370  0.19890  Biso   1.000  H
  C97      1.0000 0.77267  0.21500  0.08816  Biso   1.000  C
  H57      1.0000 0.79160  0.11590  0.15190  Biso   1.000  H
  C98      1.0000 0.83310  0.40820  0.09746  Biso   1.000  C
  H58      1.0000 0.89150  0.44020  0.16720  Biso   1.000  H
  C99      1.0000 0.62856  0.74110  0.10924  Biso   1.000  C
  H59      1.0000 0.69710  0.63210  0.08590  Biso   1.000  H
  H60      1.0000 0.58060  0.85980  0.14520  Biso   1.000  H
  C100     1.0000 0.78882  0.32410  0.06732  Biso   1.000  C
  H61      1.0000 0.74190  0.15890  0.06860  Biso   1.000  H
  H62      1.0000 0.84330  0.48230  0.08410  Biso   1.000  H
  C101     1.0000 0.56211  0.69550  0.07356  Biso   1.000  C
  C102     1.0000 0.76249  0.34660  0.01305  Biso   1.000  C
  O39      1.0000 0.54174  0.54690  0.93937  Biso   1.000  O
  O40      1.0000 0.58383  0.36849  0.02234  Biso   1.000  O
  O41      1.0000 0.56951  0.37800  0.54063  Biso   1.000  O
  C103     1.0000 0.58460  0.52070  0.91498  Biso   1.000  C
  Co7      1.0000 0.59868  0.27429  0.95781  Biso   1.000  Co
  C104     1.0000 0.59152  0.26700  0.04618  Biso   1.000  C
  C105     1.0000 0.59010  0.60500  0.87345  Biso   1.000  C
  O42      1.0000 0.62465  0.42570  0.92324  Biso   1.000  O
  O43      1.0000 0.59791  0.17020  0.02321  Biso   1.000  O
  O44      1.0000 0.50487  0.26260  0.57915  Biso   1.000  O
  O45      1.0000 0.61512  0.85380  0.40971  Biso   1.000  O
  O46      1.0000 0.72027  0.72920  0.48622  Biso   1.000  O
  C106     1.0000 0.59670  0.26560  0.10023  Biso   1.000  C
  H63      1.0000 0.63810  0.63340  0.87870  Biso   1.000  H
  H64      1.0000 0.57660  0.56150  0.84240  Biso   1.000  H
  H65      1.0000 0.55900  0.67400  0.87260  Biso   1.000  H
  Co8      1.0000 0.72919  0.37558  0.91846  Biso   1.000  Co
  C107     1.0000 0.60772  0.37370  0.12780  Biso   1.000  C
  C108     1.0000 0.59195  0.15520  0.12439  Biso   1.000  C
  O47      1.0000 0.84004  0.33040  0.92260  Biso   1.000  O
  O48      1.0000 0.74271  0.51380  0.87477  Biso   1.000  O
  O49      1.0000 0.69731  0.77290  0.37555  Biso   1.000  O
  O50      1.0000 0.78361  0.56150  0.49279  Biso   1.000  O
  H66      1.0000 0.61010  0.44820  0.11190  Biso   1.000  H
  C109     1.0000 0.61513  0.37160  0.17828  Biso   1.000  C
  C110     1.0000 0.59813  0.15290  0.17501  Biso   1.000  C
  H67      1.0000 0.58460  0.08230  0.10630  Biso   1.000  H
  Co9      1.0000 0.88815  0.46605  0.97313  Biso   1.000  Co
  C111     1.0000 0.87377  0.23890  0.90915  Biso   1.000  C
  C112     1.0000 0.79764  0.58030  0.88206  Biso   1.000  C
  H68      1.0000 0.62330  0.44420  0.19650  Biso   1.000  H
  C113     1.0000 0.61047  0.26140  0.20207  Biso   1.000  C
  H69      1.0000 0.59400  0.07900  0.19090  Biso   1.000  H
  O51      1.0000 0.83886  0.60140  0.92384  Biso   1.000  O
  O52      1.0000 0.91981  0.58940  0.02994  Biso   1.000  O
  O53      1.0000 0.02783  0.51040  0.05998  Biso   1.000  O
  C114     1.0000 0.85484  0.20720  0.85506  Biso   1.000  C
  O54      1.0000 0.92063  0.18080  0.93826  Biso   1.000  O
  C115     1.0000 0.81556  0.63440  0.83729  Biso   1.000  C
  O55      1.0000 0.61571  0.26810  0.25224  Biso   1.000  O
  C116     1.0000 0.97567  0.57320  0.06424  Biso   1.000  C
  C117     1.0000 0.88388  0.10470  0.83812  Biso   1.000  C
  C118     1.0000 0.80999  0.28250  0.82079  Biso   1.000  C
  C119     1.0000 0.87695  0.70390  0.84220  Biso   1.000  C
  C120     1.0000 0.77545  0.60810  0.78998  Biso   1.000  C
  C121     1.0000 0.62550  0.16140  0.28092  Biso   1.000  C
  C122     1.0000 0.97905  0.62880  0.11382  Biso   1.000  C
  H70      1.0000 0.91460  0.05430  0.86080  Biso   1.000  H
  C123     1.0000 0.86791  0.07610  0.78802  Biso   1.000  C
  C124     1.0000 0.79417  0.25570  0.77061  Biso   1.000  C
  H71      1.0000 0.79040  0.35180  0.83170  Biso   1.000  H
  H72      1.0000 0.90410  0.72400  0.87380  Biso   1.000  H
  C125     1.0000 0.89812  0.74350  0.80089  Biso   1.000  C
  C126     1.0000 0.79544  0.64730  0.74804  Biso   1.000  C
  H73      1.0000 0.73390  0.56280  0.78620  Biso   1.000  H
  C127     1.0000 0.57351  0.13250  0.30457  Biso   1.000  C
  C128     1.0000 0.68670  0.09190  0.28819  Biso   1.000  C
  C129     1.0000 0.02566  0.58020  0.15573  Biso   1.000  C
  C130     1.0000 0.93877  0.72990  0.11875  Biso   1.000  C
  H74      1.0000 0.88700  0.00630  0.77700  Biso   1.000  H
  C131     1.0000 0.82332  0.15260  0.75480  Biso   1.000  C
  H75      1.0000 0.76420  0.30670  0.74780  Biso   1.000  H
  H76      1.0000 0.93950  0.78930  0.80460  Biso   1.000  H
  C132     1.0000 0.85710  0.71450  0.75386  Biso   1.000  C
  H77      1.0000 0.76770  0.62870  0.71650  Biso   1.000  H
  H78      1.0000 0.53220  0.17910  0.29890  Biso   1.000  H
  C133     1.0000 0.58305  0.03370  0.33685  Biso   1.000  C
  H79      1.0000 0.72180  0.11240  0.27220  Biso   1.000  H
  C134     1.0000 0.69503  0.99120  0.31955  Biso   1.000  C
  H80      1.0000 0.05360  0.51280  0.15250  Biso   1.000  H
  C135     1.0000 0.03103  0.63120  0.20241  Biso   1.000  C
  C136     1.0000 0.94568  0.78500  0.16435  Biso   1.000  C
  H81      1.0000 0.90650  0.76130  0.09100  Biso   1.000  H
  O56      1.0000 0.81093  0.12160  0.70500  Biso   1.000  O
  O57      1.0000 0.88171  0.75940  0.71511  Biso   1.000  O
  C137     1.0000 0.64361  0.96110  0.34394  Biso   1.000  C
  H82      1.0000 0.54880  0.01570  0.35390  Biso   1.000  H
  H83      1.0000 0.73580  0.94330  0.32420  Biso   1.000  H
  H84      1.0000 0.06050  0.59610  0.23060  Biso   1.000  H
  C138     1.0000 0.99181  0.73490  0.20610  Biso   1.000  C
  H85      1.0000 0.91970  0.85520  0.16710  Biso   1.000  H
  C139     1.0000 0.74999  0.17100  0.67332  Biso   1.000  C
  C140     1.0000 0.84674  0.72730  0.66657  Biso   1.000  C
  C141     1.0000 0.65295  0.85380  0.37909  Biso   1.000  C
  C142     1.0000 0.75564  0.26170  0.64051  Biso   1.000  C
  C143     1.0000 0.68540  0.12640  0.67572  Biso   1.000  C
  C144     1.0000 0.80220  0.81080  0.63806  Biso   1.000  C
  C145     1.0000 0.86200  0.61670  0.64709  Biso   1.000  C
  C146     1.0000 0.69410  0.30590  0.60832  Biso   1.000  C
  H86      1.0000 0.79980  0.29320  0.63980  Biso   1.000  H
  C147     1.0000 0.62468  0.17060  0.64359  Biso   1.000  C
  H87      1.0000 0.68230  0.06630  0.69890  Biso   1.000  H
  C148     1.0000 0.77267  0.78500  0.58816  Biso   1.000  C
  H88      1.0000 0.79160  0.88410  0.65190  Biso   1.000  H
  C149     1.0000 0.83310  0.59180  0.59746  Biso   1.000  C
  H89      1.0000 0.89150  0.55980  0.66720  Biso   1.000  H
  C150     1.0000 0.62856  0.25890  0.60924  Biso   1.000  C
  H90      1.0000 0.69710  0.36790  0.58590  Biso   1.000  H
  H91      1.0000 0.58060  0.14020  0.64520  Biso   1.000  H
  C151     1.0000 0.78882  0.67590  0.56732  Biso   1.000  C
  H92      1.0000 0.74190  0.84110  0.56860  Biso   1.000  H
  H93      1.0000 0.84330  0.51770  0.58410  Biso   1.000  H
  C152     1.0000 0.56211  0.30450  0.57356  Biso   1.000  C
  C153     1.0000 0.76249  0.65340  0.51305  Biso   1.000  C
  O58      1.0000 0.45826  0.54690  0.56063  Biso   1.000  O
  O59      1.0000 0.41617  0.36849  0.47766  Biso   1.000  O
  O60      1.0000 0.43049  0.37800  0.95937  Biso   1.000  O
  C154     1.0000 0.41540  0.52070  0.58502  Biso   1.000  C
  Co10     1.0000 0.40132  0.27429  0.54219  Biso   1.000  Co
  C155     1.0000 0.40848  0.26700  0.45382  Biso   1.000  C
  C156     1.0000 0.40990  0.60500  0.62655  Biso   1.000  C
  O61      1.0000 0.37535  0.42570  0.57676  Biso   1.000  O
  O62      1.0000 0.40209  0.17020  0.47679  Biso   1.000  O
  O63      1.0000 0.49513  0.26260  0.92085  Biso   1.000  O
  O64      1.0000 0.38488  0.85380  0.09029  Biso   1.000  O
  O65      1.0000 0.27973  0.72920  0.01378  Biso   1.000  O
  C157     1.0000 0.40330  0.26560  0.39977  Biso   1.000  C
  H94      1.0000 0.36190  0.63340  0.62130  Biso   1.000  H
  H95      1.0000 0.42340  0.56150  0.65760  Biso   1.000  H
  H96      1.0000 0.44100  0.67400  0.62740  Biso   1.000  H
  Co11     1.0000 0.27081  0.37558  0.58154  Biso   1.000  Co
  C158     1.0000 0.39228  0.37370  0.37220  Biso   1.000  C
  C159     1.0000 0.40805  0.15520  0.37561  Biso   1.000  C
  O66      1.0000 0.15996  0.33040  0.57740  Biso   1.000  O
  O67      1.0000 0.25729  0.51380  0.62523  Biso   1.000  O
  O68      1.0000 0.30269  0.77290  0.12445  Biso   1.000  O
  O69      1.0000 0.21639  0.56150  0.00721  Biso   1.000  O
  H97      1.0000 0.38990  0.44820  0.38810  Biso   1.000  H
  C160     1.0000 0.38487  0.37160  0.32172  Biso   1.000  C
  C161     1.0000 0.40187  0.15290  0.32499  Biso   1.000  C
  H98      1.0000 0.41540  0.08230  0.39370  Biso   1.000  H
  Co12     1.0000 0.11185  0.46605  0.52687  Biso   1.000  Co
  C162     1.0000 0.12623  0.23890  0.59085  Biso   1.000  C
  C163     1.0000 0.20236  0.58030  0.61794  Biso   1.000  C
  H99      1.0000 0.37670  0.44420  0.30350  Biso   1.000  H
  C164     1.0000 0.38953  0.26140  0.29793  Biso   1.000  C
  H100     1.0000 0.40600  0.07900  0.30910  Biso   1.000  H
  O70      1.0000 0.16114  0.60140  0.57616  Biso   1.000  O
  O71      1.0000 0.08019  0.58940  0.47006  Biso   1.000  O
  O72      1.0000 0.97217  0.51040  0.44002  Biso   1.000  O
  C165     1.0000 0.14516  0.20720  0.64494  Biso   1.000  C
  O73      1.0000 0.07937  0.18080  0.56174  Biso   1.000  O
  C166     1.0000 0.18444  0.63440  0.66271  Biso   1.000  C
  O74      1.0000 0.38429  0.26810  0.24776  Biso   1.000  O
  C167     1.0000 0.02433  0.57320  0.43576  Biso   1.000  C
  C168     1.0000 0.11612  0.10470  0.66188  Biso   1.000  C
  C169     1.0000 0.19001  0.28250  0.67921  Biso   1.000  C
  C170     1.0000 0.12305  0.70390  0.65780  Biso   1.000  C
  C171     1.0000 0.22455  0.60810  0.71002  Biso   1.000  C
  C172     1.0000 0.37450  0.16140  0.21908  Biso   1.000  C
  C173     1.0000 0.02095  0.62880  0.38618  Biso   1.000  C
  H101     1.0000 0.08540  0.05430  0.63920  Biso   1.000  H
  C174     1.0000 0.13209  0.07610  0.71198  Biso   1.000  C
  C175     1.0000 0.20583  0.25570  0.72939  Biso   1.000  C
  H102     1.0000 0.20960  0.35180  0.66830  Biso   1.000  H
  H103     1.0000 0.09590  0.72400  0.62620  Biso   1.000  H
  C176     1.0000 0.10188  0.74350  0.69911  Biso   1.000  C
  C177     1.0000 0.20456  0.64730  0.75196  Biso   1.000  C
  H104     1.0000 0.26610  0.56280  0.71380  Biso   1.000  H
  C178     1.0000 0.42649  0.13250  0.19543  Biso   1.000  C
  C179     1.0000 0.31330  0.09190  0.21181  Biso   1.000  C
  C180     1.0000 0.97434  0.58020  0.34427  Biso   1.000  C
  C181     1.0000 0.06123  0.72990  0.38125  Biso   1.000  C
  H105     1.0000 0.11300  0.00630  0.72300  Biso   1.000  H
  C182     1.0000 0.17668  0.15260  0.74520  Biso   1.000  C
  H106     1.0000 0.23580  0.30670  0.75220  Biso   1.000  H
  H107     1.0000 0.06050  0.78930  0.69540  Biso   1.000  H
  C183     1.0000 0.14290  0.71450  0.74614  Biso   1.000  C
  H108     1.0000 0.23230  0.62870  0.78350  Biso   1.000  H
  H109     1.0000 0.46780  0.17910  0.20110  Biso   1.000  H
  C184     1.0000 0.41695  0.03370  0.16315  Biso   1.000  C
  H110     1.0000 0.27820  0.11240  0.22780  Biso   1.000  H
  C185     1.0000 0.30497  0.99120  0.18045  Biso   1.000  C
  H111     1.0000 0.94640  0.51280  0.34750  Biso   1.000  H
  C186     1.0000 0.96897  0.63120  0.29759  Biso   1.000  C
  C187     1.0000 0.05432  0.78500  0.33565  Biso   1.000  C
  H112     1.0000 0.09350  0.76130  0.40900  Biso   1.000  H
  O75      1.0000 0.18907  0.12160  0.79500  Biso   1.000  O
  O76      1.0000 0.11829  0.75940  0.78489  Biso   1.000  O
  C188     1.0000 0.35639  0.96110  0.15606  Biso   1.000  C
  H113     1.0000 0.45120  0.01570  0.14610  Biso   1.000  H
  H114     1.0000 0.26420  0.94330  0.17580  Biso   1.000  H
  H115     1.0000 0.93950  0.59610  0.26940  Biso   1.000  H
  C189     1.0000 0.00819  0.73490  0.29390  Biso   1.000  C
  H116     1.0000 0.08030  0.85520  0.33290  Biso   1.000  H
  C190     1.0000 0.25001  0.17100  0.82668  Biso   1.000  C
  C191     1.0000 0.15326  0.72730  0.83343  Biso   1.000  C
  C192     1.0000 0.34705  0.85380  0.12091  Biso   1.000  C
  C193     1.0000 0.24436  0.26170  0.85949  Biso   1.000  C
  C194     1.0000 0.31460  0.12640  0.82428  Biso   1.000  C
  C195     1.0000 0.19780  0.81080  0.86194  Biso   1.000  C
  C196     1.0000 0.13800  0.61670  0.85291  Biso   1.000  C
  C197     1.0000 0.30590  0.30590  0.89168  Biso   1.000  C
  H117     1.0000 0.20020  0.29320  0.86020  Biso   1.000  H
  C198     1.0000 0.37532  0.17060  0.85641  Biso   1.000  C
  H118     1.0000 0.31770  0.06630  0.80110  Biso   1.000  H
  C199     1.0000 0.22733  0.78500  0.91184  Biso   1.000  C
  H119     1.0000 0.20840  0.88410  0.84810  Biso   1.000  H
  C200     1.0000 0.16690  0.59180  0.90254  Biso   1.000  C
  H120     1.0000 0.10850  0.55980  0.83280  Biso   1.000  H
  C201     1.0000 0.37144  0.25890  0.89076  Biso   1.000  C
  H121     1.0000 0.30290  0.36790  0.91410  Biso   1.000  H
  H122     1.0000 0.41940  0.14020  0.85480  Biso   1.000  H
  C202     1.0000 0.21118  0.67590  0.93268  Biso   1.000  C
  H123     1.0000 0.25810  0.84110  0.93140  Biso   1.000  H
  H124     1.0000 0.15670  0.51770  0.91590  Biso   1.000  H
  C203     1.0000 0.43789  0.30450  0.92644  Biso   1.000  C
  C204     1.0000 0.23751  0.65340  0.98695  Biso   1.000  C
  Co13     1.0000 0.50000  0.50000  0.00000  Biso   1.000  Co
  Co14     1.0000 0.50000  0.50000  0.50000  Biso   1.000  Co
  O77      1.0000 0.00000  0.20150  0.75000  Biso   1.000  O
  O78      1.0000 0.00000  0.79850  0.25000  Biso   1.000  O
