data_image0
_cell_length_a       17.9938
_cell_length_b       17.9938
_cell_length_c       22.1829
_cell_angle_alpha    90
_cell_angle_beta     90
_cell_angle_gamma    90

_symmetry_space_group_name_H-M    "P 1"
_symmetry_int_tables_number       1

loop_
  _symmetry_equiv_pos_as_xyz
  'x, y, z'

loop_
  _atom_site_label
  _atom_site_occupancy
  _atom_site_fract_x
  _atom_site_fract_y
  _atom_site_fract_z
  _atom_site_thermal_displace_type
  _atom_site_B_iso_or_equiv
  _atom_site_type_symbol
  C1       1.0000 0.15620  0.43600  0.89550  Biso   1.000  C
  H1       1.0000 0.13970  0.39040  0.91240  Biso   1.000  H
  C2       1.0000 0.20060  0.43420  0.84420  Biso   1.000  C
  C3       1.0000 0.21950  0.36240  0.81350  Biso   1.000  C
  O1       1.0000 0.25950  0.36800  0.76660  Biso   1.000  O
  O2       1.0000 0.19350  0.30297  0.83493  Biso   1.000  O
  C4       1.0000 0.65620  0.93600  0.39550  Biso   1.000  C
  H2       1.0000 0.63970  0.89040  0.41240  Biso   1.000  H
  C5       1.0000 0.70060  0.93420  0.34420  Biso   1.000  C
  C6       1.0000 0.71950  0.86240  0.31350  Biso   1.000  C
  O3       1.0000 0.75950  0.86800  0.26660  Biso   1.000  O
  O4       1.0000 0.69350  0.80297  0.33493  Biso   1.000  O
  C7       1.0000 0.84380  0.56400  0.89550  Biso   1.000  C
  H3       1.0000 0.86030  0.60960  0.91240  Biso   1.000  H
  C8       1.0000 0.79940  0.56580  0.84420  Biso   1.000  C
  C9       1.0000 0.78050  0.63760  0.81350  Biso   1.000  C
  O5       1.0000 0.74050  0.63200  0.76660  Biso   1.000  O
  O6       1.0000 0.80650  0.69703  0.83493  Biso   1.000  O
  C10      1.0000 0.34380  0.06400  0.39550  Biso   1.000  C
  H4       1.0000 0.36030  0.10960  0.41240  Biso   1.000  H
  C11      1.0000 0.29940  0.06580  0.34420  Biso   1.000  C
  C12      1.0000 0.28050  0.13760  0.31350  Biso   1.000  C
  O7       1.0000 0.24050  0.13200  0.26660  Biso   1.000  O
  O8       1.0000 0.30650  0.19703  0.33493  Biso   1.000  O
  C13      1.0000 0.56400  0.15620  0.89550  Biso   1.000  C
  H5       1.0000 0.60960  0.13970  0.91240  Biso   1.000  H
  C14      1.0000 0.56580  0.20060  0.84420  Biso   1.000  C
  C15      1.0000 0.63760  0.21950  0.81350  Biso   1.000  C
  O9       1.0000 0.63200  0.25950  0.76660  Biso   1.000  O
  O10      1.0000 0.69703  0.19350  0.83493  Biso   1.000  O
  C16      1.0000 0.06400  0.65620  0.39550  Biso   1.000  C
  H6       1.0000 0.10960  0.63970  0.41240  Biso   1.000  H
  C17      1.0000 0.06580  0.70060  0.34420  Biso   1.000  C
  C18      1.0000 0.13760  0.71950  0.31350  Biso   1.000  C
  O11      1.0000 0.13200  0.75950  0.26660  Biso   1.000  O
  O12      1.0000 0.19703  0.69350  0.33493  Biso   1.000  O
  C19      1.0000 0.43600  0.84380  0.89550  Biso   1.000  C
  H7       1.0000 0.39040  0.86030  0.91240  Biso   1.000  H
  C20      1.0000 0.43420  0.79940  0.84420  Biso   1.000  C
  C21      1.0000 0.36240  0.78050  0.81350  Biso   1.000  C
  O13      1.0000 0.36800  0.74050  0.76660  Biso   1.000  O
  O14      1.0000 0.30297  0.80650  0.83493  Biso   1.000  O
  C22      1.0000 0.93600  0.34380  0.39550  Biso   1.000  C
  H8       1.0000 0.89040  0.36030  0.41240  Biso   1.000  H
  C23      1.0000 0.93420  0.29940  0.34420  Biso   1.000  C
  C24      1.0000 0.86240  0.28050  0.31350  Biso   1.000  C
  O15      1.0000 0.86800  0.24050  0.26660  Biso   1.000  O
  O16      1.0000 0.80297  0.30650  0.33493  Biso   1.000  O
  C25      1.0000 0.84380  0.43600  0.10450  Biso   1.000  C
  H9       1.0000 0.86030  0.39040  0.08760  Biso   1.000  H
  C26      1.0000 0.79940  0.43420  0.15580  Biso   1.000  C
  C27      1.0000 0.78050  0.36240  0.18650  Biso   1.000  C
  O17      1.0000 0.74050  0.36800  0.23340  Biso   1.000  O
  O18      1.0000 0.80650  0.30297  0.16507  Biso   1.000  O
  C28      1.0000 0.34380  0.93600  0.60450  Biso   1.000  C
  H10      1.0000 0.36030  0.89040  0.58760  Biso   1.000  H
  C29      1.0000 0.29940  0.93420  0.65580  Biso   1.000  C
  C30      1.0000 0.28050  0.86240  0.68650  Biso   1.000  C
  O19      1.0000 0.24050  0.86800  0.73340  Biso   1.000  O
  O20      1.0000 0.30650  0.80297  0.66507  Biso   1.000  O
  C31      1.0000 0.15620  0.56400  0.10450  Biso   1.000  C
  H11      1.0000 0.13970  0.60960  0.08760  Biso   1.000  H
  C32      1.0000 0.20060  0.56580  0.15580  Biso   1.000  C
  C33      1.0000 0.21950  0.63760  0.18650  Biso   1.000  C
  O21      1.0000 0.25950  0.63200  0.23340  Biso   1.000  O
  O22      1.0000 0.19350  0.69703  0.16507  Biso   1.000  O
  C34      1.0000 0.65620  0.06400  0.60450  Biso   1.000  C
  H12      1.0000 0.63970  0.10960  0.58760  Biso   1.000  H
  C35      1.0000 0.70060  0.06580  0.65580  Biso   1.000  C
  C36      1.0000 0.71950  0.13760  0.68650  Biso   1.000  C
  O23      1.0000 0.75950  0.13200  0.73340  Biso   1.000  O
  O24      1.0000 0.69350  0.19703  0.66507  Biso   1.000  O
  C37      1.0000 0.43600  0.15620  0.10450  Biso   1.000  C
  H13      1.0000 0.39040  0.13970  0.08760  Biso   1.000  H
  C38      1.0000 0.43420  0.20060  0.15580  Biso   1.000  C
  C39      1.0000 0.36240  0.21950  0.18650  Biso   1.000  C
  O25      1.0000 0.36800  0.25950  0.23340  Biso   1.000  O
  O26      1.0000 0.30297  0.19350  0.16507  Biso   1.000  O
  C40      1.0000 0.93600  0.65620  0.60450  Biso   1.000  C
  H14      1.0000 0.89040  0.63970  0.58760  Biso   1.000  H
  C41      1.0000 0.93420  0.70060  0.65580  Biso   1.000  C
  C42      1.0000 0.86240  0.71950  0.68650  Biso   1.000  C
  O27      1.0000 0.86800  0.75950  0.73340  Biso   1.000  O
  O28      1.0000 0.80297  0.69350  0.66507  Biso   1.000  O
  C43      1.0000 0.56400  0.84380  0.10450  Biso   1.000  C
  H15      1.0000 0.60960  0.86030  0.08760  Biso   1.000  H
  C44      1.0000 0.56580  0.79940  0.15580  Biso   1.000  C
  C45      1.0000 0.63760  0.78050  0.18650  Biso   1.000  C
  O29      1.0000 0.63200  0.74050  0.23340  Biso   1.000  O
  O30      1.0000 0.69703  0.80650  0.16507  Biso   1.000  O
  C46      1.0000 0.06400  0.34380  0.60450  Biso   1.000  C
  H16      1.0000 0.10960  0.36030  0.58760  Biso   1.000  H
  C47      1.0000 0.06580  0.29940  0.65580  Biso   1.000  C
  C48      1.0000 0.13760  0.28050  0.68650  Biso   1.000  C
  O31      1.0000 0.13200  0.24050  0.73340  Biso   1.000  O
  O32      1.0000 0.19703  0.30650  0.66507  Biso   1.000  O
  C49      1.0000 0.84380  0.56400  0.10450  Biso   1.000  C
  H17      1.0000 0.86030  0.60960  0.08760  Biso   1.000  H
  C50      1.0000 0.79940  0.56580  0.15580  Biso   1.000  C
  C51      1.0000 0.78050  0.63760  0.18650  Biso   1.000  C
  O33      1.0000 0.74050  0.63200  0.23340  Biso   1.000  O
  O34      1.0000 0.80650  0.69703  0.16507  Biso   1.000  O
  C52      1.0000 0.34380  0.06400  0.60450  Biso   1.000  C
  H18      1.0000 0.36030  0.10960  0.58760  Biso   1.000  H
  C53      1.0000 0.29940  0.06580  0.65580  Biso   1.000  C
  C54      1.0000 0.28050  0.13760  0.68650  Biso   1.000  C
  O35      1.0000 0.24050  0.13200  0.73340  Biso   1.000  O
  O36      1.0000 0.30650  0.19703  0.66507  Biso   1.000  O
  C55      1.0000 0.15620  0.43600  0.10450  Biso   1.000  C
  H19      1.0000 0.13970  0.39040  0.08760  Biso   1.000  H
  C56      1.0000 0.20060  0.43420  0.15580  Biso   1.000  C
  C57      1.0000 0.21950  0.36240  0.18650  Biso   1.000  C
  O37      1.0000 0.25950  0.36800  0.23340  Biso   1.000  O
  O38      1.0000 0.19350  0.30297  0.16507  Biso   1.000  O
  C58      1.0000 0.65620  0.93600  0.60450  Biso   1.000  C
  H20      1.0000 0.63970  0.89040  0.58760  Biso   1.000  H
  C59      1.0000 0.70060  0.93420  0.65580  Biso   1.000  C
  C60      1.0000 0.71950  0.86240  0.68650  Biso   1.000  C
  O39      1.0000 0.75950  0.86800  0.73340  Biso   1.000  O
  O40      1.0000 0.69350  0.80297  0.66507  Biso   1.000  O
  C61      1.0000 0.43600  0.84380  0.10450  Biso   1.000  C
  H21      1.0000 0.39040  0.86030  0.08760  Biso   1.000  H
  C62      1.0000 0.43420  0.79940  0.15580  Biso   1.000  C
  C63      1.0000 0.36240  0.78050  0.18650  Biso   1.000  C
  O41      1.0000 0.36800  0.74050  0.23340  Biso   1.000  O
  O42      1.0000 0.30297  0.80650  0.16507  Biso   1.000  O
  C64      1.0000 0.93600  0.34380  0.60450  Biso   1.000  C
  H22      1.0000 0.89040  0.36030  0.58760  Biso   1.000  H
  C65      1.0000 0.93420  0.29940  0.65580  Biso   1.000  C
  C66      1.0000 0.86240  0.28050  0.68650  Biso   1.000  C
  O43      1.0000 0.86800  0.24050  0.73340  Biso   1.000  O
  O44      1.0000 0.80297  0.30650  0.66507  Biso   1.000  O
  C67      1.0000 0.56400  0.15620  0.10450  Biso   1.000  C
  H23      1.0000 0.60960  0.13970  0.08760  Biso   1.000  H
  C68      1.0000 0.56580  0.20060  0.15580  Biso   1.000  C
  C69      1.0000 0.63760  0.21950  0.18650  Biso   1.000  C
  O45      1.0000 0.63200  0.25950  0.23340  Biso   1.000  O
  O46      1.0000 0.69703  0.19350  0.16507  Biso   1.000  O
  C70      1.0000 0.06400  0.65620  0.60450  Biso   1.000  C
  H24      1.0000 0.10960  0.63970  0.58760  Biso   1.000  H
  C71      1.0000 0.06580  0.70060  0.65580  Biso   1.000  C
  C72      1.0000 0.13760  0.71950  0.68650  Biso   1.000  C
  O47      1.0000 0.13200  0.75950  0.73340  Biso   1.000  O
  O48      1.0000 0.19703  0.69350  0.66507  Biso   1.000  O
  C73      1.0000 0.15620  0.56400  0.89550  Biso   1.000  C
  H25      1.0000 0.13970  0.60960  0.91240  Biso   1.000  H
  C74      1.0000 0.20060  0.56580  0.84420  Biso   1.000  C
  C75      1.0000 0.21950  0.63760  0.81350  Biso   1.000  C
  O49      1.0000 0.25950  0.63200  0.76660  Biso   1.000  O
  O50      1.0000 0.19350  0.69703  0.83493  Biso   1.000  O
  C76      1.0000 0.65620  0.06400  0.39550  Biso   1.000  C
  H26      1.0000 0.63970  0.10960  0.41240  Biso   1.000  H
  C77      1.0000 0.70060  0.06580  0.34420  Biso   1.000  C
  C78      1.0000 0.71950  0.13760  0.31350  Biso   1.000  C
  O51      1.0000 0.75950  0.13200  0.26660  Biso   1.000  O
  O52      1.0000 0.69350  0.19703  0.33493  Biso   1.000  O
  C79      1.0000 0.84380  0.43600  0.89550  Biso   1.000  C
  H27      1.0000 0.86030  0.39040  0.91240  Biso   1.000  H
  C80      1.0000 0.79940  0.43420  0.84420  Biso   1.000  C
  C81      1.0000 0.78050  0.36240  0.81350  Biso   1.000  C
  O53      1.0000 0.74050  0.36800  0.76660  Biso   1.000  O
  O54      1.0000 0.80650  0.30297  0.83493  Biso   1.000  O
  C82      1.0000 0.34380  0.93600  0.39550  Biso   1.000  C
  H28      1.0000 0.36030  0.89040  0.41240  Biso   1.000  H
  C83      1.0000 0.29940  0.93420  0.34420  Biso   1.000  C
  C84      1.0000 0.28050  0.86240  0.31350  Biso   1.000  C
  O55      1.0000 0.24050  0.86800  0.26660  Biso   1.000  O
  O56      1.0000 0.30650  0.80297  0.33493  Biso   1.000  O
  C85      1.0000 0.56400  0.84380  0.89550  Biso   1.000  C
  H29      1.0000 0.60960  0.86030  0.91240  Biso   1.000  H
  C86      1.0000 0.56580  0.79940  0.84420  Biso   1.000  C
  C87      1.0000 0.63760  0.78050  0.81350  Biso   1.000  C
  O57      1.0000 0.63200  0.74050  0.76660  Biso   1.000  O
  O58      1.0000 0.69703  0.80650  0.83493  Biso   1.000  O
  C88      1.0000 0.06400  0.34380  0.39550  Biso   1.000  C
  H30      1.0000 0.10960  0.36030  0.41240  Biso   1.000  H
  C89      1.0000 0.06580  0.29940  0.34420  Biso   1.000  C
  C90      1.0000 0.13760  0.28050  0.31350  Biso   1.000  C
  O59      1.0000 0.13200  0.24050  0.26660  Biso   1.000  O
  O60      1.0000 0.19703  0.30650  0.33493  Biso   1.000  O
  C91      1.0000 0.43600  0.15620  0.89550  Biso   1.000  C
  H31      1.0000 0.39040  0.13970  0.91240  Biso   1.000  H
  C92      1.0000 0.43420  0.20060  0.84420  Biso   1.000  C
  C93      1.0000 0.36240  0.21950  0.81350  Biso   1.000  C
  O61      1.0000 0.36800  0.25950  0.76660  Biso   1.000  O
  O62      1.0000 0.30297  0.19350  0.83493  Biso   1.000  O
  C94      1.0000 0.93600  0.65620  0.39550  Biso   1.000  C
  H32      1.0000 0.89040  0.63970  0.41240  Biso   1.000  H
  C95      1.0000 0.93420  0.70060  0.34420  Biso   1.000  C
  C96      1.0000 0.86240  0.71950  0.31350  Biso   1.000  C
  O63      1.0000 0.86800  0.75950  0.26660  Biso   1.000  O
  O64      1.0000 0.80297  0.69350  0.33493  Biso   1.000  O
  C97      1.0000 0.22320  0.50000  0.81900  Biso   1.000  C
  H33      1.0000 0.25420  0.50000  0.78430  Biso   1.000  H
  N1       1.0000 0.13570  0.50000  0.92190  Biso   1.000  N
  C98      1.0000 0.72320  0.00000  0.31900  Biso   1.000  C
  H34      1.0000 0.75420  0.00000  0.28430  Biso   1.000  H
  N2       1.0000 0.63570  0.00000  0.42190  Biso   1.000  N
  C99      1.0000 0.77680  0.50000  0.81900  Biso   1.000  C
  H35      1.0000 0.74580  0.50000  0.78430  Biso   1.000  H
  N3       1.0000 0.86430  0.50000  0.92190  Biso   1.000  N
  C100     1.0000 0.27680  0.00000  0.31900  Biso   1.000  C
  H36      1.0000 0.24580  0.00000  0.28430  Biso   1.000  H
  N4       1.0000 0.36430  0.00000  0.42190  Biso   1.000  N
  C101     1.0000 0.50000  0.22320  0.81900  Biso   1.000  C
  H37      1.0000 0.50000  0.25420  0.78430  Biso   1.000  H
  N5       1.0000 0.50000  0.13570  0.92190  Biso   1.000  N
  C102     1.0000 0.00000  0.72320  0.31900  Biso   1.000  C
  H38      1.0000 0.00000  0.75420  0.28430  Biso   1.000  H
  N6       1.0000 0.00000  0.63570  0.42190  Biso   1.000  N
  C103     1.0000 0.50000  0.77680  0.81900  Biso   1.000  C
  H39      1.0000 0.50000  0.74580  0.78430  Biso   1.000  H
  N7       1.0000 0.50000  0.86430  0.92190  Biso   1.000  N
  C104     1.0000 0.00000  0.27680  0.31900  Biso   1.000  C
  H40      1.0000 0.00000  0.24580  0.28430  Biso   1.000  H
  N8       1.0000 0.00000  0.36430  0.42190  Biso   1.000  N
  C105     1.0000 0.77680  0.50000  0.18100  Biso   1.000  C
  H41      1.0000 0.74580  0.50000  0.21570  Biso   1.000  H
  N9       1.0000 0.86430  0.50000  0.07810  Biso   1.000  N
  C106     1.0000 0.27680  0.00000  0.68100  Biso   1.000  C
  H42      1.0000 0.24580  0.00000  0.71570  Biso   1.000  H
  N10      1.0000 0.36430  0.00000  0.57810  Biso   1.000  N
  C107     1.0000 0.22320  0.50000  0.18100  Biso   1.000  C
  H43      1.0000 0.25420  0.50000  0.21570  Biso   1.000  H
  N11      1.0000 0.13570  0.50000  0.07810  Biso   1.000  N
  C108     1.0000 0.72320  0.00000  0.68100  Biso   1.000  C
  H44      1.0000 0.75420  0.00000  0.71570  Biso   1.000  H
  N12      1.0000 0.63570  0.00000  0.57810  Biso   1.000  N
  C109     1.0000 0.50000  0.22320  0.18100  Biso   1.000  C
  H45      1.0000 0.50000  0.25420  0.21570  Biso   1.000  H
  N13      1.0000 0.50000  0.13570  0.07810  Biso   1.000  N
  C110     1.0000 0.00000  0.72320  0.68100  Biso   1.000  C
  H46      1.0000 0.00000  0.75420  0.71570  Biso   1.000  H
  N14      1.0000 0.00000  0.63570  0.57810  Biso   1.000  N
  C111     1.0000 0.50000  0.77680  0.18100  Biso   1.000  C
  H47      1.0000 0.50000  0.74580  0.21570  Biso   1.000  H
  N15      1.0000 0.50000  0.86430  0.07810  Biso   1.000  N
  C112     1.0000 0.00000  0.27680  0.68100  Biso   1.000  C
  H48      1.0000 0.00000  0.24580  0.71570  Biso   1.000  H
  N16      1.0000 0.00000  0.36430  0.57810  Biso   1.000  N
  Cu1      1.0000 0.28957  0.28957  0.71055  Biso   1.000  Cu
  Cu2      1.0000 0.78957  0.78957  0.21055  Biso   1.000  Cu
  Cu3      1.0000 0.71043  0.71043  0.71055  Biso   1.000  Cu
  Cu4      1.0000 0.21043  0.21043  0.21055  Biso   1.000  Cu
  Cu5      1.0000 0.71043  0.28957  0.71055  Biso   1.000  Cu
  Cu6      1.0000 0.21043  0.78957  0.21055  Biso   1.000  Cu
  Cu7      1.0000 0.28957  0.71043  0.71055  Biso   1.000  Cu
  Cu8      1.0000 0.78957  0.21043  0.21055  Biso   1.000  Cu
  Cu9      1.0000 0.71043  0.28957  0.28945  Biso   1.000  Cu
  Cu10     1.0000 0.21043  0.78957  0.78945  Biso   1.000  Cu
  Cu11     1.0000 0.28957  0.71043  0.28945  Biso   1.000  Cu
  Cu12     1.0000 0.78957  0.21043  0.78945  Biso   1.000  Cu
  Cu13     1.0000 0.28957  0.28957  0.28945  Biso   1.000  Cu
  Cu14     1.0000 0.78957  0.78957  0.78945  Biso   1.000  Cu
  Cu15     1.0000 0.71043  0.71043  0.28945  Biso   1.000  Cu
  Cu16     1.0000 0.21043  0.21043  0.78945  Biso   1.000  Cu
  Cu17     1.0000 0.07404  0.50000  0.00000  Biso   1.000  Cu
  Cu18     1.0000 0.57404  0.00000  0.50000  Biso   1.000  Cu
  Cu19     1.0000 0.92596  0.50000  0.00000  Biso   1.000  Cu
  Cu20     1.0000 0.42596  0.00000  0.50000  Biso   1.000  Cu
  Cu21     1.0000 0.50000  0.07404  0.00000  Biso   1.000  Cu
  Cu22     1.0000 0.00000  0.57404  0.50000  Biso   1.000  Cu
  Cu23     1.0000 0.50000  0.92596  0.00000  Biso   1.000  Cu
  Cu24     1.0000 0.00000  0.42596  0.50000  Biso   1.000  Cu
  I1       1.0000 0.00000  0.37304  0.00000  Biso   1.000  I
  I2       1.0000 0.50000  0.87304  0.50000  Biso   1.000  I
  I3       1.0000 0.00000  0.62696  0.00000  Biso   1.000  I
  I4       1.0000 0.50000  0.12696  0.50000  Biso   1.000  I
  I5       1.0000 0.62696  0.00000  0.00000  Biso   1.000  I
  I6       1.0000 0.12696  0.50000  0.50000  Biso   1.000  I
  I7       1.0000 0.37304  0.00000  0.00000  Biso   1.000  I
  I8       1.0000 0.87304  0.50000  0.50000  Biso   1.000  I
