data_image0
_cell_length_a       22.0023
_cell_length_b       19.2411
_cell_length_c       8.7311
_cell_angle_alpha    90
_cell_angle_beta     90
_cell_angle_gamma    90

_symmetry_space_group_name_H-M    "P 1"
_symmetry_int_tables_number       1

loop_
  _symmetry_equiv_pos_as_xyz
  'x, y, z'

loop_
  _atom_site_label
  _atom_site_occupancy
  _atom_site_fract_x
  _atom_site_fract_y
  _atom_site_fract_z
  _atom_site_thermal_displace_type
  _atom_site_B_iso_or_equiv
  _atom_site_type_symbol
  C1       1.0000 0.49876  0.15272  0.44330  Biso   1.000  C
  C2       1.0000 0.50143  0.18324  0.55690  Biso   1.000  C
  N1       1.0000 0.42703  0.03284  0.25144  Biso   1.000  N
  C3       1.0000 0.43098  0.96854  0.19230  Biso   1.000  C
  H1       1.0000 0.46460  0.95710  0.12870  Biso   1.000  H
  N2       1.0000 0.33752  0.93208  0.30420  Biso   1.000  N
  C4       1.0000 0.38711  0.91856  0.22180  Biso   1.000  C
  H2       1.0000 0.39260  0.87310  0.18190  Biso   1.000  H
  N3       1.0000 0.26330  0.07958  0.47430  Biso   1.000  N
  C5       1.0000 0.33201  0.99730  0.35780  Biso   1.000  C
  N4       1.0000 0.14546  0.18341  0.64670  Biso   1.000  N
  C6       1.0000 0.37680  0.04718  0.33300  Biso   1.000  C
  H3       1.0000 0.37170  0.09240  0.37480  Biso   1.000  H
  N5       1.0000 0.21585  0.28698  0.50920  Biso   1.000  N
  C7       1.0000 0.27621  0.01249  0.44800  Biso   1.000  C
  N6       1.0000 0.06905  0.80587  0.71530  Biso   1.000  N
  C8       1.0000 0.24036  0.95753  0.49910  Biso   1.000  C
  H4       1.0000 0.25130  0.91090  0.47660  Biso   1.000  H
  C9       1.0000 0.18815  0.97217  0.58370  Biso   1.000  C
  C10      1.0000 0.14736  0.91495  0.63180  Biso   1.000  C
  C11      1.0000 0.14333  0.85415  0.54480  Biso   1.000  C
  H5       1.0000 0.16750  0.84860  0.45550  Biso   1.000  H
  C12      1.0000 0.10385  0.80207  0.58950  Biso   1.000  C
  H6       1.0000 0.10120  0.76150  0.52790  Biso   1.000  H
  C13      1.0000 0.07327  0.86398  0.79910  Biso   1.000  C
  H7       1.0000 0.04910  0.86750  0.88900  Biso   1.000  H
  C14      1.0000 0.11101  0.91933  0.76180  Biso   1.000  C
  H8       1.0000 0.11200  0.95970  0.82430  Biso   1.000  H
  C15      1.0000 0.17503  0.04179  0.61470  Biso   1.000  C
  H9       1.0000 0.14070  0.05390  0.67500  Biso   1.000  H
  C16      1.0000 0.21321  0.09354  0.55580  Biso   1.000  C
  C17      1.0000 0.19675  0.16796  0.57190  Biso   1.000  C
  C18      1.0000 0.12936  0.25069  0.65080  Biso   1.000  C
  H10      1.0000 0.09320  0.26370  0.70290  Biso   1.000  H
  C19      1.0000 0.16401  0.30156  0.58130  Biso   1.000  C
  H11      1.0000 0.15050  0.34840  0.58500  Biso   1.000  H
  C20      1.0000 0.23185  0.21995  0.50490  Biso   1.000  C
  H12      1.0000 0.26850  0.20740  0.45440  Biso   1.000  H
  N7       1.0000 0.50124  0.15272  0.05670  Biso   1.000  N
  C21      1.0000 0.49857  0.18324  0.94310  Biso   1.000  C
  N8       1.0000 0.57297  0.03284  0.24856  Biso   1.000  N
  C22      1.0000 0.56902  0.96854  0.30770  Biso   1.000  C
  H13      1.0000 0.53540  0.95710  0.37130  Biso   1.000  H
  N9       1.0000 0.66248  0.93208  0.19580  Biso   1.000  N
  C23      1.0000 0.61289  0.91856  0.27820  Biso   1.000  C
  H14      1.0000 0.60740  0.87310  0.31810  Biso   1.000  H
  N10      1.0000 0.73670  0.07958  0.02570  Biso   1.000  N
  C24      1.0000 0.66799  0.99730  0.14220  Biso   1.000  C
  N11      1.0000 0.85454  0.18341  0.85330  Biso   1.000  N
  C25      1.0000 0.62320  0.04718  0.16700  Biso   1.000  C
  H15      1.0000 0.62830  0.09240  0.12520  Biso   1.000  H
  N12      1.0000 0.78415  0.28698  0.99080  Biso   1.000  N
  C26      1.0000 0.72379  0.01249  0.05200  Biso   1.000  C
  N13      1.0000 0.93095  0.80587  0.78470  Biso   1.000  N
  C27      1.0000 0.75964  0.95753  0.00090  Biso   1.000  C
  H16      1.0000 0.74870  0.91090  0.02340  Biso   1.000  H
  C28      1.0000 0.81185  0.97217  0.91630  Biso   1.000  C
  C29      1.0000 0.85264  0.91495  0.86820  Biso   1.000  C
  C30      1.0000 0.85667  0.85415  0.95520  Biso   1.000  C
  H17      1.0000 0.83250  0.84860  0.04450  Biso   1.000  H
  C31      1.0000 0.89615  0.80207  0.91050  Biso   1.000  C
  H18      1.0000 0.89880  0.76150  0.97210  Biso   1.000  H
  C32      1.0000 0.92673  0.86398  0.70090  Biso   1.000  C
  H19      1.0000 0.95090  0.86750  0.61100  Biso   1.000  H
  C33      1.0000 0.88899  0.91933  0.73820  Biso   1.000  C
  H20      1.0000 0.88800  0.95970  0.67570  Biso   1.000  H
  C34      1.0000 0.82497  0.04179  0.88530  Biso   1.000  C
  H21      1.0000 0.85930  0.05390  0.82500  Biso   1.000  H
  C35      1.0000 0.78679  0.09354  0.94420  Biso   1.000  C
  C36      1.0000 0.80325  0.16796  0.92810  Biso   1.000  C
  C37      1.0000 0.87064  0.25069  0.84920  Biso   1.000  C
  H22      1.0000 0.90680  0.26370  0.79710  Biso   1.000  H
  C38      1.0000 0.83599  0.30156  0.91870  Biso   1.000  C
  H23      1.0000 0.84950  0.34840  0.91500  Biso   1.000  H
  C39      1.0000 0.76815  0.21995  0.99510  Biso   1.000  C
  H24      1.0000 0.73150  0.20740  0.04560  Biso   1.000  H
  C40      1.0000 0.99876  0.65272  0.05670  Biso   1.000  C
  C41      1.0000 0.00143  0.68324  0.94310  Biso   1.000  C
  N14      1.0000 0.92703  0.53284  0.24856  Biso   1.000  N
  C42      1.0000 0.93098  0.46854  0.30770  Biso   1.000  C
  H25      1.0000 0.96460  0.45710  0.37130  Biso   1.000  H
  N15      1.0000 0.83752  0.43208  0.19580  Biso   1.000  N
  C43      1.0000 0.88711  0.41856  0.27820  Biso   1.000  C
  H26      1.0000 0.89260  0.37310  0.31810  Biso   1.000  H
  N16      1.0000 0.76330  0.57958  0.02570  Biso   1.000  N
  C44      1.0000 0.83201  0.49730  0.14220  Biso   1.000  C
  N17      1.0000 0.64546  0.68341  0.85330  Biso   1.000  N
  C45      1.0000 0.87680  0.54718  0.16700  Biso   1.000  C
  H27      1.0000 0.87170  0.59240  0.12520  Biso   1.000  H
  N18      1.0000 0.71585  0.78698  0.99080  Biso   1.000  N
  C46      1.0000 0.77621  0.51249  0.05200  Biso   1.000  C
  N19      1.0000 0.56905  0.30587  0.78470  Biso   1.000  N
  C47      1.0000 0.74036  0.45753  0.00090  Biso   1.000  C
  H28      1.0000 0.75130  0.41090  0.02340  Biso   1.000  H
  C48      1.0000 0.68815  0.47217  0.91630  Biso   1.000  C
  C49      1.0000 0.64736  0.41495  0.86820  Biso   1.000  C
  C50      1.0000 0.64333  0.35415  0.95520  Biso   1.000  C
  H29      1.0000 0.66750  0.34860  0.04450  Biso   1.000  H
  C51      1.0000 0.60385  0.30207  0.91050  Biso   1.000  C
  H30      1.0000 0.60120  0.26150  0.97210  Biso   1.000  H
  C52      1.0000 0.57327  0.36398  0.70090  Biso   1.000  C
  H31      1.0000 0.54910  0.36750  0.61100  Biso   1.000  H
  C53      1.0000 0.61101  0.41933  0.73820  Biso   1.000  C
  H32      1.0000 0.61200  0.45970  0.67570  Biso   1.000  H
  C54      1.0000 0.67503  0.54179  0.88530  Biso   1.000  C
  H33      1.0000 0.64070  0.55390  0.82500  Biso   1.000  H
  C55      1.0000 0.71321  0.59354  0.94420  Biso   1.000  C
  C56      1.0000 0.69675  0.66796  0.92810  Biso   1.000  C
  C57      1.0000 0.62936  0.75069  0.84920  Biso   1.000  C
  H34      1.0000 0.59320  0.76370  0.79710  Biso   1.000  H
  C58      1.0000 0.66401  0.80156  0.91870  Biso   1.000  C
  H35      1.0000 0.65050  0.84840  0.91500  Biso   1.000  H
  C59      1.0000 0.73185  0.71995  0.99510  Biso   1.000  C
  H36      1.0000 0.76850  0.70740  0.04560  Biso   1.000  H
  N20      1.0000 0.00124  0.65272  0.44330  Biso   1.000  N
  C60      1.0000 0.99857  0.68324  0.55690  Biso   1.000  C
  N21      1.0000 0.07297  0.53284  0.25144  Biso   1.000  N
  C61      1.0000 0.06902  0.46854  0.19230  Biso   1.000  C
  H37      1.0000 0.03540  0.45710  0.12870  Biso   1.000  H
  N22      1.0000 0.16248  0.43208  0.30420  Biso   1.000  N
  C62      1.0000 0.11289  0.41856  0.22180  Biso   1.000  C
  H38      1.0000 0.10740  0.37310  0.18190  Biso   1.000  H
  N23      1.0000 0.23670  0.57958  0.47430  Biso   1.000  N
  C63      1.0000 0.16799  0.49730  0.35780  Biso   1.000  C
  N24      1.0000 0.35454  0.68341  0.64670  Biso   1.000  N
  C64      1.0000 0.12320  0.54718  0.33300  Biso   1.000  C
  H39      1.0000 0.12830  0.59240  0.37480  Biso   1.000  H
  N25      1.0000 0.28415  0.78698  0.50920  Biso   1.000  N
  C65      1.0000 0.22379  0.51249  0.44800  Biso   1.000  C
  N26      1.0000 0.43095  0.30587  0.71530  Biso   1.000  N
  C66      1.0000 0.25964  0.45753  0.49910  Biso   1.000  C
  H40      1.0000 0.24870  0.41090  0.47660  Biso   1.000  H
  C67      1.0000 0.31185  0.47217  0.58370  Biso   1.000  C
  C68      1.0000 0.35264  0.41495  0.63180  Biso   1.000  C
  C69      1.0000 0.35667  0.35415  0.54480  Biso   1.000  C
  H41      1.0000 0.33250  0.34860  0.45550  Biso   1.000  H
  C70      1.0000 0.39615  0.30207  0.58950  Biso   1.000  C
  H42      1.0000 0.39880  0.26150  0.52790  Biso   1.000  H
  C71      1.0000 0.42673  0.36398  0.79910  Biso   1.000  C
  H43      1.0000 0.45090  0.36750  0.88900  Biso   1.000  H
  C72      1.0000 0.38899  0.41933  0.76180  Biso   1.000  C
  H44      1.0000 0.38800  0.45970  0.82430  Biso   1.000  H
  C73      1.0000 0.32497  0.54179  0.61470  Biso   1.000  C
  H45      1.0000 0.35930  0.55390  0.67500  Biso   1.000  H
  C74      1.0000 0.28679  0.59354  0.55580  Biso   1.000  C
  C75      1.0000 0.30325  0.66796  0.57190  Biso   1.000  C
  C76      1.0000 0.37064  0.75069  0.65080  Biso   1.000  C
  H46      1.0000 0.40680  0.76370  0.70290  Biso   1.000  H
  C77      1.0000 0.33599  0.80156  0.58130  Biso   1.000  C
  H47      1.0000 0.34950  0.84840  0.58500  Biso   1.000  H
  C78      1.0000 0.26815  0.71995  0.50490  Biso   1.000  C
  H48      1.0000 0.23150  0.70740  0.45440  Biso   1.000  H
  Cu1      1.0000 0.50000  0.10498  0.25000  Biso   1.000  Cu
  Cu2      1.0000 0.00000  0.60498  0.25000  Biso   1.000  Cu
  Cu3      1.0000 0.50000  0.23146  0.75000  Biso   1.000  Cu
  Cu4      1.0000 0.00000  0.73146  0.75000  Biso   1.000  Cu
  C79      1.0000 0.00124  0.34728  0.94330  Biso   1.000  C
  C80      1.0000 0.99857  0.31676  0.05690  Biso   1.000  C
  N27      1.0000 0.07297  0.46716  0.75144  Biso   1.000  N
  C81      1.0000 0.06902  0.53146  0.69230  Biso   1.000  C
  H49      1.0000 0.03540  0.54290  0.62870  Biso   1.000  H
  N28      1.0000 0.16248  0.56792  0.80420  Biso   1.000  N
  C82      1.0000 0.11289  0.58144  0.72180  Biso   1.000  C
  H50      1.0000 0.10740  0.62690  0.68190  Biso   1.000  H
  N29      1.0000 0.23670  0.42042  0.97430  Biso   1.000  N
  C83      1.0000 0.16799  0.50270  0.85780  Biso   1.000  C
  N30      1.0000 0.35454  0.31659  0.14670  Biso   1.000  N
  C84      1.0000 0.12320  0.45282  0.83300  Biso   1.000  C
  H51      1.0000 0.12830  0.40760  0.87480  Biso   1.000  H
  N31      1.0000 0.28415  0.21302  0.00920  Biso   1.000  N
  C85      1.0000 0.22379  0.48751  0.94800  Biso   1.000  C
  N32      1.0000 0.43095  0.69413  0.21530  Biso   1.000  N
  C86      1.0000 0.25964  0.54247  0.99910  Biso   1.000  C
  H52      1.0000 0.24870  0.58910  0.97660  Biso   1.000  H
  C87      1.0000 0.31185  0.52783  0.08370  Biso   1.000  C
  C88      1.0000 0.35264  0.58505  0.13180  Biso   1.000  C
  C89      1.0000 0.35667  0.64585  0.04480  Biso   1.000  C
  H53      1.0000 0.33250  0.65140  0.95550  Biso   1.000  H
  C90      1.0000 0.39615  0.69793  0.08950  Biso   1.000  C
  H54      1.0000 0.39880  0.73850  0.02790  Biso   1.000  H
  C91      1.0000 0.42673  0.63602  0.29910  Biso   1.000  C
  H55      1.0000 0.45090  0.63250  0.38900  Biso   1.000  H
  C92      1.0000 0.38899  0.58067  0.26180  Biso   1.000  C
  H56      1.0000 0.38800  0.54030  0.32430  Biso   1.000  H
  C93      1.0000 0.32497  0.45821  0.11470  Biso   1.000  C
  H57      1.0000 0.35930  0.44610  0.17500  Biso   1.000  H
  C94      1.0000 0.28679  0.40646  0.05580  Biso   1.000  C
  C95      1.0000 0.30325  0.33204  0.07190  Biso   1.000  C
  C96      1.0000 0.37064  0.24931  0.15080  Biso   1.000  C
  H58      1.0000 0.40680  0.23630  0.20290  Biso   1.000  H
  C97      1.0000 0.33599  0.19844  0.08130  Biso   1.000  C
  H59      1.0000 0.34950  0.15160  0.08500  Biso   1.000  H
  C98      1.0000 0.26815  0.28005  0.00490  Biso   1.000  C
  H60      1.0000 0.23150  0.29260  0.95440  Biso   1.000  H
  N33      1.0000 0.99876  0.34728  0.55670  Biso   1.000  N
  C99      1.0000 0.00143  0.31676  0.44310  Biso   1.000  C
  N34      1.0000 0.92703  0.46716  0.74856  Biso   1.000  N
  C100     1.0000 0.93098  0.53146  0.80770  Biso   1.000  C
  H61      1.0000 0.96460  0.54290  0.87130  Biso   1.000  H
  N35      1.0000 0.83752  0.56792  0.69580  Biso   1.000  N
  C101     1.0000 0.88711  0.58144  0.77820  Biso   1.000  C
  H62      1.0000 0.89260  0.62690  0.81810  Biso   1.000  H
  N36      1.0000 0.76330  0.42042  0.52570  Biso   1.000  N
  C102     1.0000 0.83201  0.50270  0.64220  Biso   1.000  C
  N37      1.0000 0.64546  0.31659  0.35330  Biso   1.000  N
  C103     1.0000 0.87680  0.45282  0.66700  Biso   1.000  C
  H63      1.0000 0.87170  0.40760  0.62520  Biso   1.000  H
  N38      1.0000 0.71585  0.21302  0.49080  Biso   1.000  N
  C104     1.0000 0.77621  0.48751  0.55200  Biso   1.000  C
  N39      1.0000 0.56905  0.69413  0.28470  Biso   1.000  N
  C105     1.0000 0.74036  0.54247  0.50090  Biso   1.000  C
  H64      1.0000 0.75130  0.58910  0.52340  Biso   1.000  H
  C106     1.0000 0.68815  0.52783  0.41630  Biso   1.000  C
  C107     1.0000 0.64736  0.58505  0.36820  Biso   1.000  C
  C108     1.0000 0.64333  0.64585  0.45520  Biso   1.000  C
  H65      1.0000 0.66750  0.65140  0.54450  Biso   1.000  H
  C109     1.0000 0.60385  0.69793  0.41050  Biso   1.000  C
  H66      1.0000 0.60120  0.73850  0.47210  Biso   1.000  H
  C110     1.0000 0.57327  0.63602  0.20090  Biso   1.000  C
  H67      1.0000 0.54910  0.63250  0.11100  Biso   1.000  H
  C111     1.0000 0.61101  0.58067  0.23820  Biso   1.000  C
  H68      1.0000 0.61200  0.54030  0.17570  Biso   1.000  H
  C112     1.0000 0.67503  0.45821  0.38530  Biso   1.000  C
  H69      1.0000 0.64070  0.44610  0.32500  Biso   1.000  H
  C113     1.0000 0.71321  0.40646  0.44420  Biso   1.000  C
  C114     1.0000 0.69675  0.33204  0.42810  Biso   1.000  C
  C115     1.0000 0.62936  0.24931  0.34920  Biso   1.000  C
  H70      1.0000 0.59320  0.23630  0.29710  Biso   1.000  H
  C116     1.0000 0.66401  0.19844  0.41870  Biso   1.000  C
  H71      1.0000 0.65050  0.15160  0.41500  Biso   1.000  H
  C117     1.0000 0.73185  0.28005  0.49510  Biso   1.000  C
  H72      1.0000 0.76850  0.29260  0.54560  Biso   1.000  H
  C118     1.0000 0.50124  0.84728  0.55670  Biso   1.000  C
  C119     1.0000 0.49857  0.81676  0.44310  Biso   1.000  C
  N40      1.0000 0.57297  0.96716  0.74856  Biso   1.000  N
  C120     1.0000 0.56902  0.03146  0.80770  Biso   1.000  C
  H73      1.0000 0.53540  0.04290  0.87130  Biso   1.000  H
  N41      1.0000 0.66248  0.06792  0.69580  Biso   1.000  N
  C121     1.0000 0.61289  0.08144  0.77820  Biso   1.000  C
  H74      1.0000 0.60740  0.12690  0.81810  Biso   1.000  H
  N42      1.0000 0.73670  0.92042  0.52570  Biso   1.000  N
  C122     1.0000 0.66799  0.00270  0.64220  Biso   1.000  C
  N43      1.0000 0.85454  0.81659  0.35330  Biso   1.000  N
  C123     1.0000 0.62320  0.95282  0.66700  Biso   1.000  C
  H75      1.0000 0.62830  0.90760  0.62520  Biso   1.000  H
  N44      1.0000 0.78415  0.71302  0.49080  Biso   1.000  N
  C124     1.0000 0.72379  0.98751  0.55200  Biso   1.000  C
  N45      1.0000 0.93095  0.19413  0.28470  Biso   1.000  N
  C125     1.0000 0.75964  0.04247  0.50090  Biso   1.000  C
  H76      1.0000 0.74870  0.08910  0.52340  Biso   1.000  H
  C126     1.0000 0.81185  0.02783  0.41630  Biso   1.000  C
  C127     1.0000 0.85264  0.08505  0.36820  Biso   1.000  C
  C128     1.0000 0.85667  0.14585  0.45520  Biso   1.000  C
  H77      1.0000 0.83250  0.15140  0.54450  Biso   1.000  H
  C129     1.0000 0.89615  0.19793  0.41050  Biso   1.000  C
  H78      1.0000 0.89880  0.23850  0.47210  Biso   1.000  H
  C130     1.0000 0.92673  0.13602  0.20090  Biso   1.000  C
  H79      1.0000 0.95090  0.13250  0.11100  Biso   1.000  H
  C131     1.0000 0.88899  0.08067  0.23820  Biso   1.000  C
  H80      1.0000 0.88800  0.04030  0.17570  Biso   1.000  H
  C132     1.0000 0.82497  0.95821  0.38530  Biso   1.000  C
  H81      1.0000 0.85930  0.94610  0.32500  Biso   1.000  H
  C133     1.0000 0.78679  0.90646  0.44420  Biso   1.000  C
  C134     1.0000 0.80325  0.83204  0.42810  Biso   1.000  C
  C135     1.0000 0.87064  0.74931  0.34920  Biso   1.000  C
  H82      1.0000 0.90680  0.73630  0.29710  Biso   1.000  H
  C136     1.0000 0.83599  0.69844  0.41870  Biso   1.000  C
  H83      1.0000 0.84950  0.65160  0.41500  Biso   1.000  H
  C137     1.0000 0.76815  0.78005  0.49510  Biso   1.000  C
  H84      1.0000 0.73150  0.79260  0.54560  Biso   1.000  H
  N46      1.0000 0.49876  0.84728  0.94330  Biso   1.000  N
  C138     1.0000 0.50143  0.81676  0.05690  Biso   1.000  C
  N47      1.0000 0.42703  0.96716  0.75144  Biso   1.000  N
  C139     1.0000 0.43098  0.03146  0.69230  Biso   1.000  C
  H85      1.0000 0.46460  0.04290  0.62870  Biso   1.000  H
  N48      1.0000 0.33752  0.06792  0.80420  Biso   1.000  N
  C140     1.0000 0.38711  0.08144  0.72180  Biso   1.000  C
  H86      1.0000 0.39260  0.12690  0.68190  Biso   1.000  H
  N49      1.0000 0.26330  0.92042  0.97430  Biso   1.000  N
  C141     1.0000 0.33201  0.00270  0.85780  Biso   1.000  C
  N50      1.0000 0.14546  0.81659  0.14670  Biso   1.000  N
  C142     1.0000 0.37680  0.95282  0.83300  Biso   1.000  C
  H87      1.0000 0.37170  0.90760  0.87480  Biso   1.000  H
  N51      1.0000 0.21585  0.71302  0.00920  Biso   1.000  N
  C143     1.0000 0.27621  0.98751  0.94800  Biso   1.000  C
  N52      1.0000 0.06905  0.19413  0.21530  Biso   1.000  N
  C144     1.0000 0.24036  0.04247  0.99910  Biso   1.000  C
  H88      1.0000 0.25130  0.08910  0.97660  Biso   1.000  H
  C145     1.0000 0.18815  0.02783  0.08370  Biso   1.000  C
  C146     1.0000 0.14736  0.08505  0.13180  Biso   1.000  C
  C147     1.0000 0.14333  0.14585  0.04480  Biso   1.000  C
  H89      1.0000 0.16750  0.15140  0.95550  Biso   1.000  H
  C148     1.0000 0.10385  0.19793  0.08950  Biso   1.000  C
  H90      1.0000 0.10120  0.23850  0.02790  Biso   1.000  H
  C149     1.0000 0.07327  0.13602  0.29910  Biso   1.000  C
  H91      1.0000 0.04910  0.13250  0.38900  Biso   1.000  H
  C150     1.0000 0.11101  0.08067  0.26180  Biso   1.000  C
  H92      1.0000 0.11200  0.04030  0.32430  Biso   1.000  H
  C151     1.0000 0.17503  0.95821  0.11470  Biso   1.000  C
  H93      1.0000 0.14070  0.94610  0.17500  Biso   1.000  H
  C152     1.0000 0.21321  0.90646  0.05580  Biso   1.000  C
  C153     1.0000 0.19675  0.83204  0.07190  Biso   1.000  C
  C154     1.0000 0.12936  0.74931  0.15080  Biso   1.000  C
  H94      1.0000 0.09320  0.73630  0.20290  Biso   1.000  H
  C155     1.0000 0.16401  0.69844  0.08130  Biso   1.000  C
  H95      1.0000 0.15050  0.65160  0.08500  Biso   1.000  H
  C156     1.0000 0.23185  0.78005  0.00490  Biso   1.000  C
  H96      1.0000 0.26850  0.79260  0.95440  Biso   1.000  H
  Cu5      1.0000 0.00000  0.39502  0.75000  Biso   1.000  Cu
  Cu6      1.0000 0.50000  0.89502  0.75000  Biso   1.000  Cu
  Cu7      1.0000 0.00000  0.26854  0.25000  Biso   1.000  Cu
  Cu8      1.0000 0.50000  0.76854  0.25000  Biso   1.000  Cu
