data_image0
_cell_length_a       21.9415
_cell_length_b       19.2703
_cell_length_c       8.905
_cell_angle_alpha    90
_cell_angle_beta     90
_cell_angle_gamma    90

_symmetry_space_group_name_H-M    "P 1"
_symmetry_int_tables_number       1

loop_
  _symmetry_equiv_pos_as_xyz
  'x, y, z'

loop_
  _atom_site_label
  _atom_site_occupancy
  _atom_site_fract_x
  _atom_site_fract_y
  _atom_site_fract_z
  _atom_site_thermal_displace_type
  _atom_site_B_iso_or_equiv
  _atom_site_type_symbol
  C1       1.0000 0.49923  0.15299  0.44380  Biso   1.000  C
  C2       1.0000 0.50117  0.18082  0.55860  Biso   1.000  C
  N1       1.0000 0.42530  0.03387  0.25620  Biso   1.000  N
  C3       1.0000 0.42958  0.97045  0.19900  Biso   1.000  C
  H1       1.0000 0.46200  0.95990  0.13560  Biso   1.000  H
  N2       1.0000 0.33803  0.93186  0.31570  Biso   1.000  N
  C4       1.0000 0.38690  0.91970  0.23140  Biso   1.000  C
  H2       1.0000 0.39260  0.87540  0.19270  Biso   1.000  H
  N3       1.0000 0.26437  0.07718  0.48790  Biso   1.000  N
  C5       1.0000 0.33234  0.99665  0.36850  Biso   1.000  C
  N4       1.0000 0.14614  0.17971  0.65690  Biso   1.000  N
  C6       1.0000 0.37612  0.04615  0.33970  Biso   1.000  C
  H3       1.0000 0.37110  0.09020  0.38050  Biso   1.000  H
  N5       1.0000 0.21540  0.28290  0.52780  Biso   1.000  N
  C7       1.0000 0.27677  0.01028  0.46070  Biso   1.000  C
  N6       1.0000 0.06983  0.80337  0.72020  Biso   1.000  N
  C8       1.0000 0.24135  0.95653  0.50910  Biso   1.000  C
  H4       1.0000 0.25200  0.91110  0.48550  Biso   1.000  H
  C9       1.0000 0.18955  0.96955  0.59320  Biso   1.000  C
  C10      1.0000 0.14810  0.91197  0.63980  Biso   1.000  C
  C11      1.0000 0.14150  0.85380  0.55120  Biso   1.000  C
  H5       1.0000 0.16350  0.84970  0.46240  Biso   1.000  H
  C12      1.0000 0.10270  0.80240  0.59380  Biso   1.000  C
  H6       1.0000 0.09880  0.76410  0.53100  Biso   1.000  H
  C13      1.0000 0.07684  0.85900  0.80290  Biso   1.000  C
  H7       1.0000 0.05460  0.86160  0.89160  Biso   1.000  H
  C14      1.0000 0.11430  0.91320  0.76910  Biso   1.000  C
  H8       1.0000 0.11680  0.95100  0.83370  Biso   1.000  H
  C15      1.0000 0.17687  0.03881  0.62560  Biso   1.000  C
  H9       1.0000 0.14340  0.05020  0.68470  Biso   1.000  H
  C16      1.0000 0.21436  0.09071  0.56920  Biso   1.000  C
  C17      1.0000 0.19816  0.16507  0.58830  Biso   1.000  C
  C18      1.0000 0.13000  0.24670  0.66270  Biso   1.000  C
  H10      1.0000 0.09440  0.25900  0.71310  Biso   1.000  H
  C19      1.0000 0.16370  0.29640  0.59770  Biso   1.000  C
  H11      1.0000 0.15010  0.34200  0.60210  Biso   1.000  H
  C20      1.0000 0.23160  0.21680  0.52500  Biso   1.000  C
  H12      1.0000 0.26790  0.20500  0.47710  Biso   1.000  H
  N7       1.0000 0.50077  0.15299  0.05620  Biso   1.000  N
  C21      1.0000 0.49883  0.18082  0.94140  Biso   1.000  C
  N8       1.0000 0.57470  0.03387  0.24380  Biso   1.000  N
  C22      1.0000 0.57042  0.97045  0.30100  Biso   1.000  C
  H13      1.0000 0.53800  0.95990  0.36440  Biso   1.000  H
  N9       1.0000 0.66197  0.93186  0.18430  Biso   1.000  N
  C23      1.0000 0.61310  0.91970  0.26860  Biso   1.000  C
  H14      1.0000 0.60740  0.87540  0.30730  Biso   1.000  H
  N10      1.0000 0.73563  0.07718  0.01210  Biso   1.000  N
  C24      1.0000 0.66766  0.99665  0.13150  Biso   1.000  C
  N11      1.0000 0.85386  0.17971  0.84310  Biso   1.000  N
  C25      1.0000 0.62388  0.04615  0.16030  Biso   1.000  C
  H15      1.0000 0.62890  0.09020  0.11950  Biso   1.000  H
  N12      1.0000 0.78460  0.28290  0.97220  Biso   1.000  N
  C26      1.0000 0.72323  0.01028  0.03930  Biso   1.000  C
  N13      1.0000 0.93017  0.80337  0.77980  Biso   1.000  N
  C27      1.0000 0.75865  0.95653  0.99090  Biso   1.000  C
  H16      1.0000 0.74800  0.91110  0.01450  Biso   1.000  H
  C28      1.0000 0.81045  0.96955  0.90680  Biso   1.000  C
  C29      1.0000 0.85190  0.91197  0.86020  Biso   1.000  C
  C30      1.0000 0.85850  0.85380  0.94880  Biso   1.000  C
  H17      1.0000 0.83650  0.84970  0.03760  Biso   1.000  H
  C31      1.0000 0.89730  0.80240  0.90620  Biso   1.000  C
  H18      1.0000 0.90120  0.76410  0.96900  Biso   1.000  H
  C32      1.0000 0.92316  0.85900  0.69710  Biso   1.000  C
  H19      1.0000 0.94540  0.86160  0.60840  Biso   1.000  H
  C33      1.0000 0.88570  0.91320  0.73090  Biso   1.000  C
  H20      1.0000 0.88320  0.95100  0.66630  Biso   1.000  H
  C34      1.0000 0.82313  0.03881  0.87440  Biso   1.000  C
  H21      1.0000 0.85660  0.05020  0.81530  Biso   1.000  H
  C35      1.0000 0.78564  0.09071  0.93080  Biso   1.000  C
  C36      1.0000 0.80184  0.16507  0.91170  Biso   1.000  C
  C37      1.0000 0.87000  0.24670  0.83730  Biso   1.000  C
  H22      1.0000 0.90560  0.25900  0.78690  Biso   1.000  H
  C38      1.0000 0.83630  0.29640  0.90230  Biso   1.000  C
  H23      1.0000 0.84990  0.34200  0.89790  Biso   1.000  H
  C39      1.0000 0.76840  0.21680  0.97500  Biso   1.000  C
  H24      1.0000 0.73210  0.20500  0.02290  Biso   1.000  H
  C40      1.0000 0.99923  0.65299  0.05620  Biso   1.000  C
  C41      1.0000 0.00117  0.68082  0.94140  Biso   1.000  C
  N14      1.0000 0.92530  0.53387  0.24380  Biso   1.000  N
  C42      1.0000 0.92958  0.47045  0.30100  Biso   1.000  C
  H25      1.0000 0.96200  0.45990  0.36440  Biso   1.000  H
  N15      1.0000 0.83803  0.43186  0.18430  Biso   1.000  N
  C43      1.0000 0.88690  0.41970  0.26860  Biso   1.000  C
  H26      1.0000 0.89260  0.37540  0.30730  Biso   1.000  H
  N16      1.0000 0.76437  0.57718  0.01210  Biso   1.000  N
  C44      1.0000 0.83234  0.49665  0.13150  Biso   1.000  C
  N17      1.0000 0.64614  0.67971  0.84310  Biso   1.000  N
  C45      1.0000 0.87612  0.54615  0.16030  Biso   1.000  C
  H27      1.0000 0.87110  0.59020  0.11950  Biso   1.000  H
  N18      1.0000 0.71540  0.78290  0.97220  Biso   1.000  N
  C46      1.0000 0.77677  0.51028  0.03930  Biso   1.000  C
  N19      1.0000 0.56983  0.30337  0.77980  Biso   1.000  N
  C47      1.0000 0.74135  0.45653  0.99090  Biso   1.000  C
  H28      1.0000 0.75200  0.41110  0.01450  Biso   1.000  H
  C48      1.0000 0.68955  0.46955  0.90680  Biso   1.000  C
  C49      1.0000 0.64810  0.41197  0.86020  Biso   1.000  C
  C50      1.0000 0.64150  0.35380  0.94880  Biso   1.000  C
  H29      1.0000 0.66350  0.34970  0.03760  Biso   1.000  H
  C51      1.0000 0.60270  0.30240  0.90620  Biso   1.000  C
  H30      1.0000 0.59880  0.26410  0.96900  Biso   1.000  H
  C52      1.0000 0.57684  0.35900  0.69710  Biso   1.000  C
  H31      1.0000 0.55460  0.36160  0.60840  Biso   1.000  H
  C53      1.0000 0.61430  0.41320  0.73090  Biso   1.000  C
  H32      1.0000 0.61680  0.45100  0.66630  Biso   1.000  H
  C54      1.0000 0.67687  0.53881  0.87440  Biso   1.000  C
  H33      1.0000 0.64340  0.55020  0.81530  Biso   1.000  H
  C55      1.0000 0.71436  0.59071  0.93080  Biso   1.000  C
  C56      1.0000 0.69816  0.66507  0.91170  Biso   1.000  C
  C57      1.0000 0.63000  0.74670  0.83730  Biso   1.000  C
  H34      1.0000 0.59440  0.75900  0.78690  Biso   1.000  H
  C58      1.0000 0.66370  0.79640  0.90230  Biso   1.000  C
  H35      1.0000 0.65010  0.84200  0.89790  Biso   1.000  H
  C59      1.0000 0.73160  0.71680  0.97500  Biso   1.000  C
  H36      1.0000 0.76790  0.70500  0.02290  Biso   1.000  H
  N20      1.0000 0.00077  0.65299  0.44380  Biso   1.000  N
  C60      1.0000 0.99883  0.68082  0.55860  Biso   1.000  C
  N21      1.0000 0.07470  0.53387  0.25620  Biso   1.000  N
  C61      1.0000 0.07042  0.47045  0.19900  Biso   1.000  C
  H37      1.0000 0.03800  0.45990  0.13560  Biso   1.000  H
  N22      1.0000 0.16197  0.43186  0.31570  Biso   1.000  N
  C62      1.0000 0.11310  0.41970  0.23140  Biso   1.000  C
  H38      1.0000 0.10740  0.37540  0.19270  Biso   1.000  H
  N23      1.0000 0.23563  0.57718  0.48790  Biso   1.000  N
  C63      1.0000 0.16766  0.49665  0.36850  Biso   1.000  C
  N24      1.0000 0.35386  0.67971  0.65690  Biso   1.000  N
  C64      1.0000 0.12388  0.54615  0.33970  Biso   1.000  C
  H39      1.0000 0.12890  0.59020  0.38050  Biso   1.000  H
  N25      1.0000 0.28460  0.78290  0.52780  Biso   1.000  N
  C65      1.0000 0.22323  0.51028  0.46070  Biso   1.000  C
  N26      1.0000 0.43017  0.30337  0.72020  Biso   1.000  N
  C66      1.0000 0.25865  0.45653  0.50910  Biso   1.000  C
  H40      1.0000 0.24800  0.41110  0.48550  Biso   1.000  H
  C67      1.0000 0.31045  0.46955  0.59320  Biso   1.000  C
  C68      1.0000 0.35190  0.41197  0.63980  Biso   1.000  C
  C69      1.0000 0.35850  0.35380  0.55120  Biso   1.000  C
  H41      1.0000 0.33650  0.34970  0.46240  Biso   1.000  H
  C70      1.0000 0.39730  0.30240  0.59380  Biso   1.000  C
  H42      1.0000 0.40120  0.26410  0.53100  Biso   1.000  H
  C71      1.0000 0.42316  0.35900  0.80290  Biso   1.000  C
  H43      1.0000 0.44540  0.36160  0.89160  Biso   1.000  H
  C72      1.0000 0.38570  0.41320  0.76910  Biso   1.000  C
  H44      1.0000 0.38320  0.45100  0.83370  Biso   1.000  H
  C73      1.0000 0.32313  0.53881  0.62560  Biso   1.000  C
  H45      1.0000 0.35660  0.55020  0.68470  Biso   1.000  H
  C74      1.0000 0.28564  0.59071  0.56920  Biso   1.000  C
  C75      1.0000 0.30184  0.66507  0.58830  Biso   1.000  C
  C76      1.0000 0.37000  0.74670  0.66270  Biso   1.000  C
  H46      1.0000 0.40560  0.75900  0.71310  Biso   1.000  H
  C77      1.0000 0.33630  0.79640  0.59770  Biso   1.000  C
  H47      1.0000 0.34990  0.84200  0.60210  Biso   1.000  H
  C78      1.0000 0.26840  0.71680  0.52500  Biso   1.000  C
  H48      1.0000 0.23210  0.70500  0.47710  Biso   1.000  H
  Cu1      1.0000 0.50000  0.10918  0.25000  Biso   1.000  Cu
  Cu2      1.0000 0.00000  0.60918  0.25000  Biso   1.000  Cu
  Cu3      1.0000 0.50000  0.22632  0.75000  Biso   1.000  Cu
  Cu4      1.0000 0.00000  0.72632  0.75000  Biso   1.000  Cu
  C79      1.0000 0.00077  0.34701  0.94380  Biso   1.000  C
  C80      1.0000 0.99883  0.31918  0.05860  Biso   1.000  C
  N27      1.0000 0.07470  0.46613  0.75620  Biso   1.000  N
  C81      1.0000 0.07042  0.52955  0.69900  Biso   1.000  C
  H49      1.0000 0.03800  0.54010  0.63560  Biso   1.000  H
  N28      1.0000 0.16197  0.56814  0.81570  Biso   1.000  N
  C82      1.0000 0.11310  0.58030  0.73140  Biso   1.000  C
  H50      1.0000 0.10740  0.62460  0.69270  Biso   1.000  H
  N29      1.0000 0.23563  0.42282  0.98790  Biso   1.000  N
  C83      1.0000 0.16766  0.50335  0.86850  Biso   1.000  C
  N30      1.0000 0.35386  0.32029  0.15690  Biso   1.000  N
  C84      1.0000 0.12388  0.45385  0.83970  Biso   1.000  C
  H51      1.0000 0.12890  0.40980  0.88050  Biso   1.000  H
  N31      1.0000 0.28460  0.21710  0.02780  Biso   1.000  N
  C85      1.0000 0.22323  0.48972  0.96070  Biso   1.000  C
  N32      1.0000 0.43017  0.69663  0.22020  Biso   1.000  N
  C86      1.0000 0.25865  0.54347  0.00910  Biso   1.000  C
  H52      1.0000 0.24800  0.58890  0.98550  Biso   1.000  H
  C87      1.0000 0.31045  0.53045  0.09320  Biso   1.000  C
  C88      1.0000 0.35190  0.58803  0.13980  Biso   1.000  C
  C89      1.0000 0.35850  0.64620  0.05120  Biso   1.000  C
  H53      1.0000 0.33650  0.65030  0.96240  Biso   1.000  H
  C90      1.0000 0.39730  0.69760  0.09380  Biso   1.000  C
  H54      1.0000 0.40120  0.73590  0.03100  Biso   1.000  H
  C91      1.0000 0.42316  0.64100  0.30290  Biso   1.000  C
  H55      1.0000 0.44540  0.63840  0.39160  Biso   1.000  H
  C92      1.0000 0.38570  0.58680  0.26910  Biso   1.000  C
  H56      1.0000 0.38320  0.54900  0.33370  Biso   1.000  H
  C93      1.0000 0.32313  0.46119  0.12560  Biso   1.000  C
  H57      1.0000 0.35660  0.44980  0.18470  Biso   1.000  H
  C94      1.0000 0.28564  0.40929  0.06920  Biso   1.000  C
  C95      1.0000 0.30184  0.33493  0.08830  Biso   1.000  C
  C96      1.0000 0.37000  0.25330  0.16270  Biso   1.000  C
  H58      1.0000 0.40560  0.24100  0.21310  Biso   1.000  H
  C97      1.0000 0.33630  0.20360  0.09770  Biso   1.000  C
  H59      1.0000 0.34990  0.15800  0.10210  Biso   1.000  H
  C98      1.0000 0.26840  0.28320  0.02500  Biso   1.000  C
  H60      1.0000 0.23210  0.29500  0.97710  Biso   1.000  H
  N33      1.0000 0.99923  0.34701  0.55620  Biso   1.000  N
  C99      1.0000 0.00117  0.31918  0.44140  Biso   1.000  C
  N34      1.0000 0.92530  0.46613  0.74380  Biso   1.000  N
  C100     1.0000 0.92958  0.52955  0.80100  Biso   1.000  C
  H61      1.0000 0.96200  0.54010  0.86440  Biso   1.000  H
  N35      1.0000 0.83803  0.56814  0.68430  Biso   1.000  N
  C101     1.0000 0.88690  0.58030  0.76860  Biso   1.000  C
  H62      1.0000 0.89260  0.62460  0.80730  Biso   1.000  H
  N36      1.0000 0.76437  0.42282  0.51210  Biso   1.000  N
  C102     1.0000 0.83234  0.50335  0.63150  Biso   1.000  C
  N37      1.0000 0.64614  0.32029  0.34310  Biso   1.000  N
  C103     1.0000 0.87612  0.45385  0.66030  Biso   1.000  C
  H63      1.0000 0.87110  0.40980  0.61950  Biso   1.000  H
  N38      1.0000 0.71540  0.21710  0.47220  Biso   1.000  N
  C104     1.0000 0.77677  0.48972  0.53930  Biso   1.000  C
  N39      1.0000 0.56983  0.69663  0.27980  Biso   1.000  N
  C105     1.0000 0.74135  0.54347  0.49090  Biso   1.000  C
  H64      1.0000 0.75200  0.58890  0.51450  Biso   1.000  H
  C106     1.0000 0.68955  0.53045  0.40680  Biso   1.000  C
  C107     1.0000 0.64810  0.58803  0.36020  Biso   1.000  C
  C108     1.0000 0.64150  0.64620  0.44880  Biso   1.000  C
  H65      1.0000 0.66350  0.65030  0.53760  Biso   1.000  H
  C109     1.0000 0.60270  0.69760  0.40620  Biso   1.000  C
  H66      1.0000 0.59880  0.73590  0.46900  Biso   1.000  H
  C110     1.0000 0.57684  0.64100  0.19710  Biso   1.000  C
  H67      1.0000 0.55460  0.63840  0.10840  Biso   1.000  H
  C111     1.0000 0.61430  0.58680  0.23090  Biso   1.000  C
  H68      1.0000 0.61680  0.54900  0.16630  Biso   1.000  H
  C112     1.0000 0.67687  0.46119  0.37440  Biso   1.000  C
  H69      1.0000 0.64340  0.44980  0.31530  Biso   1.000  H
  C113     1.0000 0.71436  0.40929  0.43080  Biso   1.000  C
  C114     1.0000 0.69816  0.33493  0.41170  Biso   1.000  C
  C115     1.0000 0.63000  0.25330  0.33730  Biso   1.000  C
  H70      1.0000 0.59440  0.24100  0.28690  Biso   1.000  H
  C116     1.0000 0.66370  0.20360  0.40230  Biso   1.000  C
  H71      1.0000 0.65010  0.15800  0.39790  Biso   1.000  H
  C117     1.0000 0.73160  0.28320  0.47500  Biso   1.000  C
  H72      1.0000 0.76790  0.29500  0.52290  Biso   1.000  H
  C118     1.0000 0.50077  0.84701  0.55620  Biso   1.000  C
  C119     1.0000 0.49883  0.81918  0.44140  Biso   1.000  C
  N40      1.0000 0.57470  0.96613  0.74380  Biso   1.000  N
  C120     1.0000 0.57042  0.02955  0.80100  Biso   1.000  C
  H73      1.0000 0.53800  0.04010  0.86440  Biso   1.000  H
  N41      1.0000 0.66197  0.06814  0.68430  Biso   1.000  N
  C121     1.0000 0.61310  0.08030  0.76860  Biso   1.000  C
  H74      1.0000 0.60740  0.12460  0.80730  Biso   1.000  H
  N42      1.0000 0.73563  0.92282  0.51210  Biso   1.000  N
  C122     1.0000 0.66766  0.00335  0.63150  Biso   1.000  C
  N43      1.0000 0.85386  0.82029  0.34310  Biso   1.000  N
  C123     1.0000 0.62388  0.95385  0.66030  Biso   1.000  C
  H75      1.0000 0.62890  0.90980  0.61950  Biso   1.000  H
  N44      1.0000 0.78460  0.71710  0.47220  Biso   1.000  N
  C124     1.0000 0.72323  0.98972  0.53930  Biso   1.000  C
  N45      1.0000 0.93017  0.19663  0.27980  Biso   1.000  N
  C125     1.0000 0.75865  0.04347  0.49090  Biso   1.000  C
  H76      1.0000 0.74800  0.08890  0.51450  Biso   1.000  H
  C126     1.0000 0.81045  0.03045  0.40680  Biso   1.000  C
  C127     1.0000 0.85190  0.08803  0.36020  Biso   1.000  C
  C128     1.0000 0.85850  0.14620  0.44880  Biso   1.000  C
  H77      1.0000 0.83650  0.15030  0.53760  Biso   1.000  H
  C129     1.0000 0.89730  0.19760  0.40620  Biso   1.000  C
  H78      1.0000 0.90120  0.23590  0.46900  Biso   1.000  H
  C130     1.0000 0.92316  0.14100  0.19710  Biso   1.000  C
  H79      1.0000 0.94540  0.13840  0.10840  Biso   1.000  H
  C131     1.0000 0.88570  0.08680  0.23090  Biso   1.000  C
  H80      1.0000 0.88320  0.04900  0.16630  Biso   1.000  H
  C132     1.0000 0.82313  0.96119  0.37440  Biso   1.000  C
  H81      1.0000 0.85660  0.94980  0.31530  Biso   1.000  H
  C133     1.0000 0.78564  0.90929  0.43080  Biso   1.000  C
  C134     1.0000 0.80184  0.83493  0.41170  Biso   1.000  C
  C135     1.0000 0.87000  0.75330  0.33730  Biso   1.000  C
  H82      1.0000 0.90560  0.74100  0.28690  Biso   1.000  H
  C136     1.0000 0.83630  0.70360  0.40230  Biso   1.000  C
  H83      1.0000 0.84990  0.65800  0.39790  Biso   1.000  H
  C137     1.0000 0.76840  0.78320  0.47500  Biso   1.000  C
  H84      1.0000 0.73210  0.79500  0.52290  Biso   1.000  H
  N46      1.0000 0.49923  0.84701  0.94380  Biso   1.000  N
  C138     1.0000 0.50117  0.81918  0.05860  Biso   1.000  C
  N47      1.0000 0.42530  0.96613  0.75620  Biso   1.000  N
  C139     1.0000 0.42958  0.02955  0.69900  Biso   1.000  C
  H85      1.0000 0.46200  0.04010  0.63560  Biso   1.000  H
  N48      1.0000 0.33803  0.06814  0.81570  Biso   1.000  N
  C140     1.0000 0.38690  0.08030  0.73140  Biso   1.000  C
  H86      1.0000 0.39260  0.12460  0.69270  Biso   1.000  H
  N49      1.0000 0.26437  0.92282  0.98790  Biso   1.000  N
  C141     1.0000 0.33234  0.00335  0.86850  Biso   1.000  C
  N50      1.0000 0.14614  0.82029  0.15690  Biso   1.000  N
  C142     1.0000 0.37612  0.95385  0.83970  Biso   1.000  C
  H87      1.0000 0.37110  0.90980  0.88050  Biso   1.000  H
  N51      1.0000 0.21540  0.71710  0.02780  Biso   1.000  N
  C143     1.0000 0.27677  0.98972  0.96070  Biso   1.000  C
  N52      1.0000 0.06983  0.19663  0.22020  Biso   1.000  N
  C144     1.0000 0.24135  0.04347  0.00910  Biso   1.000  C
  H88      1.0000 0.25200  0.08890  0.98550  Biso   1.000  H
  C145     1.0000 0.18955  0.03045  0.09320  Biso   1.000  C
  C146     1.0000 0.14810  0.08803  0.13980  Biso   1.000  C
  C147     1.0000 0.14150  0.14620  0.05120  Biso   1.000  C
  H89      1.0000 0.16350  0.15030  0.96240  Biso   1.000  H
  C148     1.0000 0.10270  0.19760  0.09380  Biso   1.000  C
  H90      1.0000 0.09880  0.23590  0.03100  Biso   1.000  H
  C149     1.0000 0.07684  0.14100  0.30290  Biso   1.000  C
  H91      1.0000 0.05460  0.13840  0.39160  Biso   1.000  H
  C150     1.0000 0.11430  0.08680  0.26910  Biso   1.000  C
  H92      1.0000 0.11680  0.04900  0.33370  Biso   1.000  H
  C151     1.0000 0.17687  0.96119  0.12560  Biso   1.000  C
  H93      1.0000 0.14340  0.94980  0.18470  Biso   1.000  H
  C152     1.0000 0.21436  0.90929  0.06920  Biso   1.000  C
  C153     1.0000 0.19816  0.83493  0.08830  Biso   1.000  C
  C154     1.0000 0.13000  0.75330  0.16270  Biso   1.000  C
  H94      1.0000 0.09440  0.74100  0.21310  Biso   1.000  H
  C155     1.0000 0.16370  0.70360  0.09770  Biso   1.000  C
  H95      1.0000 0.15010  0.65800  0.10210  Biso   1.000  H
  C156     1.0000 0.23160  0.78320  0.02500  Biso   1.000  C
  H96      1.0000 0.26790  0.79500  0.97710  Biso   1.000  H
  Cu5      1.0000 0.00000  0.39082  0.75000  Biso   1.000  Cu
  Cu6      1.0000 0.50000  0.89082  0.75000  Biso   1.000  Cu
  Cu7      1.0000 0.00000  0.27368  0.25000  Biso   1.000  Cu
  Cu8      1.0000 0.50000  0.77368  0.25000  Biso   1.000  Cu
