data_image0
_cell_length_a       12.2813
_cell_length_b       27.3205
_cell_length_c       16.465
_cell_angle_alpha    90
_cell_angle_beta     102.863
_cell_angle_gamma    90

_symmetry_space_group_name_H-M    "P 1"
_symmetry_int_tables_number       1

loop_
  _symmetry_equiv_pos_as_xyz
  'x, y, z'

loop_
  _atom_site_label
  _atom_site_occupancy
  _atom_site_fract_x
  _atom_site_fract_y
  _atom_site_fract_z
  _atom_site_thermal_displace_type
  _atom_site_B_iso_or_equiv
  _atom_site_type_symbol
  Zn1      1.0000 0.05712  0.55143  0.00272  Biso   1.000  Zn
  Zn2      1.0000 0.23132  0.46497  0.01287  Biso   1.000  Zn
  C1       1.0000 0.27280  0.55537  0.93480  Biso   1.000  C
  C2       1.0000 0.33410  0.58394  0.88100  Biso   1.000  C
  C3       1.0000 0.44000  0.56984  0.87370  Biso   1.000  C
  H1       1.0000 0.47520  0.54250  0.90440  Biso   1.000  H
  C4       1.0000 0.49470  0.59529  0.82170  Biso   1.000  C
  H2       1.0000 0.56720  0.58570  0.81670  Biso   1.000  H
  C5       1.0000 0.44190  0.63484  0.77760  Biso   1.000  C
  C6       1.0000 0.33820  0.65040  0.78560  Biso   1.000  C
  H3       1.0000 0.30410  0.67810  0.75560  Biso   1.000  H
  C7       1.0000 0.28410  0.62490  0.83790  Biso   1.000  C
  H4       1.0000 0.21280  0.63550  0.84440  Biso   1.000  H
  C8       1.0000 0.23050  0.51046  0.16270  Biso   1.000  C
  C9       1.0000 0.26160  0.51853  0.25520  Biso   1.000  C
  C10      1.0000 0.35470  0.49550  0.30490  Biso   1.000  C
  H5       1.0000 0.39830  0.47350  0.28060  Biso   1.000  H
  C11      1.0000 0.38330  0.50500  0.38970  Biso   1.000  C
  H6       1.0000 0.44660  0.48960  0.42380  Biso   1.000  H
  C12      1.0000 0.31930  0.53660  0.42390  Biso   1.000  C
  C13      1.0000 0.22740  0.55880  0.37720  Biso   1.000  C
  H7       1.0000 0.18350  0.58010  0.40250  Biso   1.000  H
  C14      1.0000 0.19860  0.55010  0.29200  Biso   1.000  C
  H8       1.0000 0.13510  0.56580  0.25880  Biso   1.000  H
  C15      1.0000 0.75730  0.86620  0.53650  Biso   1.000  C
  C16      1.0000 0.70870  0.81572  0.51650  Biso   1.000  C
  C17      1.0000 0.59980  0.80990  0.47130  Biso   1.000  C
  H9       1.0000 0.55490  0.83780  0.45290  Biso   1.000  H
  C18      1.0000 0.55660  0.76330  0.45290  Biso   1.000  C
  H10      1.0000 0.48150  0.75920  0.42310  Biso   1.000  H
  C19      1.0000 0.62230  0.72360  0.47790  Biso   1.000  C
  C20      1.0000 0.73200  0.72870  0.52200  Biso   1.000  C
  H11      1.0000 0.77760  0.70070  0.53770  Biso   1.000  H
  C21      1.0000 0.77410  0.77530  0.54270  Biso   1.000  C
  H12      1.0000 0.84790  0.77930  0.57500  Biso   1.000  H
  C22      1.0000 0.48330  0.64285  0.64470  Biso   1.000  C
  C23      1.0000 0.42070  0.60183  0.61640  Biso   1.000  C
  H13      1.0000 0.38440  0.58380  0.65210  Biso   1.000  H
  C24      1.0000 0.41220  0.58762  0.53400  Biso   1.000  C
  C25      1.0000 0.46500  0.61297  0.48110  Biso   1.000  C
  H14      1.0000 0.45890  0.60280  0.42510  Biso   1.000  H
  C26      1.0000 0.52760  0.65396  0.51290  Biso   1.000  C
  C27      1.0000 0.53700  0.66985  0.59350  Biso   1.000  C
  H15      1.0000 0.57880  0.69830  0.61350  Biso   1.000  H
  O1       1.0000 0.18700  0.57485  0.95020  Biso   1.000  O
  O2       1.0000 0.31270  0.51418  0.95960  Biso   1.000  O
  O3       1.0000 0.49610  0.66070  0.72460  Biso   1.000  O
  O4       1.0000 0.15490  0.53653  0.12190  Biso   1.000  O
  O5       1.0000 0.28420  0.47794  0.13340  Biso   1.000  O
  O6       1.0000 0.34910  0.54615  0.51010  Biso   1.000  O
  O7       1.0000 0.84540  0.87044  0.58970  Biso   1.000  O
  O8       1.0000 0.70290  0.90107  0.49510  Biso   1.000  O
  O9       1.0000 0.57960  0.67666  0.45700  Biso   1.000  O
  O10      1.0000 0.07730  0.47940  0.96065  Biso   1.000  O
  Zn3      1.0000 0.94288  0.05143  0.49728  Biso   1.000  Zn
  Zn4      1.0000 0.76868  0.96497  0.48713  Biso   1.000  Zn
  C28      1.0000 0.72720  0.05537  0.56520  Biso   1.000  C
  C29      1.0000 0.66590  0.08394  0.61900  Biso   1.000  C
  C30      1.0000 0.56000  0.06984  0.62630  Biso   1.000  C
  H16      1.0000 0.52480  0.04250  0.59560  Biso   1.000  H
  C31      1.0000 0.50530  0.09529  0.67830  Biso   1.000  C
  H17      1.0000 0.43280  0.08570  0.68330  Biso   1.000  H
  C32      1.0000 0.55810  0.13484  0.72240  Biso   1.000  C
  C33      1.0000 0.66180  0.15040  0.71440  Biso   1.000  C
  H18      1.0000 0.69590  0.17810  0.74440  Biso   1.000  H
  C34      1.0000 0.71590  0.12490  0.66210  Biso   1.000  C
  H19      1.0000 0.78720  0.13550  0.65560  Biso   1.000  H
  C35      1.0000 0.76950  0.01046  0.33730  Biso   1.000  C
  C36      1.0000 0.73840  0.01853  0.24480  Biso   1.000  C
  C37      1.0000 0.64530  0.99550  0.19510  Biso   1.000  C
  H20      1.0000 0.60170  0.97350  0.21940  Biso   1.000  H
  C38      1.0000 0.61670  0.00500  0.11030  Biso   1.000  C
  H21      1.0000 0.55340  0.98960  0.07620  Biso   1.000  H
  C39      1.0000 0.68070  0.03660  0.07610  Biso   1.000  C
  C40      1.0000 0.77260  0.05880  0.12280  Biso   1.000  C
  H22      1.0000 0.81650  0.08010  0.09750  Biso   1.000  H
  C41      1.0000 0.80140  0.05010  0.20800  Biso   1.000  C
  H23      1.0000 0.86490  0.06580  0.24120  Biso   1.000  H
  C42      1.0000 0.24270  0.36620  0.96350  Biso   1.000  C
  C43      1.0000 0.29130  0.31572  0.98350  Biso   1.000  C
  C44      1.0000 0.40020  0.30990  0.02870  Biso   1.000  C
  H24      1.0000 0.44510  0.33780  0.04710  Biso   1.000  H
  C45      1.0000 0.44340  0.26330  0.04710  Biso   1.000  C
  H25      1.0000 0.51850  0.25920  0.07690  Biso   1.000  H
  C46      1.0000 0.37770  0.22360  0.02210  Biso   1.000  C
  C47      1.0000 0.26800  0.22870  0.97800  Biso   1.000  C
  H26      1.0000 0.22240  0.20070  0.96230  Biso   1.000  H
  C48      1.0000 0.22590  0.27530  0.95730  Biso   1.000  C
  H27      1.0000 0.15210  0.27930  0.92500  Biso   1.000  H
  C49      1.0000 0.51670  0.14285  0.85530  Biso   1.000  C
  C50      1.0000 0.57930  0.10183  0.88360  Biso   1.000  C
  H28      1.0000 0.61560  0.08380  0.84790  Biso   1.000  H
  C51      1.0000 0.58780  0.08762  0.96600  Biso   1.000  C
  C52      1.0000 0.53500  0.11297  0.01890  Biso   1.000  C
  H29      1.0000 0.54110  0.10280  0.07490  Biso   1.000  H
  C53      1.0000 0.47240  0.15396  0.98710  Biso   1.000  C
  C54      1.0000 0.46300  0.16985  0.90650  Biso   1.000  C
  H30      1.0000 0.42120  0.19830  0.88650  Biso   1.000  H
  O11      1.0000 0.81300  0.07485  0.54980  Biso   1.000  O
  O12      1.0000 0.68730  0.01418  0.54040  Biso   1.000  O
  O13      1.0000 0.50390  0.16070  0.77540  Biso   1.000  O
  O14      1.0000 0.84510  0.03653  0.37810  Biso   1.000  O
  O15      1.0000 0.71580  0.97794  0.36660  Biso   1.000  O
  O16      1.0000 0.65090  0.04615  0.98990  Biso   1.000  O
  O17      1.0000 0.15460  0.37044  0.91030  Biso   1.000  O
  O18      1.0000 0.29710  0.40107  0.00490  Biso   1.000  O
  O19      1.0000 0.42040  0.17666  0.04300  Biso   1.000  O
  O20      1.0000 0.92270  0.97940  0.53935  Biso   1.000  O
  Zn5      1.0000 0.94288  0.44857  0.99728  Biso   1.000  Zn
  Zn6      1.0000 0.76868  0.53503  0.98713  Biso   1.000  Zn
  C55      1.0000 0.72720  0.44463  0.06520  Biso   1.000  C
  C56      1.0000 0.66590  0.41606  0.11900  Biso   1.000  C
  C57      1.0000 0.56000  0.43016  0.12630  Biso   1.000  C
  H31      1.0000 0.52480  0.45750  0.09560  Biso   1.000  H
  C58      1.0000 0.50530  0.40471  0.17830  Biso   1.000  C
  H32      1.0000 0.43280  0.41430  0.18330  Biso   1.000  H
  C59      1.0000 0.55810  0.36516  0.22240  Biso   1.000  C
  C60      1.0000 0.66180  0.34960  0.21440  Biso   1.000  C
  H33      1.0000 0.69590  0.32190  0.24440  Biso   1.000  H
  C61      1.0000 0.71590  0.37510  0.16210  Biso   1.000  C
  H34      1.0000 0.78720  0.36450  0.15560  Biso   1.000  H
  C62      1.0000 0.76950  0.48954  0.83730  Biso   1.000  C
  C63      1.0000 0.73840  0.48147  0.74480  Biso   1.000  C
  C64      1.0000 0.64530  0.50450  0.69510  Biso   1.000  C
  H35      1.0000 0.60170  0.52650  0.71940  Biso   1.000  H
  C65      1.0000 0.61670  0.49500  0.61030  Biso   1.000  C
  H36      1.0000 0.55340  0.51040  0.57620  Biso   1.000  H
  C66      1.0000 0.68070  0.46340  0.57610  Biso   1.000  C
  C67      1.0000 0.77260  0.44120  0.62280  Biso   1.000  C
  H37      1.0000 0.81650  0.41990  0.59750  Biso   1.000  H
  C68      1.0000 0.80140  0.44990  0.70800  Biso   1.000  C
  H38      1.0000 0.86490  0.43420  0.74120  Biso   1.000  H
  C69      1.0000 0.24270  0.13380  0.46350  Biso   1.000  C
  C70      1.0000 0.29130  0.18428  0.48350  Biso   1.000  C
  C71      1.0000 0.40020  0.19010  0.52870  Biso   1.000  C
  H39      1.0000 0.44510  0.16220  0.54710  Biso   1.000  H
  C72      1.0000 0.44340  0.23670  0.54710  Biso   1.000  C
  H40      1.0000 0.51850  0.24080  0.57690  Biso   1.000  H
  C73      1.0000 0.37770  0.27640  0.52210  Biso   1.000  C
  C74      1.0000 0.26800  0.27130  0.47800  Biso   1.000  C
  H41      1.0000 0.22240  0.29930  0.46230  Biso   1.000  H
  C75      1.0000 0.22590  0.22470  0.45730  Biso   1.000  C
  H42      1.0000 0.15210  0.22070  0.42500  Biso   1.000  H
  C76      1.0000 0.51670  0.35715  0.35530  Biso   1.000  C
  C77      1.0000 0.57930  0.39817  0.38360  Biso   1.000  C
  H43      1.0000 0.61560  0.41620  0.34790  Biso   1.000  H
  C78      1.0000 0.58780  0.41238  0.46600  Biso   1.000  C
  C79      1.0000 0.53500  0.38703  0.51890  Biso   1.000  C
  H44      1.0000 0.54110  0.39720  0.57490  Biso   1.000  H
  C80      1.0000 0.47240  0.34604  0.48710  Biso   1.000  C
  C81      1.0000 0.46300  0.33015  0.40650  Biso   1.000  C
  H45      1.0000 0.42120  0.30170  0.38650  Biso   1.000  H
  O21      1.0000 0.81300  0.42515  0.04980  Biso   1.000  O
  O22      1.0000 0.68730  0.48582  0.04040  Biso   1.000  O
  O23      1.0000 0.50390  0.33930  0.27540  Biso   1.000  O
  O24      1.0000 0.84510  0.46347  0.87810  Biso   1.000  O
  O25      1.0000 0.71580  0.52206  0.86660  Biso   1.000  O
  O26      1.0000 0.65090  0.45385  0.48990  Biso   1.000  O
  O27      1.0000 0.15460  0.12956  0.41030  Biso   1.000  O
  O28      1.0000 0.29710  0.09893  0.50490  Biso   1.000  O
  O29      1.0000 0.42040  0.32334  0.54300  Biso   1.000  O
  O30      1.0000 0.92270  0.52060  0.03935  Biso   1.000  O
  Zn7      1.0000 0.05712  0.94857  0.50272  Biso   1.000  Zn
  Zn8      1.0000 0.23132  0.03503  0.51287  Biso   1.000  Zn
  C82      1.0000 0.27280  0.94463  0.43480  Biso   1.000  C
  C83      1.0000 0.33410  0.91606  0.38100  Biso   1.000  C
  C84      1.0000 0.44000  0.93016  0.37370  Biso   1.000  C
  H46      1.0000 0.47520  0.95750  0.40440  Biso   1.000  H
  C85      1.0000 0.49470  0.90471  0.32170  Biso   1.000  C
  H47      1.0000 0.56720  0.91430  0.31670  Biso   1.000  H
  C86      1.0000 0.44190  0.86516  0.27760  Biso   1.000  C
  C87      1.0000 0.33820  0.84960  0.28560  Biso   1.000  C
  H48      1.0000 0.30410  0.82190  0.25560  Biso   1.000  H
  C88      1.0000 0.28410  0.87510  0.33790  Biso   1.000  C
  H49      1.0000 0.21280  0.86450  0.34440  Biso   1.000  H
  C89      1.0000 0.23050  0.98954  0.66270  Biso   1.000  C
  C90      1.0000 0.26160  0.98147  0.75520  Biso   1.000  C
  C91      1.0000 0.35470  0.00450  0.80490  Biso   1.000  C
  H50      1.0000 0.39830  0.02650  0.78060  Biso   1.000  H
  C92      1.0000 0.38330  0.99500  0.88970  Biso   1.000  C
  H51      1.0000 0.44660  0.01040  0.92380  Biso   1.000  H
  C93      1.0000 0.31930  0.96340  0.92390  Biso   1.000  C
  C94      1.0000 0.22740  0.94120  0.87720  Biso   1.000  C
  H52      1.0000 0.18350  0.91990  0.90250  Biso   1.000  H
  C95      1.0000 0.19860  0.94990  0.79200  Biso   1.000  C
  H53      1.0000 0.13510  0.93420  0.75880  Biso   1.000  H
  C96      1.0000 0.75730  0.63380  0.03650  Biso   1.000  C
  C97      1.0000 0.70870  0.68428  0.01650  Biso   1.000  C
  C98      1.0000 0.59980  0.69010  0.97130  Biso   1.000  C
  H54      1.0000 0.55490  0.66220  0.95290  Biso   1.000  H
  C99      1.0000 0.55660  0.73670  0.95290  Biso   1.000  C
  H55      1.0000 0.48150  0.74080  0.92310  Biso   1.000  H
  C100     1.0000 0.62230  0.77640  0.97790  Biso   1.000  C
  C101     1.0000 0.73200  0.77130  0.02200  Biso   1.000  C
  H56      1.0000 0.77760  0.79930  0.03770  Biso   1.000  H
  C102     1.0000 0.77410  0.72470  0.04270  Biso   1.000  C
  H57      1.0000 0.84790  0.72070  0.07500  Biso   1.000  H
  C103     1.0000 0.48330  0.85715  0.14470  Biso   1.000  C
  C104     1.0000 0.42070  0.89817  0.11640  Biso   1.000  C
  H58      1.0000 0.38440  0.91620  0.15210  Biso   1.000  H
  C105     1.0000 0.41220  0.91238  0.03400  Biso   1.000  C
  C106     1.0000 0.46500  0.88703  0.98110  Biso   1.000  C
  H59      1.0000 0.45890  0.89720  0.92510  Biso   1.000  H
  C107     1.0000 0.52760  0.84604  0.01290  Biso   1.000  C
  C108     1.0000 0.53700  0.83015  0.09350  Biso   1.000  C
  H60      1.0000 0.57880  0.80170  0.11350  Biso   1.000  H
  O31      1.0000 0.18700  0.92515  0.45020  Biso   1.000  O
  O32      1.0000 0.31270  0.98582  0.45960  Biso   1.000  O
  O33      1.0000 0.49610  0.83930  0.22460  Biso   1.000  O
  O34      1.0000 0.15490  0.96347  0.62190  Biso   1.000  O
  O35      1.0000 0.28420  0.02206  0.63340  Biso   1.000  O
  O36      1.0000 0.34910  0.95385  0.01010  Biso   1.000  O
  O37      1.0000 0.84540  0.62956  0.08970  Biso   1.000  O
  O38      1.0000 0.70290  0.59893  0.99510  Biso   1.000  O
  O39      1.0000 0.57960  0.82334  0.95700  Biso   1.000  O
  O40      1.0000 0.07730  0.02060  0.46065  Biso   1.000  O
