data_image0
_cell_length_a       11.946
_cell_length_b       13.302
_cell_length_c       17.777
_cell_angle_alpha    90
_cell_angle_beta     98.35
_cell_angle_gamma    90

_symmetry_space_group_name_H-M    "P 1"
_symmetry_int_tables_number       1

loop_
  _symmetry_equiv_pos_as_xyz
  'x, y, z'

loop_
  _atom_site_label
  _atom_site_occupancy
  _atom_site_fract_x
  _atom_site_fract_y
  _atom_site_fract_z
  _atom_site_thermal_displace_type
  _atom_site_B_iso_or_equiv
  _atom_site_type_symbol
  Zn1      1.0000 0.67246  0.54085  0.20304  Biso   1.000  Zn
  Cu1      1.0000 0.04136  0.67703  0.44284  Biso   1.000  Cu
  N1       1.0000 0.65390  0.42540  0.13260  Biso   1.000  N
  N2       1.0000 0.56640  0.28950  0.07540  Biso   1.000  N
  N3       1.0000 0.56300  0.52620  0.27670  Biso   1.000  N
  N4       1.0000 0.49740  0.51180  0.38800  Biso   1.000  N
  N5       1.0000 0.82610  0.55360  0.26320  Biso   1.000  N
  N6       1.0000 0.96700  0.60820  0.34940  Biso   1.000  N
  N7       1.0000 0.15930  0.57120  0.45800  Biso   1.000  N
  N8       1.0000 0.33300  0.50800  0.48440  Biso   1.000  N
  N9       1.0000 0.09290  0.72770  0.54740  Biso   1.000  N
  N10      1.0000 0.14330  0.83390  0.64310  Biso   1.000  N
  C1       1.0000 0.57640  0.35420  0.13350  Biso   1.000  C
  H1       1.0000 0.53190  0.34960  0.17210  Biso   1.000  H
  C2       1.0000 0.69710  0.40610  0.06830  Biso   1.000  C
  H2       1.0000 0.75390  0.44270  0.05020  Biso   1.000  H
  C3       1.0000 0.64380  0.32420  0.03410  Biso   1.000  C
  H3       1.0000 0.65890  0.29620  0.98870  Biso   1.000  H
  C4       1.0000 0.58610  0.51530  0.35040  Biso   1.000  C
  H4       1.0000 0.66000  0.51020  0.37510  Biso   1.000  H
  C5       1.0000 0.44920  0.52590  0.26410  Biso   1.000  C
  H5       1.0000 0.40520  0.53180  0.21660  Biso   1.000  H
  C6       1.0000 0.40840  0.51600  0.33020  Biso   1.000  C
  H6       1.0000 0.33230  0.51250  0.33590  Biso   1.000  H
  C7       1.0000 0.85550  0.60910  0.32510  Biso   1.000  C
  H7       1.0000 0.80390  0.64480  0.34910  Biso   1.000  H
  C8       1.0000 0.92420  0.51560  0.24690  Biso   1.000  C
  H8       1.0000 0.93170  0.47410  0.20580  Biso   1.000  H
  C9       1.0000 0.01030  0.54720  0.29960  Biso   1.000  C
  H9       1.0000 0.08610  0.53000  0.30130  Biso   1.000  H
  C10      1.0000 0.26930  0.58930  0.47420  Biso   1.000  C
  H10      1.0000 0.29910  0.65400  0.47800  Biso   1.000  H
  C11      1.0000 0.15140  0.46960  0.45840  Biso   1.000  C
  H11      1.0000 0.08470  0.43270  0.44930  Biso   1.000  H
  C12      1.0000 0.25730  0.43070  0.47430  Biso   1.000  C
  H12      1.0000 0.27520  0.36260  0.47780  Biso   1.000  H
  C13      1.0000 0.10260  0.82260  0.57040  Biso   1.000  C
  H13      1.0000 0.08250  0.87670  0.53800  Biso   1.000  H
  C14      1.0000 0.12980  0.67350  0.61130  Biso   1.000  C
  H14      1.0000 0.13400  0.60370  0.61430  Biso   1.000  H
  C15      1.0000 0.15890  0.73750  0.66880  Biso   1.000  C
  H15      1.0000 0.18550  0.71920  0.71870  Biso   1.000  H
  Zn2      1.0000 0.82754  0.04085  0.29696  Biso   1.000  Zn
  Cu2      1.0000 0.45864  0.17703  0.05716  Biso   1.000  Cu
  N11      1.0000 0.84610  0.92540  0.36740  Biso   1.000  N
  N12      1.0000 0.93360  0.78950  0.42460  Biso   1.000  N
  N13      1.0000 0.93700  0.02620  0.22330  Biso   1.000  N
  N14      1.0000 0.00260  0.01180  0.11200  Biso   1.000  N
  N15      1.0000 0.67390  0.05360  0.23680  Biso   1.000  N
  N16      1.0000 0.53300  0.10820  0.15060  Biso   1.000  N
  N17      1.0000 0.34070  0.07120  0.04200  Biso   1.000  N
  N18      1.0000 0.16700  0.00800  0.01560  Biso   1.000  N
  N19      1.0000 0.40710  0.22770  0.95260  Biso   1.000  N
  N20      1.0000 0.35670  0.33390  0.85690  Biso   1.000  N
  C16      1.0000 0.92360  0.85420  0.36650  Biso   1.000  C
  H16      1.0000 0.96810  0.84960  0.32790  Biso   1.000  H
  C17      1.0000 0.80290  0.90610  0.43170  Biso   1.000  C
  H17      1.0000 0.74610  0.94270  0.44980  Biso   1.000  H
  C18      1.0000 0.85620  0.82420  0.46590  Biso   1.000  C
  H18      1.0000 0.84110  0.79620  0.51130  Biso   1.000  H
  C19      1.0000 0.91390  0.01530  0.14960  Biso   1.000  C
  H19      1.0000 0.84000  0.01020  0.12490  Biso   1.000  H
  C20      1.0000 0.05080  0.02590  0.23590  Biso   1.000  C
  H20      1.0000 0.09480  0.03180  0.28340  Biso   1.000  H
  C21      1.0000 0.09160  0.01600  0.16980  Biso   1.000  C
  H21      1.0000 0.16770  0.01250  0.16410  Biso   1.000  H
  C22      1.0000 0.64450  0.10910  0.17490  Biso   1.000  C
  H22      1.0000 0.69610  0.14480  0.15090  Biso   1.000  H
  C23      1.0000 0.57580  0.01560  0.25310  Biso   1.000  C
  H23      1.0000 0.56830  0.97410  0.29420  Biso   1.000  H
  C24      1.0000 0.48970  0.04720  0.20040  Biso   1.000  C
  H24      1.0000 0.41390  0.03000  0.19870  Biso   1.000  H
  C25      1.0000 0.23070  0.08930  0.02580  Biso   1.000  C
  H25      1.0000 0.20090  0.15400  0.02200  Biso   1.000  H
  C26      1.0000 0.34860  0.96960  0.04160  Biso   1.000  C
  H26      1.0000 0.41530  0.93270  0.05070  Biso   1.000  H
  C27      1.0000 0.24270  0.93070  0.02570  Biso   1.000  C
  H27      1.0000 0.22480  0.86260  0.02220  Biso   1.000  H
  C28      1.0000 0.39740  0.32260  0.92960  Biso   1.000  C
  H28      1.0000 0.41750  0.37670  0.96200  Biso   1.000  H
  C29      1.0000 0.37020  0.17350  0.88870  Biso   1.000  C
  H29      1.0000 0.36600  0.10370  0.88570  Biso   1.000  H
  C30      1.0000 0.34110  0.23750  0.83120  Biso   1.000  C
  H30      1.0000 0.31450  0.21920  0.78130  Biso   1.000  H
  Zn3      1.0000 0.32754  0.45915  0.79696  Biso   1.000  Zn
  Cu3      1.0000 0.95864  0.32297  0.55716  Biso   1.000  Cu
  N21      1.0000 0.34610  0.57460  0.86740  Biso   1.000  N
  N22      1.0000 0.43360  0.71050  0.92460  Biso   1.000  N
  N23      1.0000 0.43700  0.47380  0.72330  Biso   1.000  N
  N24      1.0000 0.50260  0.48820  0.61200  Biso   1.000  N
  N25      1.0000 0.17390  0.44640  0.73680  Biso   1.000  N
  N26      1.0000 0.03300  0.39180  0.65060  Biso   1.000  N
  N27      1.0000 0.84070  0.42880  0.54200  Biso   1.000  N
  N28      1.0000 0.66700  0.49200  0.51560  Biso   1.000  N
  N29      1.0000 0.90710  0.27230  0.45260  Biso   1.000  N
  N30      1.0000 0.85670  0.16610  0.35690  Biso   1.000  N
  C31      1.0000 0.42360  0.64580  0.86650  Biso   1.000  C
  H31      1.0000 0.46810  0.65040  0.82790  Biso   1.000  H
  C32      1.0000 0.30290  0.59390  0.93170  Biso   1.000  C
  H32      1.0000 0.24610  0.55730  0.94980  Biso   1.000  H
  C33      1.0000 0.35620  0.67580  0.96590  Biso   1.000  C
  H33      1.0000 0.34110  0.70380  0.01130  Biso   1.000  H
  C34      1.0000 0.41390  0.48470  0.64960  Biso   1.000  C
  H34      1.0000 0.34000  0.48980  0.62490  Biso   1.000  H
  C35      1.0000 0.55080  0.47410  0.73590  Biso   1.000  C
  H35      1.0000 0.59480  0.46820  0.78340  Biso   1.000  H
  C36      1.0000 0.59160  0.48400  0.66980  Biso   1.000  C
  H36      1.0000 0.66770  0.48750  0.66410  Biso   1.000  H
  C37      1.0000 0.14450  0.39090  0.67490  Biso   1.000  C
  H37      1.0000 0.19610  0.35520  0.65090  Biso   1.000  H
  C38      1.0000 0.07580  0.48440  0.75310  Biso   1.000  C
  H38      1.0000 0.06830  0.52590  0.79420  Biso   1.000  H
  C39      1.0000 0.98970  0.45280  0.70040  Biso   1.000  C
  H39      1.0000 0.91390  0.47000  0.69870  Biso   1.000  H
  C40      1.0000 0.73070  0.41070  0.52580  Biso   1.000  C
  H40      1.0000 0.70090  0.34600  0.52200  Biso   1.000  H
  C41      1.0000 0.84860  0.53040  0.54160  Biso   1.000  C
  H41      1.0000 0.91530  0.56730  0.55070  Biso   1.000  H
  C42      1.0000 0.74270  0.56930  0.52570  Biso   1.000  C
  H42      1.0000 0.72480  0.63740  0.52220  Biso   1.000  H
  C43      1.0000 0.89740  0.17740  0.42960  Biso   1.000  C
  H43      1.0000 0.91750  0.12330  0.46200  Biso   1.000  H
  C44      1.0000 0.87020  0.32650  0.38870  Biso   1.000  C
  H44      1.0000 0.86600  0.39630  0.38570  Biso   1.000  H
  C45      1.0000 0.84110  0.26250  0.33120  Biso   1.000  C
  H45      1.0000 0.81450  0.28080  0.28130  Biso   1.000  H
  Zn4      1.0000 0.17246  0.95915  0.70304  Biso   1.000  Zn
  Cu4      1.0000 0.54136  0.82297  0.94284  Biso   1.000  Cu
  N31      1.0000 0.15390  0.07460  0.63260  Biso   1.000  N
  N32      1.0000 0.06640  0.21050  0.57540  Biso   1.000  N
  N33      1.0000 0.06300  0.97380  0.77670  Biso   1.000  N
  N34      1.0000 0.99740  0.98820  0.88800  Biso   1.000  N
  N35      1.0000 0.32610  0.94640  0.76320  Biso   1.000  N
  N36      1.0000 0.46700  0.89180  0.84940  Biso   1.000  N
  N37      1.0000 0.65930  0.92880  0.95800  Biso   1.000  N
  N38      1.0000 0.83300  0.99200  0.98440  Biso   1.000  N
  N39      1.0000 0.59290  0.77230  0.04740  Biso   1.000  N
  N40      1.0000 0.64330  0.66610  0.14310  Biso   1.000  N
  C46      1.0000 0.07640  0.14580  0.63350  Biso   1.000  C
  H46      1.0000 0.03190  0.15040  0.67210  Biso   1.000  H
  C47      1.0000 0.19710  0.09390  0.56830  Biso   1.000  C
  H47      1.0000 0.25390  0.05730  0.55020  Biso   1.000  H
  C48      1.0000 0.14380  0.17580  0.53410  Biso   1.000  C
  H48      1.0000 0.15890  0.20380  0.48870  Biso   1.000  H
  C49      1.0000 0.08610  0.98470  0.85040  Biso   1.000  C
  H49      1.0000 0.16000  0.98980  0.87510  Biso   1.000  H
  C50      1.0000 0.94920  0.97410  0.76410  Biso   1.000  C
  H50      1.0000 0.90520  0.96820  0.71660  Biso   1.000  H
  C51      1.0000 0.90840  0.98400  0.83020  Biso   1.000  C
  H51      1.0000 0.83230  0.98750  0.83590  Biso   1.000  H
  C52      1.0000 0.35550  0.89090  0.82510  Biso   1.000  C
  H52      1.0000 0.30390  0.85520  0.84910  Biso   1.000  H
  C53      1.0000 0.42420  0.98440  0.74690  Biso   1.000  C
  H53      1.0000 0.43170  0.02590  0.70580  Biso   1.000  H
  C54      1.0000 0.51030  0.95280  0.79960  Biso   1.000  C
  H54      1.0000 0.58610  0.97000  0.80130  Biso   1.000  H
  C55      1.0000 0.76930  0.91070  0.97420  Biso   1.000  C
  H55      1.0000 0.79910  0.84600  0.97800  Biso   1.000  H
  C56      1.0000 0.65140  0.03040  0.95840  Biso   1.000  C
  H56      1.0000 0.58470  0.06730  0.94930  Biso   1.000  H
  C57      1.0000 0.75730  0.06930  0.97430  Biso   1.000  C
  H57      1.0000 0.77520  0.13740  0.97780  Biso   1.000  H
  C58      1.0000 0.60260  0.67740  0.07040  Biso   1.000  C
  H58      1.0000 0.58250  0.62330  0.03800  Biso   1.000  H
  C59      1.0000 0.62980  0.82650  0.11130  Biso   1.000  C
  H59      1.0000 0.63400  0.89630  0.11430  Biso   1.000  H
  C60      1.0000 0.65890  0.76250  0.16880  Biso   1.000  C
  H60      1.0000 0.68550  0.78080  0.21870  Biso   1.000  H
  Cu5      1.0000 0.50000  0.50000  0.50000  Biso   1.000  Cu
  Cu6      1.0000 0.00000  0.00000  0.00000  Biso   1.000  Cu
