data_image0
_cell_length_a       9.784
_cell_length_b       10.5934
_cell_length_c       13.9456
_cell_angle_alpha    95.606
_cell_angle_beta     105.399
_cell_angle_gamma    100.402

_symmetry_space_group_name_H-M    "P 1"
_symmetry_int_tables_number       1

loop_
  _symmetry_equiv_pos_as_xyz
  'x, y, z'

loop_
  _atom_site_label
  _atom_site_occupancy
  _atom_site_fract_x
  _atom_site_fract_y
  _atom_site_fract_z
  _atom_site_thermal_displace_type
  _atom_site_B_iso_or_equiv
  _atom_site_type_symbol
  Nd1      1.0000 0.24259  0.01418  0.96855  Biso   1.000  Nd
  Nd2      1.0000 0.13877  0.55399  0.63880  Biso   1.000  Nd
  O1       1.0000 0.62200  0.02910  0.86710  Biso   1.000  O
  O2       1.0000 0.85300  0.12830  0.90090  Biso   1.000  O
  O3       1.0000 0.79330  0.21260  0.71450  Biso   1.000  O
  O4       1.0000 0.94270  0.38410  0.63270  Biso   1.000  O
  O5       1.0000 0.77130  0.32880  0.48250  Biso   1.000  O
  O6       1.0000 0.24240  0.40290  0.76230  Biso   1.000  O
  O7       1.0000 0.37090  0.60250  0.77440  Biso   1.000  O
  O8       1.0000 0.46190  0.34390  0.90400  Biso   1.000  O
  O9       1.0000 0.47760  0.15000  0.01600  Biso   1.000  O
  O10      1.0000 0.71930  0.20580  0.06540  Biso   1.000  O
  O11      1.0000 0.92080  0.60480  0.52810  Biso   1.000  O
  O12      1.0000 0.69450  0.56820  0.43020  Biso   1.000  O
  O13      1.0000 0.85510  0.74130  0.67700  Biso   1.000  O
  O14      1.0000 0.83880  0.85760  0.91960  Biso   1.000  O
  O15      1.0000 0.02130  0.89100  0.85020  Biso   1.000  O
  C1       1.0000 0.72480  0.09510  0.84200  Biso   1.000  C
  C2       1.0000 0.68980  0.12960  0.73900  Biso   1.000  C
  C3       1.0000 0.57030  0.09010  0.66110  Biso   1.000  C
  H1       1.0000 0.48570  0.03240  0.65950  Biso   1.000  H
  C4       1.0000 0.59810  0.15430  0.58060  Biso   1.000  C
  H2       1.0000 0.53540  0.14690  0.51620  Biso   1.000  H
  C5       1.0000 0.73330  0.22740  0.61680  Biso   1.000  C
  C6       1.0000 0.82330  0.32050  0.57330  Biso   1.000  C
  C7       1.0000 0.35840  0.48950  0.79720  Biso   1.000  C
  C8       1.0000 0.48450  0.45960  0.86870  Biso   1.000  C
  C9       1.0000 0.62440  0.52300  0.90710  Biso   1.000  C
  H3       1.0000 0.66610  0.60330  0.89440  Biso   1.000  H
  C10      1.0000 0.69520  0.44400  0.97010  Biso   1.000  C
  H4       1.0000 0.79270  0.46160  0.00680  Biso   1.000  H
  C11      1.0000 0.59220  0.33630  0.96650  Biso   1.000  C
  C12      1.0000 0.59540  0.22390  0.02010  Biso   1.000  C
  C13      1.0000 0.78820  0.61370  0.51200  Biso   1.000  C
  C14      1.0000 0.74310  0.67530  0.59540  Biso   1.000  C
  C15      1.0000 0.61390  0.67160  0.61380  Biso   1.000  C
  H5       1.0000 0.52270  0.63290  0.57030  Biso   1.000  H
  C16      1.0000 0.64560  0.73940  0.71350  Biso   1.000  C
  H6       1.0000 0.57850  0.75350  0.74760  Biso   1.000  H
  C17      1.0000 0.79140  0.77910  0.74890  Biso   1.000  C
  C18      1.0000 0.89160  0.84900  0.84630  Biso   1.000  C
  Nd3      1.0000 0.75741  0.98582  0.03145  Biso   1.000  Nd
  Nd4      1.0000 0.86123  0.44601  0.36120  Biso   1.000  Nd
  O16      1.0000 0.37800  0.97090  0.13290  Biso   1.000  O
  O17      1.0000 0.14700  0.87170  0.09910  Biso   1.000  O
  O18      1.0000 0.20670  0.78740  0.28550  Biso   1.000  O
  O19      1.0000 0.05730  0.61590  0.36730  Biso   1.000  O
  O20      1.0000 0.22870  0.67120  0.51750  Biso   1.000  O
  O21      1.0000 0.75760  0.59710  0.23770  Biso   1.000  O
  O22      1.0000 0.62910  0.39750  0.22560  Biso   1.000  O
  O23      1.0000 0.53810  0.65610  0.09600  Biso   1.000  O
  O24      1.0000 0.52240  0.85000  0.98400  Biso   1.000  O
  O25      1.0000 0.28070  0.79420  0.93460  Biso   1.000  O
  O26      1.0000 0.07920  0.39520  0.47190  Biso   1.000  O
  O27      1.0000 0.30550  0.43180  0.56980  Biso   1.000  O
  O28      1.0000 0.14490  0.25870  0.32300  Biso   1.000  O
  O29      1.0000 0.16120  0.14240  0.08040  Biso   1.000  O
  O30      1.0000 0.97870  0.10900  0.14980  Biso   1.000  O
  C19      1.0000 0.27520  0.90490  0.15800  Biso   1.000  C
  C20      1.0000 0.31020  0.87040  0.26100  Biso   1.000  C
  C21      1.0000 0.42970  0.90990  0.33890  Biso   1.000  C
  H7       1.0000 0.51430  0.96760  0.34050  Biso   1.000  H
  C22      1.0000 0.40190  0.84570  0.41940  Biso   1.000  C
  H8       1.0000 0.46460  0.85310  0.48380  Biso   1.000  H
  C23      1.0000 0.26670  0.77260  0.38320  Biso   1.000  C
  C24      1.0000 0.17670  0.67950  0.42670  Biso   1.000  C
  C25      1.0000 0.64160  0.51050  0.20280  Biso   1.000  C
  C26      1.0000 0.51550  0.54040  0.13130  Biso   1.000  C
  C27      1.0000 0.37560  0.47700  0.09290  Biso   1.000  C
  H9       1.0000 0.33390  0.39670  0.10560  Biso   1.000  H
  C28      1.0000 0.30480  0.55600  0.02990  Biso   1.000  C
  H10      1.0000 0.20730  0.53840  0.99320  Biso   1.000  H
  C29      1.0000 0.40780  0.66370  0.03350  Biso   1.000  C
  C30      1.0000 0.40460  0.77610  0.97990  Biso   1.000  C
  C31      1.0000 0.21180  0.38630  0.48800  Biso   1.000  C
  C32      1.0000 0.25690  0.32470  0.40460  Biso   1.000  C
  C33      1.0000 0.38610  0.32840  0.38620  Biso   1.000  C
  H11      1.0000 0.47730  0.36710  0.42970  Biso   1.000  H
  C34      1.0000 0.35440  0.26060  0.28650  Biso   1.000  C
  H12      1.0000 0.42150  0.24650  0.25240  Biso   1.000  H
  C35      1.0000 0.20860  0.22090  0.25110  Biso   1.000  C
  C36      1.0000 0.10840  0.15100  0.15370  Biso   1.000  C
