data_image0
_cell_length_a       14.761
_cell_length_b       15.739
_cell_length_c       15.988
_cell_angle_alpha    100.514
_cell_angle_beta     111.588
_cell_angle_gamma    106.821

_symmetry_space_group_name_H-M    "P 1"
_symmetry_int_tables_number       1

loop_
  _symmetry_equiv_pos_as_xyz
  'x, y, z'

loop_
  _atom_site_label
  _atom_site_occupancy
  _atom_site_fract_x
  _atom_site_fract_y
  _atom_site_fract_z
  _atom_site_thermal_displace_type
  _atom_site_B_iso_or_equiv
  _atom_site_type_symbol
  Cd1      1.0000 0.62774  0.77508  0.80497  Biso   1.000  Cd
  Cd2      1.0000 0.78235  0.76769  0.06328  Biso   1.000  Cd
  Cd3      1.0000 0.69425  0.58049  0.82189  Biso   1.000  Cd
  C1       1.0000 0.87290  0.82660  0.25580  Biso   1.000  C
  C2       1.0000 0.92640  0.85470  0.36440  Biso   1.000  C
  C3       1.0000 0.03190  0.88010  0.41400  Biso   1.000  C
  H1       1.0000 0.07370  0.88350  0.38210  Biso   1.000  H
  C4       1.0000 0.07840  0.90130  0.51170  Biso   1.000  C
  H2       1.0000 0.15090  0.91750  0.54470  Biso   1.000  H
  C5       1.0000 0.01870  0.89850  0.56050  Biso   1.000  C
  C6       1.0000 0.91040  0.87720  0.50960  Biso   1.000  C
  H3       1.0000 0.86950  0.87850  0.54210  Biso   1.000  H
  C7       1.0000 0.86350  0.85440  0.41160  Biso   1.000  C
  H4       1.0000 0.79140  0.83920  0.37780  Biso   1.000  H
  C8       1.0000 0.06800  0.92240  0.66680  Biso   1.000  C
  H5       1.0000 0.14000  0.92560  0.68970  Biso   1.000  H
  H6       1.0000 0.07080  0.98360  0.69540  Biso   1.000  H
  C9       1.0000 0.00340  0.75710  0.65970  Biso   1.000  C
  H7       1.0000 0.96450  0.73480  0.59080  Biso   1.000  H
  H8       1.0000 0.96460  0.71510  0.68340  Biso   1.000  H
  C10      1.0000 0.10990  0.75240  0.68690  Biso   1.000  C
  C11      1.0000 0.14820  0.74370  0.61900  Biso   1.000  C
  H9       1.0000 0.10440  0.73510  0.55620  Biso   1.000  H
  C12      1.0000 0.24980  0.74750  0.64310  Biso   1.000  C
  H10      1.0000 0.27250  0.73890  0.59630  Biso   1.000  H
  C13      1.0000 0.31740  0.76400  0.73630  Biso   1.000  C
  C14      1.0000 0.27970  0.77120  0.80540  Biso   1.000  C
  H11      1.0000 0.32350  0.77960  0.86800  Biso   1.000  H
  C15      1.0000 0.17760  0.76580  0.77960  Biso   1.000  C
  H12      1.0000 0.15370  0.77140  0.82580  Biso   1.000  H
  C16      1.0000 0.43130  0.77400  0.76510  Biso   1.000  C
  C17      1.0000 0.02850  0.88030  0.79330  Biso   1.000  C
  C18      1.0000 0.95430  0.82960  0.81940  Biso   1.000  C
  H13      1.0000 0.89300  0.77980  0.77310  Biso   1.000  H
  C19      1.0000 0.97080  0.85230  0.91240  Biso   1.000  C
  C20      1.0000 0.06270  0.92600  0.98260  Biso   1.000  C
  H14      1.0000 0.07590  0.93900  0.04610  Biso   1.000  H
  C21      1.0000 0.13470  0.98000  0.95720  Biso   1.000  C
  C22      1.0000 0.11670  0.95720  0.86310  Biso   1.000  C
  H15      1.0000 0.16450  0.99400  0.84630  Biso   1.000  H
  C23      1.0000 0.88840  0.80030  0.93800  Biso   1.000  C
  C24      1.0000 0.22820  0.06570  0.03060  Biso   1.000  C
  C25      1.0000 0.66650  0.62970  0.57510  Biso   1.000  C
  C26      1.0000 0.65080  0.53660  0.55790  Biso   1.000  C
  H16      1.0000 0.61810  0.50240  0.58790  Biso   1.000  H
  C27      1.0000 0.68230  0.49190  0.49680  Biso   1.000  C
  H17      1.0000 0.67140  0.42890  0.48660  Biso   1.000  H
  C28      1.0000 0.73080  0.54300  0.45090  Biso   1.000  C
  C29      1.0000 0.73910  0.63420  0.46210  Biso   1.000  C
  H18      1.0000 0.76610  0.66730  0.42820  Biso   1.000  H
  C30      1.0000 0.70720  0.67720  0.52440  Biso   1.000  C
  H19      1.0000 0.71360  0.73900  0.53170  Biso   1.000  H
  C31      1.0000 0.64350  0.67890  0.64940  Biso   1.000  C
  C32      1.0000 0.77840  0.49640  0.39470  Biso   1.000  C
  H20      1.0000 0.84290  0.49460  0.43950  Biso   1.000  H
  H21      1.0000 0.72920  0.43200  0.35810  Biso   1.000  H
  C33      1.0000 0.90670  0.61470  0.36630  Biso   1.000  C
  H22      1.0000 0.92600  0.67520  0.40460  Biso   1.000  H
  C34      1.0000 0.98250  0.58470  0.33780  Biso   1.000  C
  C35      1.0000 0.96210  0.49250  0.29700  Biso   1.000  C
  H23      1.0000 0.90100  0.44620  0.28930  Biso   1.000  H
  C36      1.0000 0.03030  0.46580  0.26670  Biso   1.000  C
  H24      1.0000 0.01410  0.40280  0.23830  Biso   1.000  H
  C37      1.0000 0.12420  0.53600  0.27980  Biso   1.000  C
  C38      1.0000 0.14660  0.62840  0.32300  Biso   1.000  C
  H25      1.0000 0.20900  0.67480  0.33330  Biso   1.000  H
  C39      1.0000 0.07710  0.65320  0.35140  Biso   1.000  C
  H26      1.0000 0.09340  0.71610  0.38000  Biso   1.000  H
  C40      1.0000 0.19430  0.50360  0.24410  Biso   1.000  C
  C41      1.0000 0.73140  0.51530  0.23590  Biso   1.000  C
  C42      1.0000 0.76110  0.54710  0.16860  Biso   1.000  C
  H27      1.0000 0.82860  0.59190  0.18900  Biso   1.000  H
  C43      1.0000 0.69110  0.51250  0.07360  Biso   1.000  C
  C44      1.0000 0.58820  0.44630  0.04040  Biso   1.000  C
  H28      1.0000 0.54230  0.42110  0.97580  Biso   1.000  H
  C45      1.0000 0.55600  0.41880  0.10680  Biso   1.000  C
  C46      1.0000 0.62580  0.45330  0.20250  Biso   1.000  C
  H29      1.0000 0.60260  0.43530  0.24570  Biso   1.000  H
  C47      1.0000 0.44350  0.35510  0.07200  Biso   1.000  C
  C48      1.0000 0.72210  0.54640  0.00240  Biso   1.000  C
  O1       1.0000 0.92910  0.82600  0.21530  Biso   1.000  O
  O2       1.0000 0.78020  0.80660  0.21250  Biso   1.000  O
  O3       1.0000 0.49210  0.79700  0.84880  Biso   1.000  O
  O4       1.0000 0.45700  0.75580  0.70170  Biso   1.000  O
  O5       1.0000 0.79760  0.74570  0.87310  Biso   1.000  O
  O6       1.0000 0.91390  0.81830  0.02550  Biso   1.000  O
  O7       1.0000 0.27620  0.12660  0.00430  Biso   1.000  O
  O8       1.0000 0.25630  0.07340  0.11740  Biso   1.000  O
  O9       1.0000 0.65810  0.76370  0.66470  Biso   1.000  O
  O10      1.0000 0.61290  0.63370  0.69850  Biso   1.000  O
  O11      1.0000 0.28300  0.56730  0.26600  Biso   1.000  O
  O12      1.0000 0.16720  0.42470  0.20040  Biso   1.000  O
  O13      1.0000 0.38960  0.31370  0.98590  Biso   1.000  O
  O14      1.0000 0.40850  0.34790  0.13380  Biso   1.000  O
  O15      1.0000 0.66630  0.49750  0.91650  Biso   1.000  O
  O16      1.0000 0.79880  0.62360  0.02980  Biso   1.000  O
  N1       1.0000 0.00780  0.85240  0.69630  Biso   1.000  N
  N2       1.0000 0.80270  0.54330  0.33010  Biso   1.000  N
  Cd4      1.0000 0.37226  0.22492  0.19503  Biso   1.000  Cd
  Cd5      1.0000 0.21765  0.23231  0.93672  Biso   1.000  Cd
  Cd6      1.0000 0.30575  0.41951  0.17811  Biso   1.000  Cd
  C49      1.0000 0.12710  0.17340  0.74420  Biso   1.000  C
  C50      1.0000 0.07360  0.14530  0.63560  Biso   1.000  C
  C51      1.0000 0.96810  0.11990  0.58600  Biso   1.000  C
  H30      1.0000 0.92630  0.11650  0.61790  Biso   1.000  H
  C52      1.0000 0.92160  0.09870  0.48830  Biso   1.000  C
  H31      1.0000 0.84910  0.08250  0.45530  Biso   1.000  H
  C53      1.0000 0.98130  0.10150  0.43950  Biso   1.000  C
  C54      1.0000 0.08960  0.12280  0.49040  Biso   1.000  C
  H32      1.0000 0.13050  0.12150  0.45790  Biso   1.000  H
  C55      1.0000 0.13650  0.14560  0.58840  Biso   1.000  C
  H33      1.0000 0.20860  0.16080  0.62220  Biso   1.000  H
  C56      1.0000 0.93200  0.07760  0.33320  Biso   1.000  C
  H34      1.0000 0.86000  0.07440  0.31030  Biso   1.000  H
  H35      1.0000 0.92920  0.01640  0.30460  Biso   1.000  H
  C57      1.0000 0.99660  0.24290  0.34030  Biso   1.000  C
  H36      1.0000 0.03550  0.26520  0.40920  Biso   1.000  H
  H37      1.0000 0.03540  0.28490  0.31660  Biso   1.000  H
  C58      1.0000 0.89010  0.24760  0.31310  Biso   1.000  C
  C59      1.0000 0.85180  0.25630  0.38100  Biso   1.000  C
  H38      1.0000 0.89560  0.26490  0.44380  Biso   1.000  H
  C60      1.0000 0.75020  0.25250  0.35690  Biso   1.000  C
  H39      1.0000 0.72750  0.26110  0.40370  Biso   1.000  H
  C61      1.0000 0.68260  0.23600  0.26370  Biso   1.000  C
  C62      1.0000 0.72030  0.22880  0.19460  Biso   1.000  C
  H40      1.0000 0.67650  0.22040  0.13200  Biso   1.000  H
  C63      1.0000 0.82240  0.23420  0.22040  Biso   1.000  C
  H41      1.0000 0.84630  0.22860  0.17420  Biso   1.000  H
  C64      1.0000 0.56870  0.22600  0.23490  Biso   1.000  C
  C65      1.0000 0.97150  0.11970  0.20670  Biso   1.000  C
  C66      1.0000 0.04570  0.17040  0.18060  Biso   1.000  C
  H42      1.0000 0.10700  0.22020  0.22690  Biso   1.000  H
  C67      1.0000 0.02920  0.14770  0.08760  Biso   1.000  C
  C68      1.0000 0.93730  0.07400  0.01740  Biso   1.000  C
  H43      1.0000 0.92410  0.06100  0.95390  Biso   1.000  H
  C69      1.0000 0.86530  0.02000  0.04280  Biso   1.000  C
  C70      1.0000 0.88330  0.04280  0.13690  Biso   1.000  C
  H44      1.0000 0.83550  0.00600  0.15370  Biso   1.000  H
  C71      1.0000 0.11160  0.19970  0.06200  Biso   1.000  C
  C72      1.0000 0.77180  0.93430  0.96940  Biso   1.000  C
  C73      1.0000 0.33350  0.37030  0.42490  Biso   1.000  C
  C74      1.0000 0.34920  0.46340  0.44210  Biso   1.000  C
  H45      1.0000 0.38190  0.49760  0.41210  Biso   1.000  H
  C75      1.0000 0.31770  0.50810  0.50320  Biso   1.000  C
  H46      1.0000 0.32860  0.57110  0.51340  Biso   1.000  H
  C76      1.0000 0.26920  0.45700  0.54910  Biso   1.000  C
  C77      1.0000 0.26090  0.36580  0.53790  Biso   1.000  C
  H47      1.0000 0.23390  0.33270  0.57180  Biso   1.000  H
  C78      1.0000 0.29280  0.32280  0.47560  Biso   1.000  C
  H48      1.0000 0.28640  0.26100  0.46830  Biso   1.000  H
  C79      1.0000 0.35650  0.32110  0.35060  Biso   1.000  C
  C80      1.0000 0.22160  0.50360  0.60530  Biso   1.000  C
  H49      1.0000 0.15710  0.50540  0.56050  Biso   1.000  H
  H50      1.0000 0.27080  0.56800  0.64190  Biso   1.000  H
  C81      1.0000 0.09330  0.38530  0.63370  Biso   1.000  C
  H51      1.0000 0.07400  0.32480  0.59540  Biso   1.000  H
  C82      1.0000 0.01750  0.41530  0.66220  Biso   1.000  C
  C83      1.0000 0.03790  0.50750  0.70300  Biso   1.000  C
  H52      1.0000 0.09900  0.55380  0.71070  Biso   1.000  H
  C84      1.0000 0.96970  0.53420  0.73330  Biso   1.000  C
  H53      1.0000 0.98590  0.59720  0.76170  Biso   1.000  H
  C85      1.0000 0.87580  0.46400  0.72020  Biso   1.000  C
  C86      1.0000 0.85340  0.37160  0.67700  Biso   1.000  C
  H54      1.0000 0.79100  0.32520  0.66670  Biso   1.000  H
  C87      1.0000 0.92290  0.34680  0.64860  Biso   1.000  C
  H55      1.0000 0.90660  0.28390  0.62000  Biso   1.000  H
  C88      1.0000 0.80570  0.49640  0.75590  Biso   1.000  C
  C89      1.0000 0.26860  0.48470  0.76410  Biso   1.000  C
  C90      1.0000 0.23890  0.45290  0.83140  Biso   1.000  C
  H56      1.0000 0.17140  0.40810  0.81100  Biso   1.000  H
  C91      1.0000 0.30890  0.48750  0.92640  Biso   1.000  C
  C92      1.0000 0.41180  0.55370  0.95960  Biso   1.000  C
  H57      1.0000 0.45770  0.57890  0.02420  Biso   1.000  H
  C93      1.0000 0.44400  0.58120  0.89320  Biso   1.000  C
  C94      1.0000 0.37420  0.54670  0.79750  Biso   1.000  C
  H58      1.0000 0.39740  0.56470  0.75430  Biso   1.000  H
  C95      1.0000 0.55650  0.64490  0.92800  Biso   1.000  C
  C96      1.0000 0.27790  0.45360  0.99760  Biso   1.000  C
  O17      1.0000 0.07090  0.17400  0.78470  Biso   1.000  O
  O18      1.0000 0.21980  0.19340  0.78750  Biso   1.000  O
  O19      1.0000 0.50790  0.20300  0.15120  Biso   1.000  O
  O20      1.0000 0.54300  0.24420  0.29830  Biso   1.000  O
  O21      1.0000 0.20240  0.25430  0.12690  Biso   1.000  O
  O22      1.0000 0.08610  0.18170  0.97450  Biso   1.000  O
  O23      1.0000 0.72380  0.87340  0.99570  Biso   1.000  O
  O24      1.0000 0.74370  0.92660  0.88260  Biso   1.000  O
  O25      1.0000 0.34190  0.23630  0.33530  Biso   1.000  O
  O26      1.0000 0.38710  0.36630  0.30150  Biso   1.000  O
  O27      1.0000 0.71700  0.43270  0.73400  Biso   1.000  O
  O28      1.0000 0.83280  0.57530  0.79960  Biso   1.000  O
  O29      1.0000 0.61040  0.68630  0.01410  Biso   1.000  O
  O30      1.0000 0.59150  0.65210  0.86620  Biso   1.000  O
  O31      1.0000 0.33370  0.50250  0.08350  Biso   1.000  O
  O32      1.0000 0.20120  0.37640  0.97020  Biso   1.000  O
  N3       1.0000 0.99220  0.14760  0.30370  Biso   1.000  N
  N4       1.0000 0.19730  0.45670  0.66990  Biso   1.000  N
