data_image0
_cell_length_a       15.5074
_cell_length_b       13.298
_cell_length_c       10.6553
_cell_angle_alpha    90
_cell_angle_beta     103.131
_cell_angle_gamma    90

_symmetry_space_group_name_H-M    "P 1"
_symmetry_int_tables_number       1

loop_
  _symmetry_equiv_pos_as_xyz
  'x, y, z'

loop_
  _atom_site_label
  _atom_site_occupancy
  _atom_site_fract_x
  _atom_site_fract_y
  _atom_site_fract_z
  _atom_site_thermal_displace_type
  _atom_site_B_iso_or_equiv
  _atom_site_type_symbol
  In1      1.0000 0.37553  0.66421  0.48304  Biso   1.000  In
  In2      1.0000 0.12045  0.66708  0.50012  Biso   1.000  In
  O1       1.0000 0.33310  0.63560  0.27260  Biso   1.000  O
  O2       1.0000 0.33770  0.69870  0.08060  Biso   1.000  O
  O3       1.0000 0.41810  0.79750  0.38550  Biso   1.000  O
  O4       1.0000 0.42710  0.85780  0.19400  Biso   1.000  O
  O5       1.0000 0.07700  0.80010  0.59910  Biso   1.000  O
  O6       1.0000 0.06190  0.85270  0.79170  Biso   1.000  O
  O7       1.0000 0.16930  0.64080  0.70900  Biso   1.000  O
  O8       1.0000 0.15930  0.69650  0.90120  Biso   1.000  O
  O9       1.0000 0.51420  0.62940  0.48520  Biso   1.000  O
  O10      1.0000 0.61330  0.50630  0.51110  Biso   1.000  O
  O11      1.0000 0.98440  0.62960  0.51240  Biso   1.000  O
  O12      1.0000 0.88930  0.50450  0.50390  Biso   1.000  O
  O13      1.0000 0.24660  0.61930  0.48540  Biso   1.000  O
  C1       1.0000 0.35370  0.70150  0.20040  Biso   1.000  C
  C2       1.0000 0.40380  0.79390  0.26630  Biso   1.000  C
  C3       1.0000 0.08970  0.79360  0.71770  Biso   1.000  C
  C4       1.0000 0.14450  0.70260  0.78250  Biso   1.000  C
  C5       1.0000 0.53700  0.53880  0.49930  Biso   1.000  C
  C6       1.0000 0.96280  0.53830  0.50520  Biso   1.000  C
  In3      1.0000 0.62447  0.16421  0.01696  Biso   1.000  In
  In4      1.0000 0.87955  0.16708  0.99988  Biso   1.000  In
  O14      1.0000 0.66690  0.13560  0.22740  Biso   1.000  O
  O15      1.0000 0.66230  0.19870  0.41940  Biso   1.000  O
  O16      1.0000 0.58190  0.29750  0.11450  Biso   1.000  O
  O17      1.0000 0.57290  0.35780  0.30600  Biso   1.000  O
  O18      1.0000 0.92300  0.30010  0.90090  Biso   1.000  O
  O19      1.0000 0.93810  0.35270  0.70830  Biso   1.000  O
  O20      1.0000 0.83070  0.14080  0.79100  Biso   1.000  O
  O21      1.0000 0.84070  0.19650  0.59880  Biso   1.000  O
  O22      1.0000 0.48580  0.12940  0.01480  Biso   1.000  O
  O23      1.0000 0.38670  0.00630  0.98890  Biso   1.000  O
  O24      1.0000 0.01560  0.12960  0.98760  Biso   1.000  O
  O25      1.0000 0.11070  0.00450  0.99610  Biso   1.000  O
  O26      1.0000 0.75340  0.11930  0.01460  Biso   1.000  O
  C7       1.0000 0.64630  0.20150  0.29960  Biso   1.000  C
  C8       1.0000 0.59620  0.29390  0.23370  Biso   1.000  C
  C9       1.0000 0.91030  0.29360  0.78230  Biso   1.000  C
  C10      1.0000 0.85550  0.20260  0.71750  Biso   1.000  C
  C11      1.0000 0.46300  0.03880  0.00070  Biso   1.000  C
  C12      1.0000 0.03720  0.03830  0.99480  Biso   1.000  C
  In5      1.0000 0.62447  0.33579  0.51696  Biso   1.000  In
  In6      1.0000 0.87955  0.33292  0.49988  Biso   1.000  In
  O27      1.0000 0.66690  0.36440  0.72740  Biso   1.000  O
  O28      1.0000 0.66230  0.30130  0.91940  Biso   1.000  O
  O29      1.0000 0.58190  0.20250  0.61450  Biso   1.000  O
  O30      1.0000 0.57290  0.14220  0.80600  Biso   1.000  O
  O31      1.0000 0.92300  0.19990  0.40090  Biso   1.000  O
  O32      1.0000 0.93810  0.14730  0.20830  Biso   1.000  O
  O33      1.0000 0.83070  0.35920  0.29100  Biso   1.000  O
  O34      1.0000 0.84070  0.30350  0.09880  Biso   1.000  O
  O35      1.0000 0.48580  0.37060  0.51480  Biso   1.000  O
  O36      1.0000 0.38670  0.49370  0.48890  Biso   1.000  O
  O37      1.0000 0.01560  0.37040  0.48760  Biso   1.000  O
  O38      1.0000 0.11070  0.49550  0.49610  Biso   1.000  O
  O39      1.0000 0.75340  0.38070  0.51460  Biso   1.000  O
  C13      1.0000 0.64630  0.29850  0.79960  Biso   1.000  C
  C14      1.0000 0.59620  0.20610  0.73370  Biso   1.000  C
  C15      1.0000 0.91030  0.20640  0.28230  Biso   1.000  C
  C16      1.0000 0.85550  0.29740  0.21750  Biso   1.000  C
  C17      1.0000 0.46300  0.46120  0.50070  Biso   1.000  C
  C18      1.0000 0.03720  0.46170  0.49480  Biso   1.000  C
  In7      1.0000 0.37553  0.83579  0.98304  Biso   1.000  In
  In8      1.0000 0.12045  0.83292  0.00012  Biso   1.000  In
  O40      1.0000 0.33310  0.86440  0.77260  Biso   1.000  O
  O41      1.0000 0.33770  0.80130  0.58060  Biso   1.000  O
  O42      1.0000 0.41810  0.70250  0.88550  Biso   1.000  O
  O43      1.0000 0.42710  0.64220  0.69400  Biso   1.000  O
  O44      1.0000 0.07700  0.69990  0.09910  Biso   1.000  O
  O45      1.0000 0.06190  0.64730  0.29170  Biso   1.000  O
  O46      1.0000 0.16930  0.85920  0.20900  Biso   1.000  O
  O47      1.0000 0.15930  0.80350  0.40120  Biso   1.000  O
  O48      1.0000 0.51420  0.87060  0.98520  Biso   1.000  O
  O49      1.0000 0.61330  0.99370  0.01110  Biso   1.000  O
  O50      1.0000 0.98440  0.87040  0.01240  Biso   1.000  O
  O51      1.0000 0.88930  0.99550  0.00390  Biso   1.000  O
  O52      1.0000 0.24660  0.88070  0.98540  Biso   1.000  O
  C19      1.0000 0.35370  0.79850  0.70040  Biso   1.000  C
  C20      1.0000 0.40380  0.70610  0.76630  Biso   1.000  C
  C21      1.0000 0.08970  0.70640  0.21770  Biso   1.000  C
  C22      1.0000 0.14450  0.79740  0.28250  Biso   1.000  C
  C23      1.0000 0.53700  0.96120  0.99930  Biso   1.000  C
  C24      1.0000 0.96280  0.96170  0.00520  Biso   1.000  C
