data_image0
_cell_length_a       17.7003
_cell_length_b       17.7003
_cell_length_c       13.9208
_cell_angle_alpha    90
_cell_angle_beta     90
_cell_angle_gamma    120

_symmetry_space_group_name_H-M    "P 1"
_symmetry_int_tables_number       1

loop_
  _symmetry_equiv_pos_as_xyz
  'x, y, z'

loop_
  _atom_site_label
  _atom_site_occupancy
  _atom_site_fract_x
  _atom_site_fract_y
  _atom_site_fract_z
  _atom_site_thermal_displace_type
  _atom_site_B_iso_or_equiv
  _atom_site_type_symbol
  Cu1      1.0000 0.87458  0.43353  0.63546  Biso   1.000  Cu
  Cu2      1.0000 0.87357  0.42928  0.39020  Biso   1.000  Cu
  O1       1.0000 0.84350  0.37490  0.51150  Biso   1.000  O
  H1       1.0000 0.83900  0.32600  0.51100  Biso   1.000  H
  O2       1.0000 0.22840  0.54800  0.14050  Biso   1.000  O
  O3       1.0000 0.29610  0.49560  0.22850  Biso   1.000  O
  O4       1.0000 0.01150  0.56050  0.15940  Biso   1.000  O
  O5       1.0000 0.77380  0.45050  0.38650  Biso   1.000  O
  O6       1.0000 0.99020  0.43640  0.36800  Biso   1.000  O
  O7       1.0000 0.70560  0.50270  0.29710  Biso   1.000  O
  N1       1.0000 0.90350  0.49950  0.27650  Biso   1.000  N
  N2       1.0000 0.09790  0.50030  0.25180  Biso   1.000  N
  C1       1.0000 0.23370  0.50930  0.21280  Biso   1.000  C
  C2       1.0000 0.15560  0.46950  0.28420  Biso   1.000  C
  H2       1.0000 0.17550  0.48820  0.35170  Biso   1.000  H
  C3       1.0000 0.10910  0.36340  0.27250  Biso   1.000  C
  H3       1.0000 0.05980  0.33500  0.31700  Biso   1.000  H
  H4       1.0000 0.15160  0.34490  0.28720  Biso   1.000  H
  H5       1.0000 0.08830  0.34690  0.20650  Biso   1.000  H
  C4       1.0000 0.97560  0.51830  0.23500  Biso   1.000  C
  C5       1.0000 0.02370  0.48140  0.29030  Biso   1.000  C
  C6       1.0000 0.76770  0.49160  0.31110  Biso   1.000  C
  C7       1.0000 0.83850  0.51880  0.23610  Biso   1.000  C
  H6       1.0000 0.86540  0.58240  0.22120  Biso   1.000  H
  C8       1.0000 0.79560  0.46060  0.14070  Biso   1.000  C
  H7       1.0000 0.83970  0.47990  0.08980  Biso   1.000  H
  H8       1.0000 0.74680  0.46770  0.11920  Biso   1.000  H
  H9       1.0000 0.77440  0.39910  0.15540  Biso   1.000  H
  Cu3      1.0000 0.56647  0.44105  0.63546  Biso   1.000  Cu
  Cu4      1.0000 0.57072  0.44429  0.39020  Biso   1.000  Cu
  O8       1.0000 0.62510  0.46860  0.51150  Biso   1.000  O
  H10      1.0000 0.67400  0.51300  0.51100  Biso   1.000  H
  O9       1.0000 0.45200  0.68040  0.14050  Biso   1.000  O
  O10      1.0000 0.50440  0.80050  0.22850  Biso   1.000  O
  O11      1.0000 0.43950  0.45100  0.15940  Biso   1.000  O
  O12      1.0000 0.54950  0.32330  0.38650  Biso   1.000  O
  O13      1.0000 0.56360  0.55380  0.36800  Biso   1.000  O
  O14      1.0000 0.49730  0.20290  0.29710  Biso   1.000  O
  N3       1.0000 0.50050  0.40400  0.27650  Biso   1.000  N
  N4       1.0000 0.49970  0.59760  0.25180  Biso   1.000  N
  C9       1.0000 0.49070  0.72440  0.21280  Biso   1.000  C
  C10      1.0000 0.53050  0.68610  0.28420  Biso   1.000  C
  H11      1.0000 0.51180  0.68730  0.35170  Biso   1.000  H
  C11      1.0000 0.63660  0.74570  0.27250  Biso   1.000  C
  H12      1.0000 0.66500  0.72480  0.31700  Biso   1.000  H
  H13      1.0000 0.65510  0.80670  0.28720  Biso   1.000  H
  H14      1.0000 0.65310  0.74140  0.20650  Biso   1.000  H
  C12      1.0000 0.48170  0.45730  0.23500  Biso   1.000  C
  C13      1.0000 0.51860  0.54230  0.29030  Biso   1.000  C
  C14      1.0000 0.50840  0.27610  0.31110  Biso   1.000  C
  C15      1.0000 0.48120  0.31970  0.23610  Biso   1.000  C
  H15      1.0000 0.41760  0.28300  0.22120  Biso   1.000  H
  C16      1.0000 0.53940  0.33500  0.14070  Biso   1.000  C
  H16      1.0000 0.52010  0.35980  0.08980  Biso   1.000  H
  H17      1.0000 0.53230  0.27910  0.11920  Biso   1.000  H
  H18      1.0000 0.60090  0.37530  0.15540  Biso   1.000  H
  Cu5      1.0000 0.55895  0.12542  0.63546  Biso   1.000  Cu
  Cu6      1.0000 0.55571  0.12643  0.39020  Biso   1.000  Cu
  O15      1.0000 0.53140  0.15650  0.51150  Biso   1.000  O
  H19      1.0000 0.48700  0.16100  0.51100  Biso   1.000  H
  O16      1.0000 0.31960  0.77160  0.14050  Biso   1.000  O
  O17      1.0000 0.19950  0.70390  0.22850  Biso   1.000  O
  O18      1.0000 0.54900  0.98850  0.15940  Biso   1.000  O
  O19      1.0000 0.67670  0.22620  0.38650  Biso   1.000  O
  O20      1.0000 0.44620  0.00980  0.36800  Biso   1.000  O
  O21      1.0000 0.79710  0.29440  0.29710  Biso   1.000  O
  N5       1.0000 0.59600  0.09650  0.27650  Biso   1.000  N
  N6       1.0000 0.40240  0.90210  0.25180  Biso   1.000  N
  C17      1.0000 0.27560  0.76630  0.21280  Biso   1.000  C
  C18      1.0000 0.31390  0.84440  0.28420  Biso   1.000  C
  H20      1.0000 0.31270  0.82450  0.35170  Biso   1.000  H
  C19      1.0000 0.25430  0.89090  0.27250  Biso   1.000  C
  H21      1.0000 0.27520  0.94020  0.31700  Biso   1.000  H
  H22      1.0000 0.19330  0.84840  0.28720  Biso   1.000  H
  H23      1.0000 0.25860  0.91170  0.20650  Biso   1.000  H
  C20      1.0000 0.54270  0.02440  0.23500  Biso   1.000  C
  C21      1.0000 0.45770  0.97630  0.29030  Biso   1.000  C
  C22      1.0000 0.72390  0.23230  0.31110  Biso   1.000  C
  C23      1.0000 0.68030  0.16150  0.23610  Biso   1.000  C
  H24      1.0000 0.71700  0.13460  0.22120  Biso   1.000  H
  C24      1.0000 0.66500  0.20440  0.14070  Biso   1.000  C
  H25      1.0000 0.64020  0.16030  0.08980  Biso   1.000  H
  H26      1.0000 0.72090  0.25320  0.11920  Biso   1.000  H
  H27      1.0000 0.62470  0.22560  0.15540  Biso   1.000  H
  Cu7      1.0000 0.12542  0.56647  0.13546  Biso   1.000  Cu
  Cu8      1.0000 0.12643  0.57072  0.89020  Biso   1.000  Cu
  O22      1.0000 0.15650  0.62510  0.01150  Biso   1.000  O
  H28      1.0000 0.16100  0.67400  0.01100  Biso   1.000  H
  O23      1.0000 0.77160  0.45200  0.64050  Biso   1.000  O
  O24      1.0000 0.70390  0.50440  0.72850  Biso   1.000  O
  O25      1.0000 0.98850  0.43950  0.65940  Biso   1.000  O
  O26      1.0000 0.22620  0.54950  0.88650  Biso   1.000  O
  O27      1.0000 0.00980  0.56360  0.86800  Biso   1.000  O
  O28      1.0000 0.29440  0.49730  0.79710  Biso   1.000  O
  N7       1.0000 0.09650  0.50050  0.77650  Biso   1.000  N
  N8       1.0000 0.90210  0.49970  0.75180  Biso   1.000  N
  C25      1.0000 0.76630  0.49070  0.71280  Biso   1.000  C
  C26      1.0000 0.84440  0.53050  0.78420  Biso   1.000  C
  H29      1.0000 0.82450  0.51180  0.85170  Biso   1.000  H
  C27      1.0000 0.89090  0.63660  0.77250  Biso   1.000  C
  H30      1.0000 0.94020  0.66500  0.81700  Biso   1.000  H
  H31      1.0000 0.84840  0.65510  0.78720  Biso   1.000  H
  H32      1.0000 0.91170  0.65310  0.70650  Biso   1.000  H
  C28      1.0000 0.02440  0.48170  0.73500  Biso   1.000  C
  C29      1.0000 0.97630  0.51860  0.79030  Biso   1.000  C
  C30      1.0000 0.23230  0.50840  0.81110  Biso   1.000  C
  C31      1.0000 0.16150  0.48120  0.73610  Biso   1.000  C
  H33      1.0000 0.13460  0.41760  0.72120  Biso   1.000  H
  C32      1.0000 0.20440  0.53940  0.64070  Biso   1.000  C
  H34      1.0000 0.16030  0.52010  0.58980  Biso   1.000  H
  H35      1.0000 0.25320  0.53230  0.61920  Biso   1.000  H
  H36      1.0000 0.22560  0.60090  0.65540  Biso   1.000  H
  Cu9      1.0000 0.43353  0.55895  0.13546  Biso   1.000  Cu
  Cu10     1.0000 0.42928  0.55571  0.89020  Biso   1.000  Cu
  O29      1.0000 0.37490  0.53140  0.01150  Biso   1.000  O
  H37      1.0000 0.32600  0.48700  0.01100  Biso   1.000  H
  O30      1.0000 0.54800  0.31960  0.64050  Biso   1.000  O
  O31      1.0000 0.49560  0.19950  0.72850  Biso   1.000  O
  O32      1.0000 0.56050  0.54900  0.65940  Biso   1.000  O
  O33      1.0000 0.45050  0.67670  0.88650  Biso   1.000  O
  O34      1.0000 0.43640  0.44620  0.86800  Biso   1.000  O
  O35      1.0000 0.50270  0.79710  0.79710  Biso   1.000  O
  N9       1.0000 0.49950  0.59600  0.77650  Biso   1.000  N
  N10      1.0000 0.50030  0.40240  0.75180  Biso   1.000  N
  C33      1.0000 0.50930  0.27560  0.71280  Biso   1.000  C
  C34      1.0000 0.46950  0.31390  0.78420  Biso   1.000  C
  H38      1.0000 0.48820  0.31270  0.85170  Biso   1.000  H
  C35      1.0000 0.36340  0.25430  0.77250  Biso   1.000  C
  H39      1.0000 0.33500  0.27520  0.81700  Biso   1.000  H
  H40      1.0000 0.34490  0.19330  0.78720  Biso   1.000  H
  H41      1.0000 0.34690  0.25860  0.70650  Biso   1.000  H
  C36      1.0000 0.51830  0.54270  0.73500  Biso   1.000  C
  C37      1.0000 0.48140  0.45770  0.79030  Biso   1.000  C
  C38      1.0000 0.49160  0.72390  0.81110  Biso   1.000  C
  C39      1.0000 0.51880  0.68030  0.73610  Biso   1.000  C
  H42      1.0000 0.58240  0.71700  0.72120  Biso   1.000  H
  C40      1.0000 0.46060  0.66500  0.64070  Biso   1.000  C
  H43      1.0000 0.47990  0.64020  0.58980  Biso   1.000  H
  H44      1.0000 0.46770  0.72090  0.61920  Biso   1.000  H
  H45      1.0000 0.39910  0.62470  0.65540  Biso   1.000  H
  Cu11     1.0000 0.44105  0.87458  0.13546  Biso   1.000  Cu
  Cu12     1.0000 0.44429  0.87357  0.89020  Biso   1.000  Cu
  O36      1.0000 0.46860  0.84350  0.01150  Biso   1.000  O
  H46      1.0000 0.51300  0.83900  0.01100  Biso   1.000  H
  O37      1.0000 0.68040  0.22840  0.64050  Biso   1.000  O
  O38      1.0000 0.80050  0.29610  0.72850  Biso   1.000  O
  O39      1.0000 0.45100  0.01150  0.65940  Biso   1.000  O
  O40      1.0000 0.32330  0.77380  0.88650  Biso   1.000  O
  O41      1.0000 0.55380  0.99020  0.86800  Biso   1.000  O
  O42      1.0000 0.20290  0.70560  0.79710  Biso   1.000  O
  N11      1.0000 0.40400  0.90350  0.77650  Biso   1.000  N
  N12      1.0000 0.59760  0.09790  0.75180  Biso   1.000  N
  C41      1.0000 0.72440  0.23370  0.71280  Biso   1.000  C
  C42      1.0000 0.68610  0.15560  0.78420  Biso   1.000  C
  H47      1.0000 0.68730  0.17550  0.85170  Biso   1.000  H
  C43      1.0000 0.74570  0.10910  0.77250  Biso   1.000  C
  H48      1.0000 0.72480  0.05980  0.81700  Biso   1.000  H
  H49      1.0000 0.80670  0.15160  0.78720  Biso   1.000  H
  H50      1.0000 0.74140  0.08830  0.70650  Biso   1.000  H
  C44      1.0000 0.45730  0.97560  0.73500  Biso   1.000  C
  C45      1.0000 0.54230  0.02370  0.79030  Biso   1.000  C
  C46      1.0000 0.27610  0.76770  0.81110  Biso   1.000  C
  C47      1.0000 0.31970  0.83850  0.73610  Biso   1.000  C
  H51      1.0000 0.28300  0.86540  0.72120  Biso   1.000  H
  C48      1.0000 0.33500  0.79560  0.64070  Biso   1.000  C
  H52      1.0000 0.35980  0.83970  0.58980  Biso   1.000  H
  H53      1.0000 0.27910  0.74680  0.61920  Biso   1.000  H
  H54      1.0000 0.37530  0.77440  0.65540  Biso   1.000  H
  Ba1      1.0000 0.66667  0.33333  0.51377  Biso   1.000  Ba
  Ba2      1.0000 0.33333  0.66667  0.01377  Biso   1.000  Ba
