data_image0
_cell_length_a       14.4099
_cell_length_b       14.4099
_cell_length_c       33.222
_cell_angle_alpha    90
_cell_angle_beta     90
_cell_angle_gamma    120

_symmetry_space_group_name_H-M    "P 1"
_symmetry_int_tables_number       1

loop_
  _symmetry_equiv_pos_as_xyz
  'x, y, z'

loop_
  _atom_site_label
  _atom_site_occupancy
  _atom_site_fract_x
  _atom_site_fract_y
  _atom_site_fract_z
  _atom_site_thermal_displace_type
  _atom_site_B_iso_or_equiv
  _atom_site_type_symbol
  Cu1      1.0000 0.06718  0.15424  0.81192  Biso   1.000  Cu
  O1       1.0000 0.08970  0.19620  0.75370  Biso   1.000  O
  O2       1.0000 0.06530  0.14730  0.87134  Biso   1.000  O
  O3       1.0000 0.12200  0.24370  0.92765  Biso   1.000  O
  O4       1.0000 0.21160  0.42240  0.61293  Biso   1.000  O
  O5       1.0000 0.25270  0.51970  0.66910  Biso   1.000  O
  O6       1.0000 0.22750  0.46990  0.78700  Biso   1.000  O
  N1       1.0000 0.14000  0.30720  0.82210  Biso   1.000  N
  N2       1.0000 0.16740  0.35920  0.71870  Biso   1.000  N
  C1       1.0000 0.11360  0.23770  0.88970  Biso   1.000  C
  C2       1.0000 0.15740  0.34150  0.86380  Biso   1.000  C
  H1       1.0000 0.23650  0.38480  0.86830  Biso   1.000  H
  C3       1.0000 0.10670  0.41250  0.87680  Biso   1.000  C
  C4       1.0000 0.17190  0.36680  0.78960  Biso   1.000  C
  C5       1.0000 0.98890  0.35520  0.86710  Biso   1.000  C
  H2       1.0000 0.95840  0.39970  0.87520  Biso   1.000  H
  H3       1.0000 0.95270  0.28690  0.88160  Biso   1.000  H
  H4       1.0000 0.97890  0.34160  0.83810  Biso   1.000  H
  C6       1.0000 0.16720  0.50900  0.88960  Biso   1.000  C
  H5       1.0000 0.12290  0.54030  0.89670  Biso   1.000  H
  H6       1.0000 0.21780  0.55170  0.86840  Biso   1.000  H
  H7       1.0000 0.20690  0.50750  0.91330  Biso   1.000  H
  C7       1.0000 0.20900  0.42830  0.65060  Biso   1.000  C
  C8       1.0000 0.14910  0.32330  0.67580  Biso   1.000  C
  H8       1.0000 0.18430  0.27960  0.67090  Biso   1.000  H
  C9       1.0000 0.02880  0.25540  0.66310  Biso   1.000  C
  C10      1.0000 0.13770  0.30040  0.75060  Biso   1.000  C
  C11      1.0000 0.96690  0.31230  0.67360  Biso   1.000  C
  H9       1.0000 0.01250  0.38940  0.66880  Biso   1.000  H
  H10      1.0000 0.94570  0.29980  0.70200  Biso   1.000  H
  H11      1.0000 0.90280  0.28430  0.65670  Biso   1.000  H
  C12      1.0000 0.96900  0.14000  0.66630  Biso   1.000  C
  H12      1.0000 0.89650  0.11280  0.65690  Biso   1.000  H
  H13      1.0000 0.96910  0.11930  0.69450  Biso   1.000  H
  H14      1.0000 0.00490  0.11000  0.64970  Biso   1.000  H
  Cu2      1.0000 0.24729  0.51227  0.72848  Biso   1.000  Cu
  Cu3      1.0000 0.73385  0.48757  0.14525  Biso   1.000  Cu
  O7       1.0000 0.75637  0.52953  0.08703  Biso   1.000  O
  O8       1.0000 0.73197  0.48063  0.20467  Biso   1.000  O
  O9       1.0000 0.78867  0.57703  0.26098  Biso   1.000  O
  O10      1.0000 0.87827  0.75573  0.94626  Biso   1.000  O
  O11      1.0000 0.91937  0.85303  0.00243  Biso   1.000  O
  O12      1.0000 0.89417  0.80323  0.12033  Biso   1.000  O
  N3       1.0000 0.80667  0.64053  0.15543  Biso   1.000  N
  N4       1.0000 0.83407  0.69253  0.05203  Biso   1.000  N
  C13      1.0000 0.78027  0.57103  0.22303  Biso   1.000  C
  C14      1.0000 0.82407  0.67483  0.19713  Biso   1.000  C
  H15      1.0000 0.90317  0.71813  0.20163  Biso   1.000  H
  C15      1.0000 0.77337  0.74583  0.21013  Biso   1.000  C
  C16      1.0000 0.83857  0.70013  0.12293  Biso   1.000  C
  C17      1.0000 0.65557  0.68853  0.20043  Biso   1.000  C
  H16      1.0000 0.62507  0.73303  0.20853  Biso   1.000  H
  H17      1.0000 0.61937  0.62023  0.21493  Biso   1.000  H
  H18      1.0000 0.64557  0.67493  0.17143  Biso   1.000  H
  C18      1.0000 0.83387  0.84233  0.22293  Biso   1.000  C
  H19      1.0000 0.78957  0.87363  0.23003  Biso   1.000  H
  H20      1.0000 0.88447  0.88503  0.20173  Biso   1.000  H
  H21      1.0000 0.87357  0.84083  0.24663  Biso   1.000  H
  C19      1.0000 0.87567  0.76163  0.98393  Biso   1.000  C
  C20      1.0000 0.81577  0.65663  0.00913  Biso   1.000  C
  H22      1.0000 0.85097  0.61293  0.00423  Biso   1.000  H
  C21      1.0000 0.69547  0.58873  0.99643  Biso   1.000  C
  C22      1.0000 0.80437  0.63373  0.08393  Biso   1.000  C
  C23      1.0000 0.63357  0.64563  0.00693  Biso   1.000  C
  H23      1.0000 0.67917  0.72273  0.00213  Biso   1.000  H
  H24      1.0000 0.61237  0.63313  0.03533  Biso   1.000  H
  H25      1.0000 0.56947  0.61763  0.99003  Biso   1.000  H
  C24      1.0000 0.63567  0.47333  0.99963  Biso   1.000  C
  H26      1.0000 0.56317  0.44613  0.99023  Biso   1.000  H
  H27      1.0000 0.63577  0.45263  0.02783  Biso   1.000  H
  H28      1.0000 0.67157  0.44333  0.98303  Biso   1.000  H
  Cu4      1.0000 0.91396  0.84560  0.06181  Biso   1.000  Cu
  Cu5      1.0000 0.40051  0.82091  0.47859  Biso   1.000  Cu
  O13      1.0000 0.42303  0.86287  0.42037  Biso   1.000  O
  O14      1.0000 0.39863  0.81397  0.53801  Biso   1.000  O
  O15      1.0000 0.45533  0.91037  0.59432  Biso   1.000  O
  O16      1.0000 0.54493  0.08907  0.27960  Biso   1.000  O
  O17      1.0000 0.58603  0.18637  0.33577  Biso   1.000  O
  O18      1.0000 0.56083  0.13657  0.45367  Biso   1.000  O
  N5       1.0000 0.47333  0.97387  0.48877  Biso   1.000  N
  N6       1.0000 0.50073  0.02587  0.38537  Biso   1.000  N
  C25      1.0000 0.44693  0.90437  0.55637  Biso   1.000  C
  C26      1.0000 0.49073  0.00817  0.53047  Biso   1.000  C
  H29      1.0000 0.56983  0.05147  0.53497  Biso   1.000  H
  C27      1.0000 0.44003  0.07917  0.54347  Biso   1.000  C
  C28      1.0000 0.50523  0.03347  0.45627  Biso   1.000  C
  C29      1.0000 0.32223  0.02187  0.53377  Biso   1.000  C
  H30      1.0000 0.29173  0.06637  0.54187  Biso   1.000  H
  H31      1.0000 0.28603  0.95357  0.54827  Biso   1.000  H
  H32      1.0000 0.31223  0.00827  0.50477  Biso   1.000  H
  C30      1.0000 0.50053  0.17567  0.55627  Biso   1.000  C
  H33      1.0000 0.45623  0.20697  0.56337  Biso   1.000  H
  H34      1.0000 0.55113  0.21837  0.53507  Biso   1.000  H
  H35      1.0000 0.54023  0.17417  0.57997  Biso   1.000  H
  C31      1.0000 0.54233  0.09497  0.31727  Biso   1.000  C
  C32      1.0000 0.48243  0.98997  0.34247  Biso   1.000  C
  H36      1.0000 0.51763  0.94627  0.33757  Biso   1.000  H
  C33      1.0000 0.36213  0.92207  0.32977  Biso   1.000  C
  C34      1.0000 0.47103  0.96707  0.41727  Biso   1.000  C
  C35      1.0000 0.30023  0.97897  0.34027  Biso   1.000  C
  H37      1.0000 0.34583  0.05607  0.33547  Biso   1.000  H
  H38      1.0000 0.27903  0.96647  0.36867  Biso   1.000  H
  H39      1.0000 0.23613  0.95097  0.32337  Biso   1.000  H
  C36      1.0000 0.30233  0.80667  0.33297  Biso   1.000  C
  H40      1.0000 0.22983  0.77947  0.32357  Biso   1.000  H
  H41      1.0000 0.30243  0.78597  0.36117  Biso   1.000  H
  H42      1.0000 0.33823  0.77667  0.31637  Biso   1.000  H
  Cu6      1.0000 0.58062  0.17894  0.39515  Biso   1.000  Cu
  Cu7      1.0000 0.84576  0.91294  0.81192  Biso   1.000  Cu
  O19      1.0000 0.80380  0.89350  0.75370  Biso   1.000  O
  O20      1.0000 0.85270  0.91800  0.87134  Biso   1.000  O
  O21      1.0000 0.75630  0.87830  0.92765  Biso   1.000  O
  O22      1.0000 0.57760  0.78920  0.61293  Biso   1.000  O
  O23      1.0000 0.48030  0.73300  0.66910  Biso   1.000  O
  O24      1.0000 0.53010  0.75760  0.78700  Biso   1.000  O
  N7       1.0000 0.69280  0.83280  0.82210  Biso   1.000  N
  N8       1.0000 0.64080  0.80820  0.71870  Biso   1.000  N
  C37      1.0000 0.76230  0.87590  0.88970  Biso   1.000  C
  C38      1.0000 0.65850  0.81590  0.86380  Biso   1.000  C
  H43      1.0000 0.61520  0.85170  0.86830  Biso   1.000  H
  C39      1.0000 0.58750  0.69420  0.87680  Biso   1.000  C
  C40      1.0000 0.63320  0.80510  0.78960  Biso   1.000  C
  C41      1.0000 0.64480  0.63370  0.86710  Biso   1.000  C
  H44      1.0000 0.60030  0.55870  0.87520  Biso   1.000  H
  H45      1.0000 0.71310  0.66580  0.88160  Biso   1.000  H
  H46      1.0000 0.65840  0.63730  0.83810  Biso   1.000  H
  C42      1.0000 0.49100  0.65820  0.88960  Biso   1.000  C
  H47      1.0000 0.45970  0.58260  0.89670  Biso   1.000  H
  H48      1.0000 0.44830  0.66610  0.86840  Biso   1.000  H
  H49      1.0000 0.49250  0.69940  0.91330  Biso   1.000  H
  C43      1.0000 0.57170  0.78070  0.65060  Biso   1.000  C
  C44      1.0000 0.67670  0.82580  0.67580  Biso   1.000  C
  H50      1.0000 0.72040  0.90470  0.67090  Biso   1.000  H
  C45      1.0000 0.74460  0.77340  0.66310  Biso   1.000  C
  C46      1.0000 0.69960  0.83730  0.75060  Biso   1.000  C
  C47      1.0000 0.68770  0.65460  0.67360  Biso   1.000  C
  H51      1.0000 0.61060  0.62310  0.66880  Biso   1.000  H
  H52      1.0000 0.70020  0.64590  0.70200  Biso   1.000  H
  H53      1.0000 0.71570  0.61850  0.65670  Biso   1.000  H
  C48      1.0000 0.86000  0.82900  0.66630  Biso   1.000  C
  H54      1.0000 0.88720  0.78370  0.65690  Biso   1.000  H
  H55      1.0000 0.88070  0.84980  0.69450  Biso   1.000  H
  H56      1.0000 0.89000  0.89490  0.64970  Biso   1.000  H
  Cu8      1.0000 0.48773  0.73502  0.72848  Biso   1.000  Cu
  Cu9      1.0000 0.51243  0.24627  0.14525  Biso   1.000  Cu
  O25      1.0000 0.47047  0.22683  0.08703  Biso   1.000  O
  O26      1.0000 0.51937  0.25133  0.20467  Biso   1.000  O
  O27      1.0000 0.42297  0.21163  0.26098  Biso   1.000  O
  O28      1.0000 0.24427  0.12253  0.94626  Biso   1.000  O
  O29      1.0000 0.14697  0.06633  0.00243  Biso   1.000  O
  O30      1.0000 0.19677  0.09093  0.12033  Biso   1.000  O
  N9       1.0000 0.35947  0.16613  0.15543  Biso   1.000  N
  N10      1.0000 0.30747  0.14153  0.05203  Biso   1.000  N
  C49      1.0000 0.42897  0.20923  0.22303  Biso   1.000  C
  C50      1.0000 0.32517  0.14923  0.19713  Biso   1.000  C
  H57      1.0000 0.28187  0.18503  0.20163  Biso   1.000  H
  C51      1.0000 0.25417  0.02753  0.21013  Biso   1.000  C
  C52      1.0000 0.29987  0.13843  0.12293  Biso   1.000  C
  C53      1.0000 0.31147  0.96703  0.20043  Biso   1.000  C
  H58      1.0000 0.26697  0.89203  0.20853  Biso   1.000  H
  H59      1.0000 0.37977  0.99913  0.21493  Biso   1.000  H
  H60      1.0000 0.32507  0.97063  0.17143  Biso   1.000  H
  C54      1.0000 0.15767  0.99153  0.22293  Biso   1.000  C
  H61      1.0000 0.12637  0.91593  0.23003  Biso   1.000  H
  H62      1.0000 0.11497  0.99943  0.20173  Biso   1.000  H
  H63      1.0000 0.15917  0.03273  0.24663  Biso   1.000  H
  C55      1.0000 0.23837  0.11403  0.98393  Biso   1.000  C
  C56      1.0000 0.34337  0.15913  0.00913  Biso   1.000  C
  H64      1.0000 0.38707  0.23803  0.00423  Biso   1.000  H
  C57      1.0000 0.41127  0.10673  0.99643  Biso   1.000  C
  C58      1.0000 0.36627  0.17063  0.08393  Biso   1.000  C
  C59      1.0000 0.35437  0.98793  0.00693  Biso   1.000  C
  H65      1.0000 0.27727  0.95643  0.00213  Biso   1.000  H
  H66      1.0000 0.36687  0.97923  0.03533  Biso   1.000  H
  H67      1.0000 0.38237  0.95183  0.99003  Biso   1.000  H
  C60      1.0000 0.52667  0.16233  0.99963  Biso   1.000  C
  H68      1.0000 0.55387  0.11703  0.99023  Biso   1.000  H
  H69      1.0000 0.54737  0.18313  0.02783  Biso   1.000  H
  H70      1.0000 0.55667  0.22823  0.98303  Biso   1.000  H
  Cu10     1.0000 0.15440  0.06835  0.06181  Biso   1.000  Cu
  Cu11     1.0000 0.17909  0.57961  0.47859  Biso   1.000  Cu
  O31      1.0000 0.13713  0.56017  0.42037  Biso   1.000  O
  O32      1.0000 0.18603  0.58467  0.53801  Biso   1.000  O
  O33      1.0000 0.08963  0.54497  0.59432  Biso   1.000  O
  O34      1.0000 0.91093  0.45587  0.27960  Biso   1.000  O
  O35      1.0000 0.81363  0.39967  0.33577  Biso   1.000  O
  O36      1.0000 0.86343  0.42427  0.45367  Biso   1.000  O
  N11      1.0000 0.02613  0.49947  0.48877  Biso   1.000  N
  N12      1.0000 0.97413  0.47487  0.38537  Biso   1.000  N
  C61      1.0000 0.09563  0.54257  0.55637  Biso   1.000  C
  C62      1.0000 0.99183  0.48257  0.53047  Biso   1.000  C
  H71      1.0000 0.94853  0.51837  0.53497  Biso   1.000  H
  C63      1.0000 0.92083  0.36087  0.54347  Biso   1.000  C
  C64      1.0000 0.96653  0.47177  0.45627  Biso   1.000  C
  C65      1.0000 0.97813  0.30037  0.53377  Biso   1.000  C
  H72      1.0000 0.93363  0.22537  0.54187  Biso   1.000  H
  H73      1.0000 0.04643  0.33247  0.54827  Biso   1.000  H
  H74      1.0000 0.99173  0.30397  0.50477  Biso   1.000  H
  C66      1.0000 0.82433  0.32487  0.55627  Biso   1.000  C
  H75      1.0000 0.79303  0.24927  0.56337  Biso   1.000  H
  H76      1.0000 0.78163  0.33277  0.53507  Biso   1.000  H
  H77      1.0000 0.82583  0.36607  0.57997  Biso   1.000  H
  C67      1.0000 0.90503  0.44737  0.31727  Biso   1.000  C
  C68      1.0000 0.01003  0.49247  0.34247  Biso   1.000  C
  H78      1.0000 0.05373  0.57137  0.33757  Biso   1.000  H
  C69      1.0000 0.07793  0.44007  0.32977  Biso   1.000  C
  C70      1.0000 0.03293  0.50397  0.41727  Biso   1.000  C
  C71      1.0000 0.02103  0.32127  0.34027  Biso   1.000  C
  H79      1.0000 0.94393  0.28977  0.33547  Biso   1.000  H
  H80      1.0000 0.03353  0.31257  0.36867  Biso   1.000  H
  H81      1.0000 0.04903  0.28517  0.32337  Biso   1.000  H
  C72      1.0000 0.19333  0.49567  0.33297  Biso   1.000  C
  H82      1.0000 0.22053  0.45037  0.32357  Biso   1.000  H
  H83      1.0000 0.21403  0.51647  0.36117  Biso   1.000  H
  H84      1.0000 0.22333  0.56157  0.31637  Biso   1.000  H
  Cu12     1.0000 0.82106  0.40169  0.39515  Biso   1.000  Cu
  Cu13     1.0000 0.08706  0.93282  0.81192  Biso   1.000  Cu
  O37      1.0000 0.10650  0.91030  0.75370  Biso   1.000  O
  O38      1.0000 0.08200  0.93470  0.87134  Biso   1.000  O
  O39      1.0000 0.12170  0.87800  0.92765  Biso   1.000  O
  O40      1.0000 0.21080  0.78840  0.61293  Biso   1.000  O
  O41      1.0000 0.26700  0.74730  0.66910  Biso   1.000  O
  O42      1.0000 0.24240  0.77250  0.78700  Biso   1.000  O
  N13      1.0000 0.16720  0.86000  0.82210  Biso   1.000  N
  N14      1.0000 0.19180  0.83260  0.71870  Biso   1.000  N
  C73      1.0000 0.12410  0.88640  0.88970  Biso   1.000  C
  C74      1.0000 0.18410  0.84260  0.86380  Biso   1.000  C
  H85      1.0000 0.14830  0.76350  0.86830  Biso   1.000  H
  C75      1.0000 0.30580  0.89330  0.87680  Biso   1.000  C
  C76      1.0000 0.19490  0.82810  0.78960  Biso   1.000  C
  C77      1.0000 0.36630  0.01110  0.86710  Biso   1.000  C
  H86      1.0000 0.44130  0.04160  0.87520  Biso   1.000  H
  H87      1.0000 0.33420  0.04730  0.88160  Biso   1.000  H
  H88      1.0000 0.36270  0.02110  0.83810  Biso   1.000  H
  C78      1.0000 0.34180  0.83280  0.88960  Biso   1.000  C
  H89      1.0000 0.41740  0.87710  0.89670  Biso   1.000  H
  H90      1.0000 0.33390  0.78220  0.86840  Biso   1.000  H
  H91      1.0000 0.30060  0.79310  0.91330  Biso   1.000  H
  C79      1.0000 0.21930  0.79100  0.65060  Biso   1.000  C
  C80      1.0000 0.17420  0.85090  0.67580  Biso   1.000  C
  H92      1.0000 0.09530  0.81570  0.67090  Biso   1.000  H
  C81      1.0000 0.22660  0.97120  0.66310  Biso   1.000  C
  C82      1.0000 0.16270  0.86230  0.75060  Biso   1.000  C
  C83      1.0000 0.34540  0.03310  0.67360  Biso   1.000  C
  H93      1.0000 0.37690  0.98750  0.66880  Biso   1.000  H
  H94      1.0000 0.35410  0.05430  0.70200  Biso   1.000  H
  H95      1.0000 0.38150  0.09720  0.65670  Biso   1.000  H
  C84      1.0000 0.17100  0.03100  0.66630  Biso   1.000  C
  H96      1.0000 0.21630  0.10350  0.65690  Biso   1.000  H
  H97      1.0000 0.15020  0.03090  0.69450  Biso   1.000  H
  H98      1.0000 0.10510  0.99510  0.64970  Biso   1.000  H
  Cu14     1.0000 0.26498  0.75271  0.72848  Biso   1.000  Cu
  Cu15     1.0000 0.75373  0.26615  0.14525  Biso   1.000  Cu
  O43      1.0000 0.77317  0.24363  0.08703  Biso   1.000  O
  O44      1.0000 0.74867  0.26803  0.20467  Biso   1.000  O
  O45      1.0000 0.78837  0.21133  0.26098  Biso   1.000  O
  O46      1.0000 0.87747  0.12173  0.94626  Biso   1.000  O
  O47      1.0000 0.93367  0.08063  0.00243  Biso   1.000  O
  O48      1.0000 0.90907  0.10583  0.12033  Biso   1.000  O
  N15      1.0000 0.83387  0.19333  0.15543  Biso   1.000  N
  N16      1.0000 0.85847  0.16593  0.05203  Biso   1.000  N
  C85      1.0000 0.79077  0.21973  0.22303  Biso   1.000  C
  C86      1.0000 0.85077  0.17593  0.19713  Biso   1.000  C
  H99      1.0000 0.81497  0.09683  0.20163  Biso   1.000  H
  C87      1.0000 0.97247  0.22663  0.21013  Biso   1.000  C
  C88      1.0000 0.86157  0.16143  0.12293  Biso   1.000  C
  C89      1.0000 0.03297  0.34443  0.20043  Biso   1.000  C
  H100     1.0000 0.10797  0.37493  0.20853  Biso   1.000  H
  H101     1.0000 0.00087  0.38063  0.21493  Biso   1.000  H
  H102     1.0000 0.02937  0.35443  0.17143  Biso   1.000  H
  C90      1.0000 0.00847  0.16613  0.22293  Biso   1.000  C
  H103     1.0000 0.08407  0.21043  0.23003  Biso   1.000  H
  H104     1.0000 0.00057  0.11553  0.20173  Biso   1.000  H
  H105     1.0000 0.96727  0.12643  0.24663  Biso   1.000  H
  C91      1.0000 0.88597  0.12433  0.98393  Biso   1.000  C
  C92      1.0000 0.84087  0.18423  0.00913  Biso   1.000  C
  H106     1.0000 0.76197  0.14903  0.00423  Biso   1.000  H
  C93      1.0000 0.89327  0.30453  0.99643  Biso   1.000  C
  C94      1.0000 0.82937  0.19563  0.08393  Biso   1.000  C
  C95      1.0000 0.01207  0.36643  0.00693  Biso   1.000  C
  H107     1.0000 0.04357  0.32083  0.00213  Biso   1.000  H
  H108     1.0000 0.02077  0.38763  0.03533  Biso   1.000  H
  H109     1.0000 0.04817  0.43053  0.99003  Biso   1.000  H
  C96      1.0000 0.83767  0.36433  0.99963  Biso   1.000  C
  H110     1.0000 0.88297  0.43683  0.99023  Biso   1.000  H
  H111     1.0000 0.81687  0.36423  0.02783  Biso   1.000  H
  H112     1.0000 0.77177  0.32843  0.98303  Biso   1.000  H
  Cu16     1.0000 0.93165  0.08604  0.06181  Biso   1.000  Cu
  Cu17     1.0000 0.42039  0.59949  0.47859  Biso   1.000  Cu
  O49      1.0000 0.43983  0.57697  0.42037  Biso   1.000  O
  O50      1.0000 0.41533  0.60137  0.53801  Biso   1.000  O
  O51      1.0000 0.45503  0.54467  0.59432  Biso   1.000  O
  O52      1.0000 0.54413  0.45507  0.27960  Biso   1.000  O
  O53      1.0000 0.60033  0.41397  0.33577  Biso   1.000  O
  O54      1.0000 0.57573  0.43917  0.45367  Biso   1.000  O
  N17      1.0000 0.50053  0.52667  0.48877  Biso   1.000  N
  N18      1.0000 0.52513  0.49927  0.38537  Biso   1.000  N
  C97      1.0000 0.45743  0.55307  0.55637  Biso   1.000  C
  C98      1.0000 0.51743  0.50927  0.53047  Biso   1.000  C
  H113     1.0000 0.48163  0.43017  0.53497  Biso   1.000  H
  C99      1.0000 0.63913  0.55997  0.54347  Biso   1.000  C
  C100     1.0000 0.52823  0.49477  0.45627  Biso   1.000  C
  C101     1.0000 0.69963  0.67777  0.53377  Biso   1.000  C
  H114     1.0000 0.77463  0.70827  0.54187  Biso   1.000  H
  H115     1.0000 0.66753  0.71397  0.54827  Biso   1.000  H
  H116     1.0000 0.69603  0.68777  0.50477  Biso   1.000  H
  C102     1.0000 0.67513  0.49947  0.55627  Biso   1.000  C
  H117     1.0000 0.75073  0.54377  0.56337  Biso   1.000  H
  H118     1.0000 0.66723  0.44887  0.53507  Biso   1.000  H
  H119     1.0000 0.63393  0.45977  0.57997  Biso   1.000  H
  C103     1.0000 0.55263  0.45767  0.31727  Biso   1.000  C
  C104     1.0000 0.50753  0.51757  0.34247  Biso   1.000  C
  H120     1.0000 0.42863  0.48237  0.33757  Biso   1.000  H
  C105     1.0000 0.55993  0.63787  0.32977  Biso   1.000  C
  C106     1.0000 0.49603  0.52897  0.41727  Biso   1.000  C
  C107     1.0000 0.67873  0.69977  0.34027  Biso   1.000  C
  H121     1.0000 0.71023  0.65417  0.33547  Biso   1.000  H
  H122     1.0000 0.68743  0.72097  0.36867  Biso   1.000  H
  H123     1.0000 0.71483  0.76387  0.32337  Biso   1.000  H
  C108     1.0000 0.50433  0.69767  0.33297  Biso   1.000  C
  H124     1.0000 0.54963  0.77017  0.32357  Biso   1.000  H
  H125     1.0000 0.48353  0.69757  0.36117  Biso   1.000  H
  H126     1.0000 0.43843  0.66177  0.31637  Biso   1.000  H
  Cu18     1.0000 0.59831  0.41938  0.39515  Biso   1.000  Cu
  Ba1      1.0000 0.00000  0.00000  0.93687  Biso   1.000  Ba
  O55      1.0000 0.00000  0.00000  0.79850  Biso   1.000  O
  Ba2      1.0000 0.66667  0.33333  0.27020  Biso   1.000  Ba
  O56      1.0000 0.66667  0.33333  0.13183  Biso   1.000  O
  Ba3      1.0000 0.33333  0.66667  0.60354  Biso   1.000  Ba
  O57      1.0000 0.33333  0.66667  0.46517  Biso   1.000  O
  O58      1.0000 0.33333  0.66667  0.74210  Biso   1.000  O
  O59      1.0000 0.00000  0.00000  0.07543  Biso   1.000  O
  O60      1.0000 0.66667  0.33333  0.40877  Biso   1.000  O
