data_image0
_cell_length_a       9.8873
_cell_length_b       14.7768
_cell_length_c       19.2254
_cell_angle_alpha    90
_cell_angle_beta     97.9768
_cell_angle_gamma    90

_symmetry_space_group_name_H-M    "P 1"
_symmetry_int_tables_number       1

loop_
  _symmetry_equiv_pos_as_xyz
  'x, y, z'

loop_
  _atom_site_label
  _atom_site_occupancy
  _atom_site_fract_x
  _atom_site_fract_y
  _atom_site_fract_z
  _atom_site_thermal_displace_type
  _atom_site_B_iso_or_equiv
  _atom_site_type_symbol
  Eu1      1.0000 0.40568  0.07387  0.63765  Biso   1.000  Eu
  Eu2      1.0000 0.54303  0.48478  0.66615  Biso   1.000  Eu
  O1       1.0000 0.47410  0.11130  0.52500  Biso   1.000  O
  O2       1.0000 0.56920  0.05900  0.43440  Biso   1.000  O
  O3       1.0000 0.54900  0.19080  0.69880  Biso   1.000  O
  O4       1.0000 0.61310  0.33580  0.69820  Biso   1.000  O
  O5       1.0000 0.33200  0.22780  0.60450  Biso   1.000  O
  O6       1.0000 0.39060  0.37350  0.60710  Biso   1.000  O
  O7       1.0000 0.63280  0.45130  0.55670  Biso   1.000  O
  O8       1.0000 0.58870  0.44560  0.43930  Biso   1.000  O
  O9       1.0000 0.79260  0.48290  0.68040  Biso   1.000  O
  O10      1.0000 0.98770  0.50570  0.75200  Biso   1.000  O
  O11      1.0000 0.64950  0.52800  0.78270  Biso   1.000  O
  O12      1.0000 0.84340  0.53800  0.85800  Biso   1.000  O
  O13      1.0000 0.37340  0.58510  0.69900  Biso   1.000  O
  O14      1.0000 0.23380  0.62430  0.77540  Biso   1.000  O
  O15      1.0000 0.39590  0.41940  0.75380  Biso   1.000  O
  O16      1.0000 0.24050  0.45460  0.82440  Biso   1.000  O
  C1       1.0000 0.51180  0.04960  0.48790  Biso   1.000  C
  C2       1.0000 0.53380  0.27100  0.67880  Biso   1.000  C
  C3       1.0000 0.40640  0.29300  0.62490  Biso   1.000  C
  C4       1.0000 0.56400  0.47000  0.49870  Biso   1.000  C
  C5       1.0000 0.85960  0.50360  0.73840  Biso   1.000  C
  C6       1.0000 0.77620  0.52670  0.79890  Biso   1.000  C
  C7       1.0000 0.30620  0.56950  0.74830  Biso   1.000  C
  C8       1.0000 0.31450  0.47150  0.77820  Biso   1.000  C
  Eu3      1.0000 0.09432  0.57387  0.86235  Biso   1.000  Eu
  Eu4      1.0000 0.95697  0.98478  0.83385  Biso   1.000  Eu
  O17      1.0000 0.02590  0.61130  0.97500  Biso   1.000  O
  O18      1.0000 0.93080  0.55900  0.06560  Biso   1.000  O
  O19      1.0000 0.95100  0.69080  0.80120  Biso   1.000  O
  O20      1.0000 0.88690  0.83580  0.80180  Biso   1.000  O
  O21      1.0000 0.16800  0.72780  0.89550  Biso   1.000  O
  O22      1.0000 0.10940  0.87350  0.89290  Biso   1.000  O
  O23      1.0000 0.86720  0.95130  0.94330  Biso   1.000  O
  O24      1.0000 0.91130  0.94560  0.06070  Biso   1.000  O
  O25      1.0000 0.70740  0.98290  0.81960  Biso   1.000  O
  O26      1.0000 0.51230  0.00570  0.74800  Biso   1.000  O
  O27      1.0000 0.85050  0.02800  0.71730  Biso   1.000  O
  O28      1.0000 0.65660  0.03800  0.64200  Biso   1.000  O
  O29      1.0000 0.12660  0.08510  0.80100  Biso   1.000  O
  O30      1.0000 0.26620  0.12430  0.72460  Biso   1.000  O
  O31      1.0000 0.10410  0.91940  0.74620  Biso   1.000  O
  O32      1.0000 0.25950  0.95460  0.67560  Biso   1.000  O
  C9       1.0000 0.98820  0.54960  0.01210  Biso   1.000  C
  C10      1.0000 0.96620  0.77100  0.82120  Biso   1.000  C
  C11      1.0000 0.09360  0.79300  0.87510  Biso   1.000  C
  C12      1.0000 0.93600  0.97000  0.00130  Biso   1.000  C
  C13      1.0000 0.64040  0.00360  0.76160  Biso   1.000  C
  C14      1.0000 0.72380  0.02670  0.70110  Biso   1.000  C
  C15      1.0000 0.19380  0.06950  0.75170  Biso   1.000  C
  C16      1.0000 0.18550  0.97150  0.72180  Biso   1.000  C
  Eu5      1.0000 0.59432  0.92613  0.36235  Biso   1.000  Eu
  Eu6      1.0000 0.45697  0.51522  0.33385  Biso   1.000  Eu
  O33      1.0000 0.52590  0.88870  0.47500  Biso   1.000  O
  O34      1.0000 0.43080  0.94100  0.56560  Biso   1.000  O
  O35      1.0000 0.45100  0.80920  0.30120  Biso   1.000  O
  O36      1.0000 0.38690  0.66420  0.30180  Biso   1.000  O
  O37      1.0000 0.66800  0.77220  0.39550  Biso   1.000  O
  O38      1.0000 0.60940  0.62650  0.39290  Biso   1.000  O
  O39      1.0000 0.36720  0.54870  0.44330  Biso   1.000  O
  O40      1.0000 0.41130  0.55440  0.56070  Biso   1.000  O
  O41      1.0000 0.20740  0.51710  0.31960  Biso   1.000  O
  O42      1.0000 0.01230  0.49430  0.24800  Biso   1.000  O
  O43      1.0000 0.35050  0.47200  0.21730  Biso   1.000  O
  O44      1.0000 0.15660  0.46200  0.14200  Biso   1.000  O
  O45      1.0000 0.62660  0.41490  0.30100  Biso   1.000  O
  O46      1.0000 0.76620  0.37570  0.22460  Biso   1.000  O
  O47      1.0000 0.60410  0.58060  0.24620  Biso   1.000  O
  O48      1.0000 0.75950  0.54540  0.17560  Biso   1.000  O
  C17      1.0000 0.48820  0.95040  0.51210  Biso   1.000  C
  C18      1.0000 0.46620  0.72900  0.32120  Biso   1.000  C
  C19      1.0000 0.59360  0.70700  0.37510  Biso   1.000  C
  C20      1.0000 0.43600  0.53000  0.50130  Biso   1.000  C
  C21      1.0000 0.14040  0.49640  0.26160  Biso   1.000  C
  C22      1.0000 0.22380  0.47330  0.20110  Biso   1.000  C
  C23      1.0000 0.69380  0.43050  0.25170  Biso   1.000  C
  C24      1.0000 0.68550  0.52850  0.22180  Biso   1.000  C
  Eu7      1.0000 0.90568  0.42613  0.13765  Biso   1.000  Eu
  Eu8      1.0000 0.04303  0.01522  0.16615  Biso   1.000  Eu
  O49      1.0000 0.97410  0.38870  0.02500  Biso   1.000  O
  O50      1.0000 0.06920  0.44100  0.93440  Biso   1.000  O
  O51      1.0000 0.04900  0.30920  0.19880  Biso   1.000  O
  O52      1.0000 0.11310  0.16420  0.19820  Biso   1.000  O
  O53      1.0000 0.83200  0.27220  0.10450  Biso   1.000  O
  O54      1.0000 0.89060  0.12650  0.10710  Biso   1.000  O
  O55      1.0000 0.13280  0.04870  0.05670  Biso   1.000  O
  O56      1.0000 0.08870  0.05440  0.93930  Biso   1.000  O
  O57      1.0000 0.29260  0.01710  0.18040  Biso   1.000  O
  O58      1.0000 0.48770  0.99430  0.25200  Biso   1.000  O
  O59      1.0000 0.14950  0.97200  0.28270  Biso   1.000  O
  O60      1.0000 0.34340  0.96200  0.35800  Biso   1.000  O
  O61      1.0000 0.87340  0.91490  0.19900  Biso   1.000  O
  O62      1.0000 0.73380  0.87570  0.27540  Biso   1.000  O
  O63      1.0000 0.89590  0.08060  0.25380  Biso   1.000  O
  O64      1.0000 0.74050  0.04540  0.32440  Biso   1.000  O
  C25      1.0000 0.01180  0.45040  0.98790  Biso   1.000  C
  C26      1.0000 0.03380  0.22900  0.17880  Biso   1.000  C
  C27      1.0000 0.90640  0.20700  0.12490  Biso   1.000  C
  C28      1.0000 0.06400  0.03000  0.99870  Biso   1.000  C
  C29      1.0000 0.35960  0.99640  0.23840  Biso   1.000  C
  C30      1.0000 0.27620  0.97330  0.29890  Biso   1.000  C
  C31      1.0000 0.80620  0.93050  0.24830  Biso   1.000  C
  C32      1.0000 0.81450  0.02850  0.27820  Biso   1.000  C
