data_image0
_cell_length_a       24.8326
_cell_length_b       17.4185
_cell_length_c       17.0634
_cell_angle_alpha    90
_cell_angle_beta     113.428
_cell_angle_gamma    90

_symmetry_space_group_name_H-M    "P 1"
_symmetry_int_tables_number       1

loop_
  _symmetry_equiv_pos_as_xyz
  'x, y, z'

loop_
  _atom_site_label
  _atom_site_occupancy
  _atom_site_fract_x
  _atom_site_fract_y
  _atom_site_fract_z
  _atom_site_thermal_displace_type
  _atom_site_B_iso_or_equiv
  _atom_site_type_symbol
  C1       1.0000 0.11804  0.27212  0.85670  Biso   1.000  C
  C2       1.0000 0.21023  0.08659  0.92390  Biso   1.000  C
  C3       1.0000 0.08544  0.32336  0.89300  Biso   1.000  C
  C4       1.0000 0.35337  0.23490  0.84240  Biso   1.000  C
  C5       1.0000 0.29974  0.22980  0.86340  Biso   1.000  C
  C6       1.0000 0.02487  0.31530  0.86590  Biso   1.000  C
  H1       1.0000 0.00530  0.27660  0.82770  Biso   1.000  H
  C7       1.0000 0.34835  0.22030  0.76030  Biso   1.000  C
  H2       1.0000 0.31200  0.20710  0.71840  Biso   1.000  H
  C8       1.0000 0.39662  0.22490  0.73940  Biso   1.000  C
  H3       1.0000 0.39250  0.21620  0.68350  Biso   1.000  H
  C9       1.0000 0.02320  0.42270  0.95200  Biso   1.000  C
  C10      1.0000 0.11427  0.38030  0.95070  Biso   1.000  C
  H4       1.0000 0.15480  0.38490  0.96990  Biso   1.000  H
  C11      1.0000 0.99398  0.36460  0.89560  Biso   1.000  C
  H5       1.0000 0.95360  0.35890  0.87780  Biso   1.000  H
  C12      1.0000 0.45121  0.24270  0.80210  Biso   1.000  C
  C13      1.0000 0.08361  0.43050  0.98030  Biso   1.000  C
  H6       1.0000 0.10320  0.46910  0.01870  Biso   1.000  H
  C14      1.0000 0.21956  0.00390  0.94810  Biso   1.000  C
  C15      1.0000 0.40767  0.25390  0.90450  Biso   1.000  C
  H7       1.0000 0.41120  0.26450  0.95980  Biso   1.000  H
  C16      1.0000 0.45690  0.25720  0.88550  Biso   1.000  C
  H8       1.0000 0.49340  0.26900  0.92790  Biso   1.000  H
  C17      1.0000 0.26980  0.90500  0.04940  Biso   1.000  C
  H9       1.0000 0.29710  0.89120  0.10320  Biso   1.000  H
  C18      1.0000 0.25950  0.98220  0.02760  Biso   1.000  C
  H10      1.0000 0.27990  0.01960  0.06720  Biso   1.000  H
  C19      1.0000 0.18990  0.94720  0.89160  Biso   1.000  C
  H11      1.0000 0.16230  0.96020  0.83780  Biso   1.000  H
  C20      1.0000 0.20080  0.87020  0.91460  Biso   1.000  C
  H12      1.0000 0.18060  0.83230  0.87560  Biso   1.000  H
  C21      1.0000 0.24010  0.84980  0.99230  Biso   1.000  C
  Mg1      1.0000 0.17016  0.20044  0.78295  Biso   1.000  Mg
  N1       1.0000 0.98622  0.47306  0.97550  Biso   1.000  N
  N2       1.0000 0.50421  0.24560  0.78800  Biso   1.000  N
  N3       1.0000 0.26210  0.76870  0.02720  Biso   1.000  N
  O1       1.0000 0.25547  0.19855  0.80718  Biso   1.000  O
  O2       1.0000 0.30296  0.25671  0.93256  Biso   1.000  O
  O3       1.0000 0.23830  0.13374  0.97932  Biso   1.000  O
  O4       1.0000 0.17534  0.10161  0.84817  Biso   1.000  O
  O5       1.0000 0.09052  0.23165  0.79307  Biso   1.000  O
  O6       1.0000 0.17410  0.27275  0.88838  Biso   1.000  O
  C22      1.0000 0.61804  0.77212  0.85670  Biso   1.000  C
  C23      1.0000 0.71023  0.58659  0.92390  Biso   1.000  C
  C24      1.0000 0.58544  0.82336  0.89300  Biso   1.000  C
  C25      1.0000 0.85337  0.73490  0.84240  Biso   1.000  C
  C26      1.0000 0.79974  0.72980  0.86340  Biso   1.000  C
  C27      1.0000 0.52487  0.81530  0.86590  Biso   1.000  C
  H13      1.0000 0.50530  0.77660  0.82770  Biso   1.000  H
  C28      1.0000 0.84835  0.72030  0.76030  Biso   1.000  C
  H14      1.0000 0.81200  0.70710  0.71840  Biso   1.000  H
  C29      1.0000 0.89662  0.72490  0.73940  Biso   1.000  C
  H15      1.0000 0.89250  0.71620  0.68350  Biso   1.000  H
  C30      1.0000 0.52320  0.92270  0.95200  Biso   1.000  C
  C31      1.0000 0.61427  0.88030  0.95070  Biso   1.000  C
  H16      1.0000 0.65480  0.88490  0.96990  Biso   1.000  H
  C32      1.0000 0.49398  0.86460  0.89560  Biso   1.000  C
  H17      1.0000 0.45360  0.85890  0.87780  Biso   1.000  H
  C33      1.0000 0.95121  0.74270  0.80210  Biso   1.000  C
  C34      1.0000 0.58361  0.93050  0.98030  Biso   1.000  C
  H18      1.0000 0.60320  0.96910  0.01870  Biso   1.000  H
  C35      1.0000 0.71956  0.50390  0.94810  Biso   1.000  C
  C36      1.0000 0.90767  0.75390  0.90450  Biso   1.000  C
  H19      1.0000 0.91120  0.76450  0.95980  Biso   1.000  H
  C37      1.0000 0.95690  0.75720  0.88550  Biso   1.000  C
  H20      1.0000 0.99340  0.76900  0.92790  Biso   1.000  H
  C38      1.0000 0.76980  0.40500  0.04940  Biso   1.000  C
  H21      1.0000 0.79710  0.39120  0.10320  Biso   1.000  H
  C39      1.0000 0.75950  0.48220  0.02760  Biso   1.000  C
  H22      1.0000 0.77990  0.51960  0.06720  Biso   1.000  H
  C40      1.0000 0.68990  0.44720  0.89160  Biso   1.000  C
  H23      1.0000 0.66230  0.46020  0.83780  Biso   1.000  H
  C41      1.0000 0.70080  0.37020  0.91460  Biso   1.000  C
  H24      1.0000 0.68060  0.33230  0.87560  Biso   1.000  H
  C42      1.0000 0.74010  0.34980  0.99230  Biso   1.000  C
  Mg2      1.0000 0.67016  0.70044  0.78295  Biso   1.000  Mg
  N4       1.0000 0.48622  0.97306  0.97550  Biso   1.000  N
  N5       1.0000 0.00421  0.74560  0.78800  Biso   1.000  N
  N6       1.0000 0.76210  0.26870  0.02720  Biso   1.000  N
  O7       1.0000 0.75547  0.69855  0.80718  Biso   1.000  O
  O8       1.0000 0.80296  0.75671  0.93256  Biso   1.000  O
  O9       1.0000 0.73830  0.63374  0.97932  Biso   1.000  O
  O10      1.0000 0.67534  0.60161  0.84817  Biso   1.000  O
  O11      1.0000 0.59052  0.73165  0.79307  Biso   1.000  O
  O12      1.0000 0.67410  0.77275  0.88838  Biso   1.000  O
  C43      1.0000 0.88196  0.27212  0.64330  Biso   1.000  C
  C44      1.0000 0.78977  0.08659  0.57610  Biso   1.000  C
  C45      1.0000 0.91456  0.32336  0.60700  Biso   1.000  C
  C46      1.0000 0.64663  0.23490  0.65760  Biso   1.000  C
  C47      1.0000 0.70026  0.22980  0.63660  Biso   1.000  C
  C48      1.0000 0.97513  0.31530  0.63410  Biso   1.000  C
  H25      1.0000 0.99470  0.27660  0.67230  Biso   1.000  H
  C49      1.0000 0.65165  0.22030  0.73970  Biso   1.000  C
  H26      1.0000 0.68800  0.20710  0.78160  Biso   1.000  H
  C50      1.0000 0.60338  0.22490  0.76060  Biso   1.000  C
  H27      1.0000 0.60750  0.21620  0.81650  Biso   1.000  H
  C51      1.0000 0.97680  0.42270  0.54800  Biso   1.000  C
  C52      1.0000 0.88573  0.38030  0.54930  Biso   1.000  C
  H28      1.0000 0.84520  0.38490  0.53010  Biso   1.000  H
  C53      1.0000 0.00602  0.36460  0.60440  Biso   1.000  C
  H29      1.0000 0.04640  0.35890  0.62220  Biso   1.000  H
  C54      1.0000 0.54879  0.24270  0.69790  Biso   1.000  C
  C55      1.0000 0.91639  0.43050  0.51970  Biso   1.000  C
  H30      1.0000 0.89680  0.46910  0.48130  Biso   1.000  H
  C56      1.0000 0.78044  0.00390  0.55190  Biso   1.000  C
  C57      1.0000 0.59233  0.25390  0.59550  Biso   1.000  C
  H31      1.0000 0.58880  0.26450  0.54020  Biso   1.000  H
  C58      1.0000 0.54310  0.25720  0.61450  Biso   1.000  C
  H32      1.0000 0.50660  0.26900  0.57210  Biso   1.000  H
  C59      1.0000 0.73020  0.90500  0.45060  Biso   1.000  C
  H33      1.0000 0.70290  0.89120  0.39680  Biso   1.000  H
  C60      1.0000 0.74050  0.98220  0.47240  Biso   1.000  C
  H34      1.0000 0.72010  0.01960  0.43280  Biso   1.000  H
  C61      1.0000 0.81010  0.94720  0.60840  Biso   1.000  C
  H35      1.0000 0.83770  0.96020  0.66220  Biso   1.000  H
  C62      1.0000 0.79920  0.87020  0.58540  Biso   1.000  C
  H36      1.0000 0.81940  0.83230  0.62440  Biso   1.000  H
  C63      1.0000 0.75990  0.84980  0.50770  Biso   1.000  C
  Mg3      1.0000 0.82984  0.20044  0.71705  Biso   1.000  Mg
  N7       1.0000 0.01378  0.47306  0.52450  Biso   1.000  N
  N8       1.0000 0.49579  0.24560  0.71200  Biso   1.000  N
  N9       1.0000 0.73790  0.76870  0.47280  Biso   1.000  N
  O13      1.0000 0.74453  0.19855  0.69282  Biso   1.000  O
  O14      1.0000 0.69704  0.25671  0.56744  Biso   1.000  O
  O15      1.0000 0.76170  0.13374  0.52068  Biso   1.000  O
  O16      1.0000 0.82466  0.10161  0.65183  Biso   1.000  O
  O17      1.0000 0.90948  0.23165  0.70693  Biso   1.000  O
  O18      1.0000 0.82590  0.27275  0.61162  Biso   1.000  O
  C64      1.0000 0.38196  0.77212  0.64330  Biso   1.000  C
  C65      1.0000 0.28977  0.58659  0.57610  Biso   1.000  C
  C66      1.0000 0.41456  0.82336  0.60700  Biso   1.000  C
  C67      1.0000 0.14663  0.73490  0.65760  Biso   1.000  C
  C68      1.0000 0.20026  0.72980  0.63660  Biso   1.000  C
  C69      1.0000 0.47513  0.81530  0.63410  Biso   1.000  C
  H37      1.0000 0.49470  0.77660  0.67230  Biso   1.000  H
  C70      1.0000 0.15165  0.72030  0.73970  Biso   1.000  C
  H38      1.0000 0.18800  0.70710  0.78160  Biso   1.000  H
  C71      1.0000 0.10338  0.72490  0.76060  Biso   1.000  C
  H39      1.0000 0.10750  0.71620  0.81650  Biso   1.000  H
  C72      1.0000 0.47680  0.92270  0.54800  Biso   1.000  C
  C73      1.0000 0.38573  0.88030  0.54930  Biso   1.000  C
  H40      1.0000 0.34520  0.88490  0.53010  Biso   1.000  H
  C74      1.0000 0.50602  0.86460  0.60440  Biso   1.000  C
  H41      1.0000 0.54640  0.85890  0.62220  Biso   1.000  H
  C75      1.0000 0.04879  0.74270  0.69790  Biso   1.000  C
  C76      1.0000 0.41639  0.93050  0.51970  Biso   1.000  C
  H42      1.0000 0.39680  0.96910  0.48130  Biso   1.000  H
  C77      1.0000 0.28044  0.50390  0.55190  Biso   1.000  C
  C78      1.0000 0.09233  0.75390  0.59550  Biso   1.000  C
  H43      1.0000 0.08880  0.76450  0.54020  Biso   1.000  H
  C79      1.0000 0.04310  0.75720  0.61450  Biso   1.000  C
  H44      1.0000 0.00660  0.76900  0.57210  Biso   1.000  H
  C80      1.0000 0.23020  0.40500  0.45060  Biso   1.000  C
  H45      1.0000 0.20290  0.39120  0.39680  Biso   1.000  H
  C81      1.0000 0.24050  0.48220  0.47240  Biso   1.000  C
  H46      1.0000 0.22010  0.51960  0.43280  Biso   1.000  H
  C82      1.0000 0.31010  0.44720  0.60840  Biso   1.000  C
  H47      1.0000 0.33770  0.46020  0.66220  Biso   1.000  H
  C83      1.0000 0.29920  0.37020  0.58540  Biso   1.000  C
  H48      1.0000 0.31940  0.33230  0.62440  Biso   1.000  H
  C84      1.0000 0.25990  0.34980  0.50770  Biso   1.000  C
  Mg4      1.0000 0.32984  0.70044  0.71705  Biso   1.000  Mg
  N10      1.0000 0.51378  0.97306  0.52450  Biso   1.000  N
  N11      1.0000 0.99579  0.74560  0.71200  Biso   1.000  N
  N12      1.0000 0.23790  0.26870  0.47280  Biso   1.000  N
  O19      1.0000 0.24453  0.69855  0.69282  Biso   1.000  O
  O20      1.0000 0.19704  0.75671  0.56744  Biso   1.000  O
  O21      1.0000 0.26170  0.63374  0.52068  Biso   1.000  O
  O22      1.0000 0.32466  0.60161  0.65183  Biso   1.000  O
  O23      1.0000 0.40948  0.73165  0.70693  Biso   1.000  O
  O24      1.0000 0.32590  0.77275  0.61162  Biso   1.000  O
  C85      1.0000 0.88196  0.72788  0.14330  Biso   1.000  C
  C86      1.0000 0.78977  0.91341  0.07610  Biso   1.000  C
  C87      1.0000 0.91456  0.67664  0.10700  Biso   1.000  C
  C88      1.0000 0.64663  0.76510  0.15760  Biso   1.000  C
  C89      1.0000 0.70026  0.77020  0.13660  Biso   1.000  C
  C90      1.0000 0.97513  0.68470  0.13410  Biso   1.000  C
  H49      1.0000 0.99470  0.72340  0.17230  Biso   1.000  H
  C91      1.0000 0.65165  0.77970  0.23970  Biso   1.000  C
  H50      1.0000 0.68800  0.79290  0.28160  Biso   1.000  H
  C92      1.0000 0.60338  0.77510  0.26060  Biso   1.000  C
  H51      1.0000 0.60750  0.78380  0.31650  Biso   1.000  H
  C93      1.0000 0.97680  0.57730  0.04800  Biso   1.000  C
  C94      1.0000 0.88573  0.61970  0.04930  Biso   1.000  C
  H52      1.0000 0.84520  0.61510  0.03010  Biso   1.000  H
  C95      1.0000 0.00602  0.63540  0.10440  Biso   1.000  C
  H53      1.0000 0.04640  0.64110  0.12220  Biso   1.000  H
  C96      1.0000 0.54879  0.75730  0.19790  Biso   1.000  C
  C97      1.0000 0.91639  0.56950  0.01970  Biso   1.000  C
  H54      1.0000 0.89680  0.53090  0.98130  Biso   1.000  H
  C98      1.0000 0.78044  0.99610  0.05190  Biso   1.000  C
  C99      1.0000 0.59233  0.74610  0.09550  Biso   1.000  C
  H55      1.0000 0.58880  0.73550  0.04020  Biso   1.000  H
  C100     1.0000 0.54310  0.74280  0.11450  Biso   1.000  C
  H56      1.0000 0.50660  0.73100  0.07210  Biso   1.000  H
  C101     1.0000 0.73020  0.09500  0.95060  Biso   1.000  C
  H57      1.0000 0.70290  0.10880  0.89680  Biso   1.000  H
  C102     1.0000 0.74050  0.01780  0.97240  Biso   1.000  C
  H58      1.0000 0.72010  0.98040  0.93280  Biso   1.000  H
  C103     1.0000 0.81010  0.05280  0.10840  Biso   1.000  C
  H59      1.0000 0.83770  0.03980  0.16220  Biso   1.000  H
  C104     1.0000 0.79920  0.12980  0.08540  Biso   1.000  C
  H60      1.0000 0.81940  0.16770  0.12440  Biso   1.000  H
  C105     1.0000 0.75990  0.15020  0.00770  Biso   1.000  C
  Mg5      1.0000 0.82984  0.79956  0.21705  Biso   1.000  Mg
  N13      1.0000 0.01378  0.52694  0.02450  Biso   1.000  N
  N14      1.0000 0.49579  0.75440  0.21200  Biso   1.000  N
  N15      1.0000 0.73790  0.23130  0.97280  Biso   1.000  N
  O25      1.0000 0.74453  0.80145  0.19282  Biso   1.000  O
  O26      1.0000 0.69704  0.74329  0.06744  Biso   1.000  O
  O27      1.0000 0.76170  0.86626  0.02068  Biso   1.000  O
  O28      1.0000 0.82466  0.89839  0.15183  Biso   1.000  O
  O29      1.0000 0.90948  0.76835  0.20693  Biso   1.000  O
  O30      1.0000 0.82590  0.72725  0.11162  Biso   1.000  O
  C106     1.0000 0.38196  0.22788  0.14330  Biso   1.000  C
  C107     1.0000 0.28977  0.41341  0.07610  Biso   1.000  C
  C108     1.0000 0.41456  0.17664  0.10700  Biso   1.000  C
  C109     1.0000 0.14663  0.26510  0.15760  Biso   1.000  C
  C110     1.0000 0.20026  0.27020  0.13660  Biso   1.000  C
  C111     1.0000 0.47513  0.18470  0.13410  Biso   1.000  C
  H61      1.0000 0.49470  0.22340  0.17230  Biso   1.000  H
  C112     1.0000 0.15165  0.27970  0.23970  Biso   1.000  C
  H62      1.0000 0.18800  0.29290  0.28160  Biso   1.000  H
  C113     1.0000 0.10338  0.27510  0.26060  Biso   1.000  C
  H63      1.0000 0.10750  0.28380  0.31650  Biso   1.000  H
  C114     1.0000 0.47680  0.07730  0.04800  Biso   1.000  C
  C115     1.0000 0.38573  0.11970  0.04930  Biso   1.000  C
  H64      1.0000 0.34520  0.11510  0.03010  Biso   1.000  H
  C116     1.0000 0.50602  0.13540  0.10440  Biso   1.000  C
  H65      1.0000 0.54640  0.14110  0.12220  Biso   1.000  H
  C117     1.0000 0.04879  0.25730  0.19790  Biso   1.000  C
  C118     1.0000 0.41639  0.06950  0.01970  Biso   1.000  C
  H66      1.0000 0.39680  0.03090  0.98130  Biso   1.000  H
  C119     1.0000 0.28044  0.49610  0.05190  Biso   1.000  C
  C120     1.0000 0.09233  0.24610  0.09550  Biso   1.000  C
  H67      1.0000 0.08880  0.23550  0.04020  Biso   1.000  H
  C121     1.0000 0.04310  0.24280  0.11450  Biso   1.000  C
  H68      1.0000 0.00660  0.23100  0.07210  Biso   1.000  H
  C122     1.0000 0.23020  0.59500  0.95060  Biso   1.000  C
  H69      1.0000 0.20290  0.60880  0.89680  Biso   1.000  H
  C123     1.0000 0.24050  0.51780  0.97240  Biso   1.000  C
  H70      1.0000 0.22010  0.48040  0.93280  Biso   1.000  H
  C124     1.0000 0.31010  0.55280  0.10840  Biso   1.000  C
  H71      1.0000 0.33770  0.53980  0.16220  Biso   1.000  H
  C125     1.0000 0.29920  0.62980  0.08540  Biso   1.000  C
  H72      1.0000 0.31940  0.66770  0.12440  Biso   1.000  H
  C126     1.0000 0.25990  0.65020  0.00770  Biso   1.000  C
  Mg6      1.0000 0.32984  0.29956  0.21705  Biso   1.000  Mg
  N16      1.0000 0.51378  0.02694  0.02450  Biso   1.000  N
  N17      1.0000 0.99579  0.25440  0.21200  Biso   1.000  N
  N18      1.0000 0.23790  0.73130  0.97280  Biso   1.000  N
  O31      1.0000 0.24453  0.30145  0.19282  Biso   1.000  O
  O32      1.0000 0.19704  0.24329  0.06744  Biso   1.000  O
  O33      1.0000 0.26170  0.36626  0.02068  Biso   1.000  O
  O34      1.0000 0.32466  0.39839  0.15183  Biso   1.000  O
  O35      1.0000 0.40948  0.26835  0.20693  Biso   1.000  O
  O36      1.0000 0.32590  0.22725  0.11162  Biso   1.000  O
  C127     1.0000 0.11804  0.72788  0.35670  Biso   1.000  C
  C128     1.0000 0.21023  0.91341  0.42390  Biso   1.000  C
  C129     1.0000 0.08544  0.67664  0.39300  Biso   1.000  C
  C130     1.0000 0.35337  0.76510  0.34240  Biso   1.000  C
  C131     1.0000 0.29974  0.77020  0.36340  Biso   1.000  C
  C132     1.0000 0.02487  0.68470  0.36590  Biso   1.000  C
  H73      1.0000 0.00530  0.72340  0.32770  Biso   1.000  H
  C133     1.0000 0.34835  0.77970  0.26030  Biso   1.000  C
  H74      1.0000 0.31200  0.79290  0.21840  Biso   1.000  H
  C134     1.0000 0.39662  0.77510  0.23940  Biso   1.000  C
  H75      1.0000 0.39250  0.78380  0.18350  Biso   1.000  H
  C135     1.0000 0.02320  0.57730  0.45200  Biso   1.000  C
  C136     1.0000 0.11427  0.61970  0.45070  Biso   1.000  C
  H76      1.0000 0.15480  0.61510  0.46990  Biso   1.000  H
  C137     1.0000 0.99398  0.63540  0.39560  Biso   1.000  C
  H77      1.0000 0.95360  0.64110  0.37780  Biso   1.000  H
  C138     1.0000 0.45121  0.75730  0.30210  Biso   1.000  C
  C139     1.0000 0.08361  0.56950  0.48030  Biso   1.000  C
  H78      1.0000 0.10320  0.53090  0.51870  Biso   1.000  H
  C140     1.0000 0.21956  0.99610  0.44810  Biso   1.000  C
  C141     1.0000 0.40767  0.74610  0.40450  Biso   1.000  C
  H79      1.0000 0.41120  0.73550  0.45980  Biso   1.000  H
  C142     1.0000 0.45690  0.74280  0.38550  Biso   1.000  C
  H80      1.0000 0.49340  0.73100  0.42790  Biso   1.000  H
  C143     1.0000 0.26980  0.09500  0.54940  Biso   1.000  C
  H81      1.0000 0.29710  0.10880  0.60320  Biso   1.000  H
  C144     1.0000 0.25950  0.01780  0.52760  Biso   1.000  C
  H82      1.0000 0.27990  0.98040  0.56720  Biso   1.000  H
  C145     1.0000 0.18990  0.05280  0.39160  Biso   1.000  C
  H83      1.0000 0.16230  0.03980  0.33780  Biso   1.000  H
  C146     1.0000 0.20080  0.12980  0.41460  Biso   1.000  C
  H84      1.0000 0.18060  0.16770  0.37560  Biso   1.000  H
  C147     1.0000 0.24010  0.15020  0.49230  Biso   1.000  C
  Mg7      1.0000 0.17016  0.79956  0.28295  Biso   1.000  Mg
  N19      1.0000 0.98622  0.52694  0.47550  Biso   1.000  N
  N20      1.0000 0.50421  0.75440  0.28800  Biso   1.000  N
  N21      1.0000 0.26210  0.23130  0.52720  Biso   1.000  N
  O37      1.0000 0.25547  0.80145  0.30718  Biso   1.000  O
  O38      1.0000 0.30296  0.74329  0.43256  Biso   1.000  O
  O39      1.0000 0.23830  0.86626  0.47932  Biso   1.000  O
  O40      1.0000 0.17534  0.89839  0.34817  Biso   1.000  O
  O41      1.0000 0.09052  0.76835  0.29307  Biso   1.000  O
  O42      1.0000 0.17410  0.72725  0.38838  Biso   1.000  O
  C148     1.0000 0.61804  0.22788  0.35670  Biso   1.000  C
  C149     1.0000 0.71023  0.41341  0.42390  Biso   1.000  C
  C150     1.0000 0.58544  0.17664  0.39300  Biso   1.000  C
  C151     1.0000 0.85337  0.26510  0.34240  Biso   1.000  C
  C152     1.0000 0.79974  0.27020  0.36340  Biso   1.000  C
  C153     1.0000 0.52487  0.18470  0.36590  Biso   1.000  C
  H85      1.0000 0.50530  0.22340  0.32770  Biso   1.000  H
  C154     1.0000 0.84835  0.27970  0.26030  Biso   1.000  C
  H86      1.0000 0.81200  0.29290  0.21840  Biso   1.000  H
  C155     1.0000 0.89662  0.27510  0.23940  Biso   1.000  C
  H87      1.0000 0.89250  0.28380  0.18350  Biso   1.000  H
  C156     1.0000 0.52320  0.07730  0.45200  Biso   1.000  C
  C157     1.0000 0.61427  0.11970  0.45070  Biso   1.000  C
  H88      1.0000 0.65480  0.11510  0.46990  Biso   1.000  H
  C158     1.0000 0.49398  0.13540  0.39560  Biso   1.000  C
  H89      1.0000 0.45360  0.14110  0.37780  Biso   1.000  H
  C159     1.0000 0.95121  0.25730  0.30210  Biso   1.000  C
  C160     1.0000 0.58361  0.06950  0.48030  Biso   1.000  C
  H90      1.0000 0.60320  0.03090  0.51870  Biso   1.000  H
  C161     1.0000 0.71956  0.49610  0.44810  Biso   1.000  C
  C162     1.0000 0.90767  0.24610  0.40450  Biso   1.000  C
  H91      1.0000 0.91120  0.23550  0.45980  Biso   1.000  H
  C163     1.0000 0.95690  0.24280  0.38550  Biso   1.000  C
  H92      1.0000 0.99340  0.23100  0.42790  Biso   1.000  H
  C164     1.0000 0.76980  0.59500  0.54940  Biso   1.000  C
  H93      1.0000 0.79710  0.60880  0.60320  Biso   1.000  H
  C165     1.0000 0.75950  0.51780  0.52760  Biso   1.000  C
  H94      1.0000 0.77990  0.48040  0.56720  Biso   1.000  H
  C166     1.0000 0.68990  0.55280  0.39160  Biso   1.000  C
  H95      1.0000 0.66230  0.53980  0.33780  Biso   1.000  H
  C167     1.0000 0.70080  0.62980  0.41460  Biso   1.000  C
  H96      1.0000 0.68060  0.66770  0.37560  Biso   1.000  H
  C168     1.0000 0.74010  0.65020  0.49230  Biso   1.000  C
  Mg8      1.0000 0.67016  0.29956  0.28295  Biso   1.000  Mg
  N22      1.0000 0.48622  0.02694  0.47550  Biso   1.000  N
  N23      1.0000 0.00421  0.25440  0.28800  Biso   1.000  N
  N24      1.0000 0.76210  0.73130  0.52720  Biso   1.000  N
  O43      1.0000 0.75547  0.30145  0.30718  Biso   1.000  O
  O44      1.0000 0.80296  0.24329  0.43256  Biso   1.000  O
  O45      1.0000 0.73830  0.36626  0.47932  Biso   1.000  O
  O46      1.0000 0.67534  0.39839  0.34817  Biso   1.000  O
  O47      1.0000 0.59052  0.26835  0.29307  Biso   1.000  O
  O48      1.0000 0.67410  0.22725  0.38838  Biso   1.000  O
  Mg9      1.0000 0.25000  0.25000  0.00000  Biso   1.000  Mg
  Mg10     1.0000 0.75000  0.25000  0.50000  Biso   1.000  Mg
  Mg11     1.0000 0.75000  0.75000  0.00000  Biso   1.000  Mg
  Mg12     1.0000 0.25000  0.75000  0.50000  Biso   1.000  Mg
