data_image0
_cell_length_a       12.9785
_cell_length_b       11.7197
_cell_length_c       27.087
_cell_angle_alpha    90
_cell_angle_beta     105.699
_cell_angle_gamma    90

_symmetry_space_group_name_H-M    "P 1"
_symmetry_int_tables_number       1

loop_
  _symmetry_equiv_pos_as_xyz
  'x, y, z'

loop_
  _atom_site_label
  _atom_site_occupancy
  _atom_site_fract_x
  _atom_site_fract_y
  _atom_site_fract_z
  _atom_site_thermal_displace_type
  _atom_site_B_iso_or_equiv
  _atom_site_type_symbol
  C1       1.0000 0.10480  0.25960  0.00529  Biso   1.000  C
  C2       1.0000 0.79830  0.32390  0.97913  Biso   1.000  C
  C3       1.0000 0.20450  0.20190  0.99903  Biso   1.000  C
  C4       1.0000 0.70870  0.36780  0.93669  Biso   1.000  C
  C5       1.0000 0.21700  0.08390  0.00674  Biso   1.000  C
  H1       1.0000 0.16190  0.04120  0.01340  Biso   1.000  H
  C6       1.0000 0.15930  0.53580  0.66154  Biso   1.000  C
  C7       1.0000 0.31050  0.03070  0.00442  Biso   1.000  C
  H2       1.0000 0.31910  0.95250  0.01000  Biso   1.000  H
  C8       1.0000 0.69850  0.48340  0.92571  Biso   1.000  C
  H3       1.0000 0.74860  0.53440  0.94480  Biso   1.000  H
  C9       1.0000 0.39090  0.09470  0.99381  Biso   1.000  C
  C10      1.0000 0.54930  0.33170  0.86904  Biso   1.000  C
  H4       1.0000 0.49860  0.28060  0.85050  Biso   1.000  H
  C11      1.0000 0.61410  0.52310  0.88653  Biso   1.000  C
  H5       1.0000 0.60660  0.60090  0.87980  Biso   1.000  H
  C12      1.0000 0.28430  0.26340  0.98779  Biso   1.000  C
  H6       1.0000 0.27550  0.34160  0.98230  Biso   1.000  H
  C13      1.0000 0.18950  0.42370  0.66891  Biso   1.000  C
  H7       1.0000 0.15500  0.36970  0.64500  Biso   1.000  H
  C14      1.0000 0.07740  0.57250  0.61323  Biso   1.000  C
  C15      1.0000 0.54060  0.44650  0.85720  Biso   1.000  C
  C16      1.0000 0.26980  0.38870  0.71097  Biso   1.000  C
  H8       1.0000 0.28860  0.31210  0.71540  Biso   1.000  H
  C17      1.0000 0.63400  0.29250  0.90880  Biso   1.000  C
  H9       1.0000 0.64010  0.21510  0.91650  Biso   1.000  H
  C18      1.0000 0.37780  0.21200  0.98437  Biso   1.000  C
  H10      1.0000 0.43110  0.25450  0.97590  Biso   1.000  H
  C19      1.0000 0.32180  0.46870  0.74637  Biso   1.000  C
  C20      1.0000 0.21000  0.61500  0.69771  Biso   1.000  C
  H11      1.0000 0.18870  0.69100  0.69380  Biso   1.000  H
  C21      1.0000 0.29300  0.58250  0.74005  Biso   1.000  C
  H12      1.0000 0.32840  0.63670  0.76370  Biso   1.000  H
  Mg1      1.0000 0.92978  0.24831  0.05631  Biso   1.000  Mg
  N1       1.0000 0.45870  0.49670  0.81622  Biso   1.000  N
  N2       1.0000 0.40450  0.42210  0.78816  Biso   1.000  N
  N3       1.0000 0.49140  0.04940  0.99107  Biso   1.000  N
  O1       1.0000 0.79808  0.22057  0.99193  Biso   1.000  O
  O2       1.0000 0.87279  0.38932  0.00331  Biso   1.000  O
  O3       1.0000 0.04957  0.49814  0.57834  Biso   1.000  O
  O4       1.0000 0.04340  0.67250  0.61084  Biso   1.000  O
  O5       1.0000 0.09746  0.36377  0.99762  Biso   1.000  O
  O6       1.0000 0.03717  0.19803  0.01830  Biso   1.000  O
  C22      1.0000 0.89520  0.25960  0.49471  Biso   1.000  C
  C23      1.0000 0.20170  0.32390  0.52087  Biso   1.000  C
  C24      1.0000 0.79550  0.20190  0.50097  Biso   1.000  C
  C25      1.0000 0.29130  0.36780  0.56331  Biso   1.000  C
  C26      1.0000 0.78300  0.08390  0.49326  Biso   1.000  C
  H13      1.0000 0.83810  0.04120  0.48660  Biso   1.000  H
  C27      1.0000 0.84070  0.53580  0.83846  Biso   1.000  C
  C28      1.0000 0.68950  0.03070  0.49558  Biso   1.000  C
  H14      1.0000 0.68090  0.95250  0.49000  Biso   1.000  H
  C29      1.0000 0.30150  0.48340  0.57429  Biso   1.000  C
  H15      1.0000 0.25140  0.53440  0.55520  Biso   1.000  H
  C30      1.0000 0.60910  0.09470  0.50619  Biso   1.000  C
  C31      1.0000 0.45070  0.33170  0.63096  Biso   1.000  C
  H16      1.0000 0.50140  0.28060  0.64950  Biso   1.000  H
  C32      1.0000 0.38590  0.52310  0.61347  Biso   1.000  C
  H17      1.0000 0.39340  0.60090  0.62020  Biso   1.000  H
  C33      1.0000 0.71570  0.26340  0.51221  Biso   1.000  C
  H18      1.0000 0.72450  0.34160  0.51770  Biso   1.000  H
  C34      1.0000 0.81050  0.42370  0.83109  Biso   1.000  C
  H19      1.0000 0.84500  0.36970  0.85500  Biso   1.000  H
  C35      1.0000 0.92260  0.57250  0.88677  Biso   1.000  C
  C36      1.0000 0.45940  0.44650  0.64280  Biso   1.000  C
  C37      1.0000 0.73020  0.38870  0.78903  Biso   1.000  C
  H20      1.0000 0.71140  0.31210  0.78460  Biso   1.000  H
  C38      1.0000 0.36600  0.29250  0.59120  Biso   1.000  C
  H21      1.0000 0.35990  0.21510  0.58350  Biso   1.000  H
  C39      1.0000 0.62220  0.21200  0.51563  Biso   1.000  C
  H22      1.0000 0.56890  0.25450  0.52410  Biso   1.000  H
  C40      1.0000 0.67820  0.46870  0.75363  Biso   1.000  C
  C41      1.0000 0.79000  0.61500  0.80229  Biso   1.000  C
  H23      1.0000 0.81130  0.69100  0.80620  Biso   1.000  H
  C42      1.0000 0.70700  0.58250  0.75995  Biso   1.000  C
  H24      1.0000 0.67160  0.63670  0.73630  Biso   1.000  H
  Mg2      1.0000 0.07022  0.24831  0.44369  Biso   1.000  Mg
  N4       1.0000 0.54130  0.49670  0.68378  Biso   1.000  N
  N5       1.0000 0.59550  0.42210  0.71184  Biso   1.000  N
  N6       1.0000 0.50860  0.04940  0.50893  Biso   1.000  N
  O7       1.0000 0.20192  0.22057  0.50807  Biso   1.000  O
  O8       1.0000 0.12721  0.38932  0.49669  Biso   1.000  O
  O9       1.0000 0.95043  0.49814  0.92166  Biso   1.000  O
  O10      1.0000 0.95660  0.67250  0.88916  Biso   1.000  O
  O11      1.0000 0.90254  0.36377  0.50238  Biso   1.000  O
  O12      1.0000 0.96283  0.19803  0.48170  Biso   1.000  O
  C43      1.0000 0.89520  0.74040  0.99471  Biso   1.000  C
  C44      1.0000 0.20170  0.67610  0.02087  Biso   1.000  C
  C45      1.0000 0.79550  0.79810  0.00097  Biso   1.000  C
  C46      1.0000 0.29130  0.63220  0.06331  Biso   1.000  C
  C47      1.0000 0.78300  0.91610  0.99326  Biso   1.000  C
  H25      1.0000 0.83810  0.95880  0.98660  Biso   1.000  H
  C48      1.0000 0.84070  0.46420  0.33846  Biso   1.000  C
  C49      1.0000 0.68950  0.96930  0.99558  Biso   1.000  C
  H26      1.0000 0.68090  0.04750  0.99000  Biso   1.000  H
  C50      1.0000 0.30150  0.51660  0.07429  Biso   1.000  C
  H27      1.0000 0.25140  0.46560  0.05520  Biso   1.000  H
  C51      1.0000 0.60910  0.90530  0.00619  Biso   1.000  C
  C52      1.0000 0.45070  0.66830  0.13096  Biso   1.000  C
  H28      1.0000 0.50140  0.71940  0.14950  Biso   1.000  H
  C53      1.0000 0.38590  0.47690  0.11347  Biso   1.000  C
  H29      1.0000 0.39340  0.39910  0.12020  Biso   1.000  H
  C54      1.0000 0.71570  0.73660  0.01221  Biso   1.000  C
  H30      1.0000 0.72450  0.65840  0.01770  Biso   1.000  H
  C55      1.0000 0.81050  0.57630  0.33109  Biso   1.000  C
  H31      1.0000 0.84500  0.63030  0.35500  Biso   1.000  H
  C56      1.0000 0.92260  0.42750  0.38677  Biso   1.000  C
  C57      1.0000 0.45940  0.55350  0.14280  Biso   1.000  C
  C58      1.0000 0.73020  0.61130  0.28903  Biso   1.000  C
  H32      1.0000 0.71140  0.68790  0.28460  Biso   1.000  H
  C59      1.0000 0.36600  0.70750  0.09120  Biso   1.000  C
  H33      1.0000 0.35990  0.78490  0.08350  Biso   1.000  H
  C60      1.0000 0.62220  0.78800  0.01563  Biso   1.000  C
  H34      1.0000 0.56890  0.74550  0.02410  Biso   1.000  H
  C61      1.0000 0.67820  0.53130  0.25363  Biso   1.000  C
  C62      1.0000 0.79000  0.38500  0.30229  Biso   1.000  C
  H35      1.0000 0.81130  0.30900  0.30620  Biso   1.000  H
  C63      1.0000 0.70700  0.41750  0.25995  Biso   1.000  C
  H36      1.0000 0.67160  0.36330  0.23630  Biso   1.000  H
  Mg3      1.0000 0.07022  0.75169  0.94369  Biso   1.000  Mg
  N7       1.0000 0.54130  0.50330  0.18378  Biso   1.000  N
  N8       1.0000 0.59550  0.57790  0.21184  Biso   1.000  N
  N9       1.0000 0.50860  0.95060  0.00893  Biso   1.000  N
  O13      1.0000 0.20192  0.77943  0.00807  Biso   1.000  O
  O14      1.0000 0.12721  0.61068  0.99669  Biso   1.000  O
  O15      1.0000 0.95043  0.50186  0.42166  Biso   1.000  O
  O16      1.0000 0.95660  0.32750  0.38916  Biso   1.000  O
  O17      1.0000 0.90254  0.63623  0.00238  Biso   1.000  O
  O18      1.0000 0.96283  0.80197  0.98170  Biso   1.000  O
  C64      1.0000 0.10480  0.74040  0.50529  Biso   1.000  C
  C65      1.0000 0.79830  0.67610  0.47913  Biso   1.000  C
  C66      1.0000 0.20450  0.79810  0.49903  Biso   1.000  C
  C67      1.0000 0.70870  0.63220  0.43669  Biso   1.000  C
  C68      1.0000 0.21700  0.91610  0.50674  Biso   1.000  C
  H37      1.0000 0.16190  0.95880  0.51340  Biso   1.000  H
  C69      1.0000 0.15930  0.46420  0.16154  Biso   1.000  C
  C70      1.0000 0.31050  0.96930  0.50442  Biso   1.000  C
  H38      1.0000 0.31910  0.04750  0.51000  Biso   1.000  H
  C71      1.0000 0.69850  0.51660  0.42571  Biso   1.000  C
  H39      1.0000 0.74860  0.46560  0.44480  Biso   1.000  H
  C72      1.0000 0.39090  0.90530  0.49381  Biso   1.000  C
  C73      1.0000 0.54930  0.66830  0.36904  Biso   1.000  C
  H40      1.0000 0.49860  0.71940  0.35050  Biso   1.000  H
  C74      1.0000 0.61410  0.47690  0.38653  Biso   1.000  C
  H41      1.0000 0.60660  0.39910  0.37980  Biso   1.000  H
  C75      1.0000 0.28430  0.73660  0.48779  Biso   1.000  C
  H42      1.0000 0.27550  0.65840  0.48230  Biso   1.000  H
  C76      1.0000 0.18950  0.57630  0.16891  Biso   1.000  C
  H43      1.0000 0.15500  0.63030  0.14500  Biso   1.000  H
  C77      1.0000 0.07740  0.42750  0.11323  Biso   1.000  C
  C78      1.0000 0.54060  0.55350  0.35720  Biso   1.000  C
  C79      1.0000 0.26980  0.61130  0.21097  Biso   1.000  C
  H44      1.0000 0.28860  0.68790  0.21540  Biso   1.000  H
  C80      1.0000 0.63400  0.70750  0.40880  Biso   1.000  C
  H45      1.0000 0.64010  0.78490  0.41650  Biso   1.000  H
  C81      1.0000 0.37780  0.78800  0.48437  Biso   1.000  C
  H46      1.0000 0.43110  0.74550  0.47590  Biso   1.000  H
  C82      1.0000 0.32180  0.53130  0.24637  Biso   1.000  C
  C83      1.0000 0.21000  0.38500  0.19771  Biso   1.000  C
  H47      1.0000 0.18870  0.30900  0.19380  Biso   1.000  H
  C84      1.0000 0.29300  0.41750  0.24005  Biso   1.000  C
  H48      1.0000 0.32840  0.36330  0.26370  Biso   1.000  H
  Mg4      1.0000 0.92978  0.75169  0.55631  Biso   1.000  Mg
  N10      1.0000 0.45870  0.50330  0.31622  Biso   1.000  N
  N11      1.0000 0.40450  0.57790  0.28816  Biso   1.000  N
  N12      1.0000 0.49140  0.95060  0.49107  Biso   1.000  N
  O19      1.0000 0.79808  0.77943  0.49193  Biso   1.000  O
  O20      1.0000 0.87279  0.61068  0.50331  Biso   1.000  O
  O21      1.0000 0.04957  0.50186  0.07834  Biso   1.000  O
  O22      1.0000 0.04340  0.32750  0.11084  Biso   1.000  O
  O23      1.0000 0.09746  0.63623  0.49762  Biso   1.000  O
  O24      1.0000 0.03717  0.80197  0.51830  Biso   1.000  O
  Mg5      1.0000 0.00000  0.50000  0.00000  Biso   1.000  Mg
  Mg6      1.0000 0.00000  0.50000  0.50000  Biso   1.000  Mg
