data_image0
_cell_length_a       19.806
_cell_length_b       9.138
_cell_length_c       32.3393
_cell_angle_alpha    90
_cell_angle_beta     107.566
_cell_angle_gamma    90

_symmetry_space_group_name_H-M    "P 1"
_symmetry_int_tables_number       1

loop_
  _symmetry_equiv_pos_as_xyz
  'x, y, z'

loop_
  _atom_site_label
  _atom_site_occupancy
  _atom_site_fract_x
  _atom_site_fract_y
  _atom_site_fract_z
  _atom_site_thermal_displace_type
  _atom_site_B_iso_or_equiv
  _atom_site_type_symbol
  Eu1      1.0000 0.96177  0.97960  0.79932  Biso   1.000  Eu
  O1       1.0000 0.06605  0.87270  0.77659  Biso   1.000  O
  O2       1.0000 0.90817  0.87350  0.85291  Biso   1.000  O
  O3       1.0000 0.60671  0.64549  0.75320  Biso   1.000  O
  O4       1.0000 0.84294  0.87660  0.78440  Biso   1.000  O
  O5       1.0000 0.00789  0.72600  0.80752  Biso   1.000  O
  O6       1.0000 0.54472  0.66903  0.80031  Biso   1.000  O
  N1       1.0000 0.93625  0.02410  0.12669  Biso   1.000  N
  N2       1.0000 0.70513  0.05410  0.00905  Biso   1.000  N
  N3       1.0000 0.45889  0.25000  0.98635  Biso   1.000  N
  C1       1.0000 0.84883  0.86540  0.82411  Biso   1.000  C
  C2       1.0000 0.78124  0.88640  0.87840  Biso   1.000  C
  H1       1.0000 0.82170  0.92410  0.89830  Biso   1.000  H
  C3       1.0000 0.78289  0.84580  0.83731  Biso   1.000  C
  C4       1.0000 0.05535  0.74520  0.79006  Biso   1.000  C
  C5       1.0000 0.59942  0.68690  0.78853  Biso   1.000  C
  C6       1.0000 0.71909  0.87110  0.89003  Biso   1.000  C
  C7       1.0000 0.66194  0.76300  0.81979  Biso   1.000  C
  C8       1.0000 0.71521  0.93040  0.93203  Biso   1.000  C
  C9       1.0000 0.66063  0.80550  0.86068  Biso   1.000  C
  H2       1.0000 0.61990  0.78990  0.86870  Biso   1.000  H
  C10      1.0000 0.52987  0.17480  0.94191  Biso   1.000  C
  H3       1.0000 0.53440  0.16900  0.91420  Biso   1.000  H
  C11      1.0000 0.64935  0.05460  0.97312  Biso   1.000  C
  C12      1.0000 0.94732  0.97460  0.09030  Biso   1.000  C
  H4       1.0000 0.99320  0.94840  0.09140  Biso   1.000  H
  C13      1.0000 0.72281  0.78720  0.80799  Biso   1.000  C
  H5       1.0000 0.72330  0.76380  0.78010  Biso   1.000  H
  C14      1.0000 0.58330  0.12330  0.97707  Biso   1.000  C
  C15      1.0000 0.65248  0.99380  0.93415  Biso   1.000  C
  H6       1.0000 0.61290  0.99570  0.90970  Biso   1.000  H
  C16      1.0000 0.10074  0.61990  0.78490  Biso   1.000  C
  H7       1.0000 0.13670  0.60220  0.81190  Biso   1.000  H
  H8       1.0000 0.12260  0.64320  0.76300  Biso   1.000  H
  H9       1.0000 0.07200  0.53390  0.77650  Biso   1.000  H
  C17      1.0000 0.77241  0.92890  0.96933  Biso   1.000  C
  H10      1.0000 0.81480  0.88560  0.96920  Biso   1.000  H
  C18      1.0000 0.89473  0.96040  0.05135  Biso   1.000  C
  H11      1.0000 0.90550  0.92370  0.02730  Biso   1.000  H
  C19      1.0000 0.86954  0.05960  0.12336  Biso   1.000  C
  H12      1.0000 0.85980  0.09130  0.14830  Biso   1.000  H
  C20      1.0000 0.81448  0.05270  0.08586  Biso   1.000  C
  H13      1.0000 0.76950  0.08280  0.08560  Biso   1.000  H
  C21      1.0000 0.76594  0.99290  0.00715  Biso   1.000  C
  C22      1.0000 0.57300  0.13810  0.01767  Biso   1.000  C
  H14      1.0000 0.60750  0.10690  0.04260  Biso   1.000  H
  C23      1.0000 0.82566  0.00070  0.04797  Biso   1.000  C
  C24      1.0000 0.46951  0.23530  0.94813  Biso   1.000  C
  H15      1.0000 0.43410  0.26760  0.92380  Biso   1.000  H
  C25      1.0000 0.51120  0.19950  0.02028  Biso   1.000  C
  H16      1.0000 0.50500  0.20670  0.04760  Biso   1.000  H
  Eu2      1.0000 0.46177  0.47960  0.79932  Biso   1.000  Eu
  O7       1.0000 0.56605  0.37270  0.77659  Biso   1.000  O
  O8       1.0000 0.40817  0.37350  0.85291  Biso   1.000  O
  O9       1.0000 0.10671  0.14549  0.75320  Biso   1.000  O
  O10      1.0000 0.34294  0.37660  0.78440  Biso   1.000  O
  O11      1.0000 0.50789  0.22600  0.80752  Biso   1.000  O
  O12      1.0000 0.04472  0.16903  0.80031  Biso   1.000  O
  N4       1.0000 0.43625  0.52410  0.12669  Biso   1.000  N
  N5       1.0000 0.20513  0.55410  0.00905  Biso   1.000  N
  N6       1.0000 0.95889  0.75000  0.98635  Biso   1.000  N
  C26      1.0000 0.34883  0.36540  0.82411  Biso   1.000  C
  C27      1.0000 0.28124  0.38640  0.87840  Biso   1.000  C
  H17      1.0000 0.32170  0.42410  0.89830  Biso   1.000  H
  C28      1.0000 0.28289  0.34580  0.83731  Biso   1.000  C
  C29      1.0000 0.55535  0.24520  0.79006  Biso   1.000  C
  C30      1.0000 0.09942  0.18690  0.78853  Biso   1.000  C
  C31      1.0000 0.21909  0.37110  0.89003  Biso   1.000  C
  C32      1.0000 0.16194  0.26300  0.81979  Biso   1.000  C
  C33      1.0000 0.21521  0.43040  0.93203  Biso   1.000  C
  C34      1.0000 0.16063  0.30550  0.86068  Biso   1.000  C
  H18      1.0000 0.11990  0.28990  0.86870  Biso   1.000  H
  C35      1.0000 0.02987  0.67480  0.94191  Biso   1.000  C
  H19      1.0000 0.03440  0.66900  0.91420  Biso   1.000  H
  C36      1.0000 0.14935  0.55460  0.97312  Biso   1.000  C
  C37      1.0000 0.44732  0.47460  0.09030  Biso   1.000  C
  H20      1.0000 0.49320  0.44840  0.09140  Biso   1.000  H
  C38      1.0000 0.22281  0.28720  0.80799  Biso   1.000  C
  H21      1.0000 0.22330  0.26380  0.78010  Biso   1.000  H
  C39      1.0000 0.08330  0.62330  0.97707  Biso   1.000  C
  C40      1.0000 0.15248  0.49380  0.93415  Biso   1.000  C
  H22      1.0000 0.11290  0.49570  0.90970  Biso   1.000  H
  C41      1.0000 0.60074  0.11990  0.78490  Biso   1.000  C
  H23      1.0000 0.63670  0.10220  0.81190  Biso   1.000  H
  H24      1.0000 0.62260  0.14320  0.76300  Biso   1.000  H
  H25      1.0000 0.57200  0.03390  0.77650  Biso   1.000  H
  C42      1.0000 0.27241  0.42890  0.96933  Biso   1.000  C
  H26      1.0000 0.31480  0.38560  0.96920  Biso   1.000  H
  C43      1.0000 0.39473  0.46040  0.05135  Biso   1.000  C
  H27      1.0000 0.40550  0.42370  0.02730  Biso   1.000  H
  C44      1.0000 0.36954  0.55960  0.12336  Biso   1.000  C
  H28      1.0000 0.35980  0.59130  0.14830  Biso   1.000  H
  C45      1.0000 0.31448  0.55270  0.08586  Biso   1.000  C
  H29      1.0000 0.26950  0.58280  0.08560  Biso   1.000  H
  C46      1.0000 0.26594  0.49290  0.00715  Biso   1.000  C
  C47      1.0000 0.07300  0.63810  0.01767  Biso   1.000  C
  H30      1.0000 0.10750  0.60690  0.04260  Biso   1.000  H
  C48      1.0000 0.32566  0.50070  0.04797  Biso   1.000  C
  C49      1.0000 0.96951  0.73530  0.94813  Biso   1.000  C
  H31      1.0000 0.93410  0.76760  0.92380  Biso   1.000  H
  C50      1.0000 0.01120  0.69950  0.02028  Biso   1.000  C
  H32      1.0000 0.00500  0.70670  0.04760  Biso   1.000  H
  Eu3      1.0000 0.03823  0.97960  0.70068  Biso   1.000  Eu
  O13      1.0000 0.93395  0.87270  0.72341  Biso   1.000  O
  O14      1.0000 0.09183  0.87350  0.64709  Biso   1.000  O
  O15      1.0000 0.39329  0.64549  0.74680  Biso   1.000  O
  O16      1.0000 0.15706  0.87660  0.71560  Biso   1.000  O
  O17      1.0000 0.99211  0.72600  0.69248  Biso   1.000  O
  O18      1.0000 0.45528  0.66903  0.69969  Biso   1.000  O
  N7       1.0000 0.06375  0.02410  0.37331  Biso   1.000  N
  N8       1.0000 0.29487  0.05410  0.49095  Biso   1.000  N
  N9       1.0000 0.54111  0.25000  0.51365  Biso   1.000  N
  C51      1.0000 0.15117  0.86540  0.67589  Biso   1.000  C
  C52      1.0000 0.21876  0.88640  0.62160  Biso   1.000  C
  H33      1.0000 0.17830  0.92410  0.60170  Biso   1.000  H
  C53      1.0000 0.21711  0.84580  0.66269  Biso   1.000  C
  C54      1.0000 0.94465  0.74520  0.70994  Biso   1.000  C
  C55      1.0000 0.40058  0.68690  0.71147  Biso   1.000  C
  C56      1.0000 0.28091  0.87110  0.60997  Biso   1.000  C
  C57      1.0000 0.33806  0.76300  0.68021  Biso   1.000  C
  C58      1.0000 0.28479  0.93040  0.56797  Biso   1.000  C
  C59      1.0000 0.33937  0.80550  0.63932  Biso   1.000  C
  H34      1.0000 0.38010  0.78990  0.63130  Biso   1.000  H
  C60      1.0000 0.47013  0.17480  0.55809  Biso   1.000  C
  H35      1.0000 0.46560  0.16900  0.58580  Biso   1.000  H
  C61      1.0000 0.35065  0.05460  0.52688  Biso   1.000  C
  C62      1.0000 0.05268  0.97460  0.40970  Biso   1.000  C
  H36      1.0000 0.00680  0.94840  0.40860  Biso   1.000  H
  C63      1.0000 0.27719  0.78720  0.69201  Biso   1.000  C
  H37      1.0000 0.27670  0.76380  0.71990  Biso   1.000  H
  C64      1.0000 0.41670  0.12330  0.52293  Biso   1.000  C
  C65      1.0000 0.34752  0.99380  0.56585  Biso   1.000  C
  H38      1.0000 0.38710  0.99570  0.59030  Biso   1.000  H
  C66      1.0000 0.89926  0.61990  0.71510  Biso   1.000  C
  H39      1.0000 0.86330  0.60220  0.68810  Biso   1.000  H
  H40      1.0000 0.87740  0.64320  0.73700  Biso   1.000  H
  H41      1.0000 0.92800  0.53390  0.72350  Biso   1.000  H
  C67      1.0000 0.22759  0.92890  0.53067  Biso   1.000  C
  H42      1.0000 0.18520  0.88560  0.53080  Biso   1.000  H
  C68      1.0000 0.10527  0.96040  0.44865  Biso   1.000  C
  H43      1.0000 0.09450  0.92370  0.47270  Biso   1.000  H
  C69      1.0000 0.13046  0.05960  0.37664  Biso   1.000  C
  H44      1.0000 0.14020  0.09130  0.35170  Biso   1.000  H
  C70      1.0000 0.18552  0.05270  0.41414  Biso   1.000  C
  H45      1.0000 0.23050  0.08280  0.41440  Biso   1.000  H
  C71      1.0000 0.23406  0.99290  0.49285  Biso   1.000  C
  C72      1.0000 0.42700  0.13810  0.48233  Biso   1.000  C
  H46      1.0000 0.39250  0.10690  0.45740  Biso   1.000  H
  C73      1.0000 0.17434  0.00070  0.45203  Biso   1.000  C
  C74      1.0000 0.53049  0.23530  0.55187  Biso   1.000  C
  H47      1.0000 0.56590  0.26760  0.57620  Biso   1.000  H
  C75      1.0000 0.48880  0.19950  0.47972  Biso   1.000  C
  H48      1.0000 0.49500  0.20670  0.45240  Biso   1.000  H
  Eu4      1.0000 0.53823  0.47960  0.70068  Biso   1.000  Eu
  O19      1.0000 0.43395  0.37270  0.72341  Biso   1.000  O
  O20      1.0000 0.59183  0.37350  0.64709  Biso   1.000  O
  O21      1.0000 0.89329  0.14549  0.74680  Biso   1.000  O
  O22      1.0000 0.65706  0.37660  0.71560  Biso   1.000  O
  O23      1.0000 0.49211  0.22600  0.69248  Biso   1.000  O
  O24      1.0000 0.95528  0.16903  0.69969  Biso   1.000  O
  N10      1.0000 0.56375  0.52410  0.37331  Biso   1.000  N
  N11      1.0000 0.79487  0.55410  0.49095  Biso   1.000  N
  N12      1.0000 0.04111  0.75000  0.51365  Biso   1.000  N
  C76      1.0000 0.65117  0.36540  0.67589  Biso   1.000  C
  C77      1.0000 0.71876  0.38640  0.62160  Biso   1.000  C
  H49      1.0000 0.67830  0.42410  0.60170  Biso   1.000  H
  C78      1.0000 0.71711  0.34580  0.66269  Biso   1.000  C
  C79      1.0000 0.44465  0.24520  0.70994  Biso   1.000  C
  C80      1.0000 0.90058  0.18690  0.71147  Biso   1.000  C
  C81      1.0000 0.78091  0.37110  0.60997  Biso   1.000  C
  C82      1.0000 0.83806  0.26300  0.68021  Biso   1.000  C
  C83      1.0000 0.78479  0.43040  0.56797  Biso   1.000  C
  C84      1.0000 0.83937  0.30550  0.63932  Biso   1.000  C
  H50      1.0000 0.88010  0.28990  0.63130  Biso   1.000  H
  C85      1.0000 0.97013  0.67480  0.55809  Biso   1.000  C
  H51      1.0000 0.96560  0.66900  0.58580  Biso   1.000  H
  C86      1.0000 0.85065  0.55460  0.52688  Biso   1.000  C
  C87      1.0000 0.55268  0.47460  0.40970  Biso   1.000  C
  H52      1.0000 0.50680  0.44840  0.40860  Biso   1.000  H
  C88      1.0000 0.77719  0.28720  0.69201  Biso   1.000  C
  H53      1.0000 0.77670  0.26380  0.71990  Biso   1.000  H
  C89      1.0000 0.91670  0.62330  0.52293  Biso   1.000  C
  C90      1.0000 0.84752  0.49380  0.56585  Biso   1.000  C
  H54      1.0000 0.88710  0.49570  0.59030  Biso   1.000  H
  C91      1.0000 0.39926  0.11990  0.71510  Biso   1.000  C
  H55      1.0000 0.36330  0.10220  0.68810  Biso   1.000  H
  H56      1.0000 0.37740  0.14320  0.73700  Biso   1.000  H
  H57      1.0000 0.42800  0.03390  0.72350  Biso   1.000  H
  C92      1.0000 0.72759  0.42890  0.53067  Biso   1.000  C
  H58      1.0000 0.68520  0.38560  0.53080  Biso   1.000  H
  C93      1.0000 0.60527  0.46040  0.44865  Biso   1.000  C
  H59      1.0000 0.59450  0.42370  0.47270  Biso   1.000  H
  C94      1.0000 0.63046  0.55960  0.37664  Biso   1.000  C
  H60      1.0000 0.64020  0.59130  0.35170  Biso   1.000  H
  C95      1.0000 0.68552  0.55270  0.41414  Biso   1.000  C
  H61      1.0000 0.73050  0.58280  0.41440  Biso   1.000  H
  C96      1.0000 0.73406  0.49290  0.49285  Biso   1.000  C
  C97      1.0000 0.92700  0.63810  0.48233  Biso   1.000  C
  H62      1.0000 0.89250  0.60690  0.45740  Biso   1.000  H
  C98      1.0000 0.67434  0.50070  0.45203  Biso   1.000  C
  C99      1.0000 0.03049  0.73530  0.55187  Biso   1.000  C
  H63      1.0000 0.06590  0.76760  0.57620  Biso   1.000  H
  C100     1.0000 0.98880  0.69950  0.47972  Biso   1.000  C
  H64      1.0000 0.99500  0.70670  0.45240  Biso   1.000  H
  Eu5      1.0000 0.03823  0.02040  0.20068  Biso   1.000  Eu
  O25      1.0000 0.93395  0.12730  0.22341  Biso   1.000  O
  O26      1.0000 0.09183  0.12650  0.14709  Biso   1.000  O
  O27      1.0000 0.39329  0.35451  0.24680  Biso   1.000  O
  O28      1.0000 0.15706  0.12340  0.21560  Biso   1.000  O
  O29      1.0000 0.99211  0.27400  0.19248  Biso   1.000  O
  O30      1.0000 0.45528  0.33097  0.19969  Biso   1.000  O
  N13      1.0000 0.06375  0.97590  0.87331  Biso   1.000  N
  N14      1.0000 0.29487  0.94590  0.99095  Biso   1.000  N
  N15      1.0000 0.54111  0.75000  0.01365  Biso   1.000  N
  C101     1.0000 0.15117  0.13460  0.17589  Biso   1.000  C
  C102     1.0000 0.21876  0.11360  0.12160  Biso   1.000  C
  H65      1.0000 0.17830  0.07590  0.10170  Biso   1.000  H
  C103     1.0000 0.21711  0.15420  0.16269  Biso   1.000  C
  C104     1.0000 0.94465  0.25480  0.20994  Biso   1.000  C
  C105     1.0000 0.40058  0.31310  0.21147  Biso   1.000  C
  C106     1.0000 0.28091  0.12890  0.10997  Biso   1.000  C
  C107     1.0000 0.33806  0.23700  0.18021  Biso   1.000  C
  C108     1.0000 0.28479  0.06960  0.06797  Biso   1.000  C
  C109     1.0000 0.33937  0.19450  0.13932  Biso   1.000  C
  H66      1.0000 0.38010  0.21010  0.13130  Biso   1.000  H
  C110     1.0000 0.47013  0.82520  0.05809  Biso   1.000  C
  H67      1.0000 0.46560  0.83100  0.08580  Biso   1.000  H
  C111     1.0000 0.35065  0.94540  0.02688  Biso   1.000  C
  C112     1.0000 0.05268  0.02540  0.90970  Biso   1.000  C
  H68      1.0000 0.00680  0.05160  0.90860  Biso   1.000  H
  C113     1.0000 0.27719  0.21280  0.19201  Biso   1.000  C
  H69      1.0000 0.27670  0.23620  0.21990  Biso   1.000  H
  C114     1.0000 0.41670  0.87670  0.02293  Biso   1.000  C
  C115     1.0000 0.34752  0.00620  0.06585  Biso   1.000  C
  H70      1.0000 0.38710  0.00430  0.09030  Biso   1.000  H
  C116     1.0000 0.89926  0.38010  0.21510  Biso   1.000  C
  H71      1.0000 0.86330  0.39780  0.18810  Biso   1.000  H
  H72      1.0000 0.87740  0.35680  0.23700  Biso   1.000  H
  H73      1.0000 0.92800  0.46610  0.22350  Biso   1.000  H
  C117     1.0000 0.22759  0.07110  0.03067  Biso   1.000  C
  H74      1.0000 0.18520  0.11440  0.03080  Biso   1.000  H
  C118     1.0000 0.10527  0.03960  0.94865  Biso   1.000  C
  H75      1.0000 0.09450  0.07630  0.97270  Biso   1.000  H
  C119     1.0000 0.13046  0.94040  0.87664  Biso   1.000  C
  H76      1.0000 0.14020  0.90870  0.85170  Biso   1.000  H
  C120     1.0000 0.18552  0.94730  0.91414  Biso   1.000  C
  H77      1.0000 0.23050  0.91720  0.91440  Biso   1.000  H
  C121     1.0000 0.23406  0.00710  0.99285  Biso   1.000  C
  C122     1.0000 0.42700  0.86190  0.98233  Biso   1.000  C
  H78      1.0000 0.39250  0.89310  0.95740  Biso   1.000  H
  C123     1.0000 0.17434  0.99930  0.95203  Biso   1.000  C
  C124     1.0000 0.53049  0.76470  0.05187  Biso   1.000  C
  H79      1.0000 0.56590  0.73240  0.07620  Biso   1.000  H
  C125     1.0000 0.48880  0.80050  0.97972  Biso   1.000  C
  H80      1.0000 0.49500  0.79330  0.95240  Biso   1.000  H
  Eu6      1.0000 0.53823  0.52040  0.20068  Biso   1.000  Eu
  O31      1.0000 0.43395  0.62730  0.22341  Biso   1.000  O
  O32      1.0000 0.59183  0.62650  0.14709  Biso   1.000  O
  O33      1.0000 0.89329  0.85451  0.24680  Biso   1.000  O
  O34      1.0000 0.65706  0.62340  0.21560  Biso   1.000  O
  O35      1.0000 0.49211  0.77400  0.19248  Biso   1.000  O
  O36      1.0000 0.95528  0.83097  0.19969  Biso   1.000  O
  N16      1.0000 0.56375  0.47590  0.87331  Biso   1.000  N
  N17      1.0000 0.79487  0.44590  0.99095  Biso   1.000  N
  N18      1.0000 0.04111  0.25000  0.01365  Biso   1.000  N
  C126     1.0000 0.65117  0.63460  0.17589  Biso   1.000  C
  C127     1.0000 0.71876  0.61360  0.12160  Biso   1.000  C
  H81      1.0000 0.67830  0.57590  0.10170  Biso   1.000  H
  C128     1.0000 0.71711  0.65420  0.16269  Biso   1.000  C
  C129     1.0000 0.44465  0.75480  0.20994  Biso   1.000  C
  C130     1.0000 0.90058  0.81310  0.21147  Biso   1.000  C
  C131     1.0000 0.78091  0.62890  0.10997  Biso   1.000  C
  C132     1.0000 0.83806  0.73700  0.18021  Biso   1.000  C
  C133     1.0000 0.78479  0.56960  0.06797  Biso   1.000  C
  C134     1.0000 0.83937  0.69450  0.13932  Biso   1.000  C
  H82      1.0000 0.88010  0.71010  0.13130  Biso   1.000  H
  C135     1.0000 0.97013  0.32520  0.05809  Biso   1.000  C
  H83      1.0000 0.96560  0.33100  0.08580  Biso   1.000  H
  C136     1.0000 0.85065  0.44540  0.02688  Biso   1.000  C
  C137     1.0000 0.55268  0.52540  0.90970  Biso   1.000  C
  H84      1.0000 0.50680  0.55160  0.90860  Biso   1.000  H
  C138     1.0000 0.77719  0.71280  0.19201  Biso   1.000  C
  H85      1.0000 0.77670  0.73620  0.21990  Biso   1.000  H
  C139     1.0000 0.91670  0.37670  0.02293  Biso   1.000  C
  C140     1.0000 0.84752  0.50620  0.06585  Biso   1.000  C
  H86      1.0000 0.88710  0.50430  0.09030  Biso   1.000  H
  C141     1.0000 0.39926  0.88010  0.21510  Biso   1.000  C
  H87      1.0000 0.36330  0.89780  0.18810  Biso   1.000  H
  H88      1.0000 0.37740  0.85680  0.23700  Biso   1.000  H
  H89      1.0000 0.42800  0.96610  0.22350  Biso   1.000  H
  C142     1.0000 0.72759  0.57110  0.03067  Biso   1.000  C
  H90      1.0000 0.68520  0.61440  0.03080  Biso   1.000  H
  C143     1.0000 0.60527  0.53960  0.94865  Biso   1.000  C
  H91      1.0000 0.59450  0.57630  0.97270  Biso   1.000  H
  C144     1.0000 0.63046  0.44040  0.87664  Biso   1.000  C
  H92      1.0000 0.64020  0.40870  0.85170  Biso   1.000  H
  C145     1.0000 0.68552  0.44730  0.91414  Biso   1.000  C
  H93      1.0000 0.73050  0.41720  0.91440  Biso   1.000  H
  C146     1.0000 0.73406  0.50710  0.99285  Biso   1.000  C
  C147     1.0000 0.92700  0.36190  0.98233  Biso   1.000  C
  H94      1.0000 0.89250  0.39310  0.95740  Biso   1.000  H
  C148     1.0000 0.67434  0.49930  0.95203  Biso   1.000  C
  C149     1.0000 0.03049  0.26470  0.05187  Biso   1.000  C
  H95      1.0000 0.06590  0.23240  0.07620  Biso   1.000  H
  C150     1.0000 0.98880  0.30050  0.97972  Biso   1.000  C
  H96      1.0000 0.99500  0.29330  0.95240  Biso   1.000  H
  Eu7      1.0000 0.96177  0.02040  0.29932  Biso   1.000  Eu
  O37      1.0000 0.06605  0.12730  0.27659  Biso   1.000  O
  O38      1.0000 0.90817  0.12650  0.35291  Biso   1.000  O
  O39      1.0000 0.60671  0.35451  0.25320  Biso   1.000  O
  O40      1.0000 0.84294  0.12340  0.28440  Biso   1.000  O
  O41      1.0000 0.00789  0.27400  0.30752  Biso   1.000  O
  O42      1.0000 0.54472  0.33097  0.30031  Biso   1.000  O
  N19      1.0000 0.93625  0.97590  0.62669  Biso   1.000  N
  N20      1.0000 0.70513  0.94590  0.50905  Biso   1.000  N
  N21      1.0000 0.45889  0.75000  0.48635  Biso   1.000  N
  C151     1.0000 0.84883  0.13460  0.32411  Biso   1.000  C
  C152     1.0000 0.78124  0.11360  0.37840  Biso   1.000  C
  H97      1.0000 0.82170  0.07590  0.39830  Biso   1.000  H
  C153     1.0000 0.78289  0.15420  0.33731  Biso   1.000  C
  C154     1.0000 0.05535  0.25480  0.29006  Biso   1.000  C
  C155     1.0000 0.59942  0.31310  0.28853  Biso   1.000  C
  C156     1.0000 0.71909  0.12890  0.39003  Biso   1.000  C
  C157     1.0000 0.66194  0.23700  0.31979  Biso   1.000  C
  C158     1.0000 0.71521  0.06960  0.43203  Biso   1.000  C
  C159     1.0000 0.66063  0.19450  0.36068  Biso   1.000  C
  H98      1.0000 0.61990  0.21010  0.36870  Biso   1.000  H
  C160     1.0000 0.52987  0.82520  0.44191  Biso   1.000  C
  H99      1.0000 0.53440  0.83100  0.41420  Biso   1.000  H
  C161     1.0000 0.64935  0.94540  0.47312  Biso   1.000  C
  C162     1.0000 0.94732  0.02540  0.59030  Biso   1.000  C
  H100     1.0000 0.99320  0.05160  0.59140  Biso   1.000  H
  C163     1.0000 0.72281  0.21280  0.30799  Biso   1.000  C
  H101     1.0000 0.72330  0.23620  0.28010  Biso   1.000  H
  C164     1.0000 0.58330  0.87670  0.47707  Biso   1.000  C
  C165     1.0000 0.65248  0.00620  0.43415  Biso   1.000  C
  H102     1.0000 0.61290  0.00430  0.40970  Biso   1.000  H
  C166     1.0000 0.10074  0.38010  0.28490  Biso   1.000  C
  H103     1.0000 0.13670  0.39780  0.31190  Biso   1.000  H
  H104     1.0000 0.12260  0.35680  0.26300  Biso   1.000  H
  H105     1.0000 0.07200  0.46610  0.27650  Biso   1.000  H
  C167     1.0000 0.77241  0.07110  0.46933  Biso   1.000  C
  H106     1.0000 0.81480  0.11440  0.46920  Biso   1.000  H
  C168     1.0000 0.89473  0.03960  0.55135  Biso   1.000  C
  H107     1.0000 0.90550  0.07630  0.52730  Biso   1.000  H
  C169     1.0000 0.86954  0.94040  0.62336  Biso   1.000  C
  H108     1.0000 0.85980  0.90870  0.64830  Biso   1.000  H
  C170     1.0000 0.81448  0.94730  0.58586  Biso   1.000  C
  H109     1.0000 0.76950  0.91720  0.58560  Biso   1.000  H
  C171     1.0000 0.76594  0.00710  0.50715  Biso   1.000  C
  C172     1.0000 0.57300  0.86190  0.51767  Biso   1.000  C
  H110     1.0000 0.60750  0.89310  0.54260  Biso   1.000  H
  C173     1.0000 0.82566  0.99930  0.54797  Biso   1.000  C
  C174     1.0000 0.46951  0.76470  0.44813  Biso   1.000  C
  H111     1.0000 0.43410  0.73240  0.42380  Biso   1.000  H
  C175     1.0000 0.51120  0.80050  0.52028  Biso   1.000  C
  H112     1.0000 0.50500  0.79330  0.54760  Biso   1.000  H
  Eu8      1.0000 0.46177  0.52040  0.29932  Biso   1.000  Eu
  O43      1.0000 0.56605  0.62730  0.27659  Biso   1.000  O
  O44      1.0000 0.40817  0.62650  0.35291  Biso   1.000  O
  O45      1.0000 0.10671  0.85451  0.25320  Biso   1.000  O
  O46      1.0000 0.34294  0.62340  0.28440  Biso   1.000  O
  O47      1.0000 0.50789  0.77400  0.30752  Biso   1.000  O
  O48      1.0000 0.04472  0.83097  0.30031  Biso   1.000  O
  N22      1.0000 0.43625  0.47590  0.62669  Biso   1.000  N
  N23      1.0000 0.20513  0.44590  0.50905  Biso   1.000  N
  N24      1.0000 0.95889  0.25000  0.48635  Biso   1.000  N
  C176     1.0000 0.34883  0.63460  0.32411  Biso   1.000  C
  C177     1.0000 0.28124  0.61360  0.37840  Biso   1.000  C
  H113     1.0000 0.32170  0.57590  0.39830  Biso   1.000  H
  C178     1.0000 0.28289  0.65420  0.33731  Biso   1.000  C
  C179     1.0000 0.55535  0.75480  0.29006  Biso   1.000  C
  C180     1.0000 0.09942  0.81310  0.28853  Biso   1.000  C
  C181     1.0000 0.21909  0.62890  0.39003  Biso   1.000  C
  C182     1.0000 0.16194  0.73700  0.31979  Biso   1.000  C
  C183     1.0000 0.21521  0.56960  0.43203  Biso   1.000  C
  C184     1.0000 0.16063  0.69450  0.36068  Biso   1.000  C
  H114     1.0000 0.11990  0.71010  0.36870  Biso   1.000  H
  C185     1.0000 0.02987  0.32520  0.44191  Biso   1.000  C
  H115     1.0000 0.03440  0.33100  0.41420  Biso   1.000  H
  C186     1.0000 0.14935  0.44540  0.47312  Biso   1.000  C
  C187     1.0000 0.44732  0.52540  0.59030  Biso   1.000  C
  H116     1.0000 0.49320  0.55160  0.59140  Biso   1.000  H
  C188     1.0000 0.22281  0.71280  0.30799  Biso   1.000  C
  H117     1.0000 0.22330  0.73620  0.28010  Biso   1.000  H
  C189     1.0000 0.08330  0.37670  0.47707  Biso   1.000  C
  C190     1.0000 0.15248  0.50620  0.43415  Biso   1.000  C
  H118     1.0000 0.11290  0.50430  0.40970  Biso   1.000  H
  C191     1.0000 0.60074  0.88010  0.28490  Biso   1.000  C
  H119     1.0000 0.63670  0.89780  0.31190  Biso   1.000  H
  H120     1.0000 0.62260  0.85680  0.26300  Biso   1.000  H
  H121     1.0000 0.57200  0.96610  0.27650  Biso   1.000  H
  C192     1.0000 0.27241  0.57110  0.46933  Biso   1.000  C
  H122     1.0000 0.31480  0.61440  0.46920  Biso   1.000  H
  C193     1.0000 0.39473  0.53960  0.55135  Biso   1.000  C
  H123     1.0000 0.40550  0.57630  0.52730  Biso   1.000  H
  C194     1.0000 0.36954  0.44040  0.62336  Biso   1.000  C
  H124     1.0000 0.35980  0.40870  0.64830  Biso   1.000  H
  C195     1.0000 0.31448  0.44730  0.58586  Biso   1.000  C
  H125     1.0000 0.26950  0.41720  0.58560  Biso   1.000  H
  C196     1.0000 0.26594  0.50710  0.50715  Biso   1.000  C
  C197     1.0000 0.07300  0.36190  0.51767  Biso   1.000  C
  H126     1.0000 0.10750  0.39310  0.54260  Biso   1.000  H
  C198     1.0000 0.32566  0.49930  0.54797  Biso   1.000  C
  C199     1.0000 0.96951  0.26470  0.44813  Biso   1.000  C
  H127     1.0000 0.93410  0.23240  0.42380  Biso   1.000  H
  C200     1.0000 0.01120  0.30050  0.52028  Biso   1.000  C
  H128     1.0000 0.00500  0.29330  0.54760  Biso   1.000  H
