data_image0
_cell_length_a       11.6985
_cell_length_b       11.6985
_cell_length_c       27.669
_cell_angle_alpha    90
_cell_angle_beta     90
_cell_angle_gamma    90

_symmetry_space_group_name_H-M    "P 1"
_symmetry_int_tables_number       1

loop_
  _symmetry_equiv_pos_as_xyz
  'x, y, z'

loop_
  _atom_site_label
  _atom_site_occupancy
  _atom_site_fract_x
  _atom_site_fract_y
  _atom_site_fract_z
  _atom_site_thermal_displace_type
  _atom_site_B_iso_or_equiv
  _atom_site_type_symbol
  Li1      1.0000 0.22820  0.21620  0.08150  Biso   1.000  Li
  C1       1.0000 0.15210  0.57630  0.01006  Biso   1.000  C
  C2       1.0000 0.13850  0.46300  0.02294  Biso   1.000  C
  C3       1.0000 0.11760  0.43360  0.07185  Biso   1.000  C
  C4       1.0000 0.11560  0.63080  0.08510  Biso   1.000  C
  H1       1.0000 0.10350  0.68890  0.10750  Biso   1.000  H
  C5       1.0000 0.17500  0.47730  0.94640  Biso   1.000  C
  H2       1.0000 0.18840  0.45680  0.91440  Biso   1.000  H
  N1       1.0000 0.10360  0.52440  0.10221  Biso   1.000  N
  N2       1.0000 0.14210  0.66490  0.04103  Biso   1.000  N
  N3       1.0000 0.15250  0.39970  0.98104  Biso   1.000  N
  N4       1.0000 0.17680  0.58510  0.96125  Biso   1.000  N
  O1       1.0000 0.11190  0.33180  0.08731  Biso   1.000  O
  H3       1.0000 0.08710  0.51320  0.13210  Biso   1.000  H
  H4       1.0000 0.15240  0.73850  0.03260  Biso   1.000  H
  H5       1.0000 0.19010  0.64570  0.94460  Biso   1.000  H
  Li2      1.0000 0.72820  0.71620  0.58150  Biso   1.000  Li
  C6       1.0000 0.65210  0.07630  0.51006  Biso   1.000  C
  C7       1.0000 0.63850  0.96300  0.52294  Biso   1.000  C
  C8       1.0000 0.61760  0.93360  0.57185  Biso   1.000  C
  C9       1.0000 0.61560  0.13080  0.58510  Biso   1.000  C
  H6       1.0000 0.60350  0.18890  0.60750  Biso   1.000  H
  C10      1.0000 0.67500  0.97730  0.44640  Biso   1.000  C
  H7       1.0000 0.68840  0.95680  0.41440  Biso   1.000  H
  N5       1.0000 0.60360  0.02440  0.60221  Biso   1.000  N
  N6       1.0000 0.64210  0.16490  0.54103  Biso   1.000  N
  N7       1.0000 0.65250  0.89970  0.48104  Biso   1.000  N
  N8       1.0000 0.67680  0.08510  0.46125  Biso   1.000  N
  O2       1.0000 0.61190  0.83180  0.58731  Biso   1.000  O
  H8       1.0000 0.58710  0.01320  0.63210  Biso   1.000  H
  H9       1.0000 0.65240  0.23850  0.53260  Biso   1.000  H
  H10      1.0000 0.69010  0.14570  0.44460  Biso   1.000  H
  Li3      1.0000 0.27180  0.78380  0.58150  Biso   1.000  Li
  C11      1.0000 0.34790  0.42370  0.51006  Biso   1.000  C
  C12      1.0000 0.36150  0.53700  0.52294  Biso   1.000  C
  C13      1.0000 0.38240  0.56640  0.57185  Biso   1.000  C
  C14      1.0000 0.38440  0.36920  0.58510  Biso   1.000  C
  H11      1.0000 0.39650  0.31110  0.60750  Biso   1.000  H
  C15      1.0000 0.32500  0.52270  0.44640  Biso   1.000  C
  H12      1.0000 0.31160  0.54320  0.41440  Biso   1.000  H
  N9       1.0000 0.39640  0.47560  0.60221  Biso   1.000  N
  N10      1.0000 0.35790  0.33510  0.54103  Biso   1.000  N
  N11      1.0000 0.34750  0.60030  0.48104  Biso   1.000  N
  N12      1.0000 0.32320  0.41490  0.46125  Biso   1.000  N
  O3       1.0000 0.38810  0.66820  0.58731  Biso   1.000  O
  H13      1.0000 0.41290  0.48680  0.63210  Biso   1.000  H
  H14      1.0000 0.34760  0.26150  0.53260  Biso   1.000  H
  H15      1.0000 0.30990  0.35430  0.44460  Biso   1.000  H
  Li4      1.0000 0.77180  0.28380  0.08150  Biso   1.000  Li
  C16      1.0000 0.84790  0.92370  0.01006  Biso   1.000  C
  C17      1.0000 0.86150  0.03700  0.02294  Biso   1.000  C
  C18      1.0000 0.88240  0.06640  0.07185  Biso   1.000  C
  C19      1.0000 0.88440  0.86920  0.08510  Biso   1.000  C
  H16      1.0000 0.89650  0.81110  0.10750  Biso   1.000  H
  C20      1.0000 0.82500  0.02270  0.94640  Biso   1.000  C
  H17      1.0000 0.81160  0.04320  0.91440  Biso   1.000  H
  N13      1.0000 0.89640  0.97560  0.10221  Biso   1.000  N
  N14      1.0000 0.85790  0.83510  0.04103  Biso   1.000  N
  N15      1.0000 0.84750  0.10030  0.98104  Biso   1.000  N
  N16      1.0000 0.82320  0.91490  0.96125  Biso   1.000  N
  O4       1.0000 0.88810  0.16820  0.08731  Biso   1.000  O
  H18      1.0000 0.91290  0.98680  0.13210  Biso   1.000  H
  H19      1.0000 0.84760  0.76150  0.03260  Biso   1.000  H
  H20      1.0000 0.80990  0.85430  0.94460  Biso   1.000  H
  Li5      1.0000 0.53380  0.47820  0.33150  Biso   1.000  Li
  C21      1.0000 0.17370  0.40210  0.26006  Biso   1.000  C
  C22      1.0000 0.28700  0.38850  0.27294  Biso   1.000  C
  C23      1.0000 0.31640  0.36760  0.32185  Biso   1.000  C
  C24      1.0000 0.11920  0.36560  0.33510  Biso   1.000  C
  H21      1.0000 0.06110  0.35350  0.35750  Biso   1.000  H
  C25      1.0000 0.27270  0.42500  0.19640  Biso   1.000  C
  H22      1.0000 0.29320  0.43840  0.16440  Biso   1.000  H
  N17      1.0000 0.22560  0.35360  0.35221  Biso   1.000  N
  N18      1.0000 0.08510  0.39210  0.29103  Biso   1.000  N
  N19      1.0000 0.35030  0.40250  0.23104  Biso   1.000  N
  N20      1.0000 0.16490  0.42680  0.21125  Biso   1.000  N
  O5       1.0000 0.41820  0.36190  0.33731  Biso   1.000  O
  H23      1.0000 0.23680  0.33710  0.38210  Biso   1.000  H
  H24      1.0000 0.01150  0.40240  0.28260  Biso   1.000  H
  H25      1.0000 0.10430  0.44010  0.19460  Biso   1.000  H
  Li6      1.0000 0.03380  0.97820  0.83150  Biso   1.000  Li
  C26      1.0000 0.67370  0.90210  0.76006  Biso   1.000  C
  C27      1.0000 0.78700  0.88850  0.77294  Biso   1.000  C
  C28      1.0000 0.81640  0.86760  0.82185  Biso   1.000  C
  C29      1.0000 0.61920  0.86560  0.83510  Biso   1.000  C
  H26      1.0000 0.56110  0.85350  0.85750  Biso   1.000  H
  C30      1.0000 0.77270  0.92500  0.69640  Biso   1.000  C
  H27      1.0000 0.79320  0.93840  0.66440  Biso   1.000  H
  N21      1.0000 0.72560  0.85360  0.85221  Biso   1.000  N
  N22      1.0000 0.58510  0.89210  0.79103  Biso   1.000  N
  N23      1.0000 0.85030  0.90250  0.73104  Biso   1.000  N
  N24      1.0000 0.66490  0.92680  0.71125  Biso   1.000  N
  O6       1.0000 0.91820  0.86190  0.83731  Biso   1.000  O
  H28      1.0000 0.73680  0.83710  0.88210  Biso   1.000  H
  H29      1.0000 0.51150  0.90240  0.78260  Biso   1.000  H
  H30      1.0000 0.60430  0.94010  0.69460  Biso   1.000  H
  Li7      1.0000 0.96620  0.52180  0.83150  Biso   1.000  Li
  C31      1.0000 0.32630  0.59790  0.76006  Biso   1.000  C
  C32      1.0000 0.21300  0.61150  0.77294  Biso   1.000  C
  C33      1.0000 0.18360  0.63240  0.82185  Biso   1.000  C
  C34      1.0000 0.38080  0.63440  0.83510  Biso   1.000  C
  H31      1.0000 0.43890  0.64650  0.85750  Biso   1.000  H
  C35      1.0000 0.22730  0.57500  0.69640  Biso   1.000  C
  H32      1.0000 0.20680  0.56160  0.66440  Biso   1.000  H
  N25      1.0000 0.27440  0.64640  0.85221  Biso   1.000  N
  N26      1.0000 0.41490  0.60790  0.79103  Biso   1.000  N
  N27      1.0000 0.14970  0.59750  0.73104  Biso   1.000  N
  N28      1.0000 0.33510  0.57320  0.71125  Biso   1.000  N
  O7       1.0000 0.08180  0.63810  0.83731  Biso   1.000  O
  H33      1.0000 0.26320  0.66290  0.88210  Biso   1.000  H
  H34      1.0000 0.48850  0.59760  0.78260  Biso   1.000  H
  H35      1.0000 0.39570  0.55990  0.69460  Biso   1.000  H
  Li8      1.0000 0.46620  0.02180  0.33150  Biso   1.000  Li
  C36      1.0000 0.82630  0.09790  0.26006  Biso   1.000  C
  C37      1.0000 0.71300  0.11150  0.27294  Biso   1.000  C
  C38      1.0000 0.68360  0.13240  0.32185  Biso   1.000  C
  C39      1.0000 0.88080  0.13440  0.33510  Biso   1.000  C
  H36      1.0000 0.93890  0.14650  0.35750  Biso   1.000  H
  C40      1.0000 0.72730  0.07500  0.19640  Biso   1.000  C
  H37      1.0000 0.70680  0.06160  0.16440  Biso   1.000  H
  N29      1.0000 0.77440  0.14640  0.35221  Biso   1.000  N
  N30      1.0000 0.91490  0.10790  0.29103  Biso   1.000  N
  N31      1.0000 0.64970  0.09750  0.23104  Biso   1.000  N
  N32      1.0000 0.83510  0.07320  0.21125  Biso   1.000  N
  O8       1.0000 0.58180  0.13810  0.33731  Biso   1.000  O
  H38      1.0000 0.76320  0.16290  0.38210  Biso   1.000  H
  H39      1.0000 0.98850  0.09760  0.28260  Biso   1.000  H
  H40      1.0000 0.89570  0.05990  0.19460  Biso   1.000  H
  Li9      1.0000 0.77180  0.78380  0.91850  Biso   1.000  Li
  C41      1.0000 0.84790  0.42370  0.98994  Biso   1.000  C
  C42      1.0000 0.86150  0.53700  0.97706  Biso   1.000  C
  C43      1.0000 0.88240  0.56640  0.92815  Biso   1.000  C
  C44      1.0000 0.88440  0.36920  0.91490  Biso   1.000  C
  H41      1.0000 0.89650  0.31110  0.89250  Biso   1.000  H
  C45      1.0000 0.82500  0.52270  0.05360  Biso   1.000  C
  H42      1.0000 0.81160  0.54320  0.08560  Biso   1.000  H
  N33      1.0000 0.89640  0.47560  0.89779  Biso   1.000  N
  N34      1.0000 0.85790  0.33510  0.95897  Biso   1.000  N
  N35      1.0000 0.84750  0.60030  0.01896  Biso   1.000  N
  N36      1.0000 0.82320  0.41490  0.03875  Biso   1.000  N
  O9       1.0000 0.88810  0.66820  0.91269  Biso   1.000  O
  H43      1.0000 0.91290  0.48680  0.86790  Biso   1.000  H
  H44      1.0000 0.84760  0.26150  0.96740  Biso   1.000  H
  H45      1.0000 0.80990  0.35430  0.05540  Biso   1.000  H
  Li10     1.0000 0.27180  0.28380  0.41850  Biso   1.000  Li
  C46      1.0000 0.34790  0.92370  0.48994  Biso   1.000  C
  C47      1.0000 0.36150  0.03700  0.47706  Biso   1.000  C
  C48      1.0000 0.38240  0.06640  0.42815  Biso   1.000  C
  C49      1.0000 0.38440  0.86920  0.41490  Biso   1.000  C
  H46      1.0000 0.39650  0.81110  0.39250  Biso   1.000  H
  C50      1.0000 0.32500  0.02270  0.55360  Biso   1.000  C
  H47      1.0000 0.31160  0.04320  0.58560  Biso   1.000  H
  N37      1.0000 0.39640  0.97560  0.39779  Biso   1.000  N
  N38      1.0000 0.35790  0.83510  0.45897  Biso   1.000  N
  N39      1.0000 0.34750  0.10030  0.51896  Biso   1.000  N
  N40      1.0000 0.32320  0.91490  0.53875  Biso   1.000  N
  O10      1.0000 0.38810  0.16820  0.41269  Biso   1.000  O
  H48      1.0000 0.41290  0.98680  0.36790  Biso   1.000  H
  H49      1.0000 0.34760  0.76150  0.46740  Biso   1.000  H
  H50      1.0000 0.30990  0.85430  0.55540  Biso   1.000  H
  Li11     1.0000 0.72820  0.21620  0.41850  Biso   1.000  Li
  C51      1.0000 0.65210  0.57630  0.48994  Biso   1.000  C
  C52      1.0000 0.63850  0.46300  0.47706  Biso   1.000  C
  C53      1.0000 0.61760  0.43360  0.42815  Biso   1.000  C
  C54      1.0000 0.61560  0.63080  0.41490  Biso   1.000  C
  H51      1.0000 0.60350  0.68890  0.39250  Biso   1.000  H
  C55      1.0000 0.67500  0.47730  0.55360  Biso   1.000  C
  H52      1.0000 0.68840  0.45680  0.58560  Biso   1.000  H
  N41      1.0000 0.60360  0.52440  0.39779  Biso   1.000  N
  N42      1.0000 0.64210  0.66490  0.45897  Biso   1.000  N
  N43      1.0000 0.65250  0.39970  0.51896  Biso   1.000  N
  N44      1.0000 0.67680  0.58510  0.53875  Biso   1.000  N
  O11      1.0000 0.61190  0.33180  0.41269  Biso   1.000  O
  H53      1.0000 0.58710  0.51320  0.36790  Biso   1.000  H
  H54      1.0000 0.65240  0.73850  0.46740  Biso   1.000  H
  H55      1.0000 0.69010  0.64570  0.55540  Biso   1.000  H
  Li12     1.0000 0.22820  0.71620  0.91850  Biso   1.000  Li
  C56      1.0000 0.15210  0.07630  0.98994  Biso   1.000  C
  C57      1.0000 0.13850  0.96300  0.97706  Biso   1.000  C
  C58      1.0000 0.11760  0.93360  0.92815  Biso   1.000  C
  C59      1.0000 0.11560  0.13080  0.91490  Biso   1.000  C
  H56      1.0000 0.10350  0.18890  0.89250  Biso   1.000  H
  C60      1.0000 0.17500  0.97730  0.05360  Biso   1.000  C
  H57      1.0000 0.18840  0.95680  0.08560  Biso   1.000  H
  N45      1.0000 0.10360  0.02440  0.89779  Biso   1.000  N
  N46      1.0000 0.14210  0.16490  0.95897  Biso   1.000  N
  N47      1.0000 0.15250  0.89970  0.01896  Biso   1.000  N
  N48      1.0000 0.17680  0.08510  0.03875  Biso   1.000  N
  O12      1.0000 0.11190  0.83180  0.91269  Biso   1.000  O
  H58      1.0000 0.08710  0.01320  0.86790  Biso   1.000  H
  H59      1.0000 0.15240  0.23850  0.96740  Biso   1.000  H
  H60      1.0000 0.19010  0.14570  0.05540  Biso   1.000  H
  Li13     1.0000 0.46620  0.52180  0.66850  Biso   1.000  Li
  C61      1.0000 0.82630  0.59790  0.73994  Biso   1.000  C
  C62      1.0000 0.71300  0.61150  0.72706  Biso   1.000  C
  C63      1.0000 0.68360  0.63240  0.67815  Biso   1.000  C
  C64      1.0000 0.88080  0.63440  0.66490  Biso   1.000  C
  H61      1.0000 0.93890  0.64650  0.64250  Biso   1.000  H
  C65      1.0000 0.72730  0.57500  0.80360  Biso   1.000  C
  H62      1.0000 0.70680  0.56160  0.83560  Biso   1.000  H
  N49      1.0000 0.77440  0.64640  0.64779  Biso   1.000  N
  N50      1.0000 0.91490  0.60790  0.70897  Biso   1.000  N
  N51      1.0000 0.64970  0.59750  0.76896  Biso   1.000  N
  N52      1.0000 0.83510  0.57320  0.78875  Biso   1.000  N
  O13      1.0000 0.58180  0.63810  0.66269  Biso   1.000  O
  H63      1.0000 0.76320  0.66290  0.61790  Biso   1.000  H
  H64      1.0000 0.98850  0.59760  0.71740  Biso   1.000  H
  H65      1.0000 0.89570  0.55990  0.80540  Biso   1.000  H
  Li14     1.0000 0.96620  0.02180  0.16850  Biso   1.000  Li
  C66      1.0000 0.32630  0.09790  0.23994  Biso   1.000  C
  C67      1.0000 0.21300  0.11150  0.22706  Biso   1.000  C
  C68      1.0000 0.18360  0.13240  0.17815  Biso   1.000  C
  C69      1.0000 0.38080  0.13440  0.16490  Biso   1.000  C
  H66      1.0000 0.43890  0.14650  0.14250  Biso   1.000  H
  C70      1.0000 0.22730  0.07500  0.30360  Biso   1.000  C
  H67      1.0000 0.20680  0.06160  0.33560  Biso   1.000  H
  N53      1.0000 0.27440  0.14640  0.14779  Biso   1.000  N
  N54      1.0000 0.41490  0.10790  0.20897  Biso   1.000  N
  N55      1.0000 0.14970  0.09750  0.26896  Biso   1.000  N
  N56      1.0000 0.33510  0.07320  0.28875  Biso   1.000  N
  O14      1.0000 0.08180  0.13810  0.16269  Biso   1.000  O
  H68      1.0000 0.26320  0.16290  0.11790  Biso   1.000  H
  H69      1.0000 0.48850  0.09760  0.21740  Biso   1.000  H
  H70      1.0000 0.39570  0.05990  0.30540  Biso   1.000  H
  Li15     1.0000 0.03380  0.47820  0.16850  Biso   1.000  Li
  C71      1.0000 0.67370  0.40210  0.23994  Biso   1.000  C
  C72      1.0000 0.78700  0.38850  0.22706  Biso   1.000  C
  C73      1.0000 0.81640  0.36760  0.17815  Biso   1.000  C
  C74      1.0000 0.61920  0.36560  0.16490  Biso   1.000  C
  H71      1.0000 0.56110  0.35350  0.14250  Biso   1.000  H
  C75      1.0000 0.77270  0.42500  0.30360  Biso   1.000  C
  H72      1.0000 0.79320  0.43840  0.33560  Biso   1.000  H
  N57      1.0000 0.72560  0.35360  0.14779  Biso   1.000  N
  N58      1.0000 0.58510  0.39210  0.20897  Biso   1.000  N
  N59      1.0000 0.85030  0.40250  0.26896  Biso   1.000  N
  N60      1.0000 0.66490  0.42680  0.28875  Biso   1.000  N
  O15      1.0000 0.91820  0.36190  0.16269  Biso   1.000  O
  H73      1.0000 0.73680  0.33710  0.11790  Biso   1.000  H
  H74      1.0000 0.51150  0.40240  0.21740  Biso   1.000  H
  H75      1.0000 0.60430  0.44010  0.30540  Biso   1.000  H
  Li16     1.0000 0.53380  0.97820  0.66850  Biso   1.000  Li
  C76      1.0000 0.17370  0.90210  0.73994  Biso   1.000  C
  C77      1.0000 0.28700  0.88850  0.72706  Biso   1.000  C
  C78      1.0000 0.31640  0.86760  0.67815  Biso   1.000  C
  C79      1.0000 0.11920  0.86560  0.66490  Biso   1.000  C
  H76      1.0000 0.06110  0.85350  0.64250  Biso   1.000  H
  C80      1.0000 0.27270  0.92500  0.80360  Biso   1.000  C
  H77      1.0000 0.29320  0.93840  0.83560  Biso   1.000  H
  N61      1.0000 0.22560  0.85360  0.64779  Biso   1.000  N
  N62      1.0000 0.08510  0.89210  0.70897  Biso   1.000  N
  N63      1.0000 0.35030  0.90250  0.76896  Biso   1.000  N
  N64      1.0000 0.16490  0.92680  0.78875  Biso   1.000  N
  O16      1.0000 0.41820  0.86190  0.66269  Biso   1.000  O
  H78      1.0000 0.23680  0.83710  0.61790  Biso   1.000  H
  H79      1.0000 0.01150  0.90240  0.71740  Biso   1.000  H
  H80      1.0000 0.10430  0.94010  0.80540  Biso   1.000  H
  Li17     1.0000 0.00000  0.25000  0.12500  Biso   1.000  Li
  Li18     1.0000 0.50000  0.75000  0.62500  Biso   1.000  Li
  Li19     1.0000 0.50000  0.25000  0.37500  Biso   1.000  Li
  Li20     1.0000 0.00000  0.75000  0.87500  Biso   1.000  Li
