data_image0
_cell_length_a       11.6844
_cell_length_b       11.6844
_cell_length_c       27.555
_cell_angle_alpha    90
_cell_angle_beta     90
_cell_angle_gamma    90

_symmetry_space_group_name_H-M    "P 1"
_symmetry_int_tables_number       1

loop_
  _symmetry_equiv_pos_as_xyz
  'x, y, z'

loop_
  _atom_site_label
  _atom_site_occupancy
  _atom_site_fract_x
  _atom_site_fract_y
  _atom_site_fract_z
  _atom_site_thermal_displace_type
  _atom_site_B_iso_or_equiv
  _atom_site_type_symbol
  Li1      1.0000 0.22970  0.28300  0.08170  Biso   1.000  Li
  C1       1.0000 0.11420  0.86930  0.08506  Biso   1.000  C
  H1       1.0000 0.10130  0.81130  0.10750  Biso   1.000  H
  C2       1.0000 0.15260  0.92360  0.00944  Biso   1.000  C
  C3       1.0000 0.13830  0.03650  0.02277  Biso   1.000  C
  C4       1.0000 0.11710  0.06690  0.07148  Biso   1.000  C
  C5       1.0000 0.17540  0.02360  0.94623  Biso   1.000  C
  H2       1.0000 0.18860  0.04460  0.91420  Biso   1.000  H
  N1       1.0000 0.10190  0.97610  0.10201  Biso   1.000  N
  N2       1.0000 0.14190  0.83480  0.04101  Biso   1.000  N
  N3       1.0000 0.17670  0.91550  0.96104  Biso   1.000  N
  N4       1.0000 0.15340  0.09960  0.98110  Biso   1.000  N
  O1       1.0000 0.11200  0.16790  0.08735  Biso   1.000  O
  H3       1.0000 0.16300  0.94900  0.11700  Biso   1.000  H
  H4       1.0000 0.24200  0.87100  0.95200  Biso   1.000  H
  H5       1.0000 0.14600  0.17600  0.97300  Biso   1.000  H
  Li2      1.0000 0.72970  0.78300  0.58170  Biso   1.000  Li
  C6       1.0000 0.61420  0.36930  0.58506  Biso   1.000  C
  H6       1.0000 0.60130  0.31130  0.60750  Biso   1.000  H
  C7       1.0000 0.65260  0.42360  0.50944  Biso   1.000  C
  C8       1.0000 0.63830  0.53650  0.52277  Biso   1.000  C
  C9       1.0000 0.61710  0.56690  0.57148  Biso   1.000  C
  C10      1.0000 0.67540  0.52360  0.44623  Biso   1.000  C
  H7       1.0000 0.68860  0.54460  0.41420  Biso   1.000  H
  N5       1.0000 0.60190  0.47610  0.60201  Biso   1.000  N
  N6       1.0000 0.64190  0.33480  0.54101  Biso   1.000  N
  N7       1.0000 0.67670  0.41550  0.46104  Biso   1.000  N
  N8       1.0000 0.65340  0.59960  0.48110  Biso   1.000  N
  O2       1.0000 0.61200  0.66790  0.58735  Biso   1.000  O
  H8       1.0000 0.66300  0.44900  0.61700  Biso   1.000  H
  H9       1.0000 0.74200  0.37100  0.45200  Biso   1.000  H
  H10      1.0000 0.64600  0.67600  0.47300  Biso   1.000  H
  Li3      1.0000 0.27030  0.71700  0.58170  Biso   1.000  Li
  C11      1.0000 0.38580  0.13070  0.58506  Biso   1.000  C
  H11      1.0000 0.39870  0.18870  0.60750  Biso   1.000  H
  C12      1.0000 0.34740  0.07640  0.50944  Biso   1.000  C
  C13      1.0000 0.36170  0.96350  0.52277  Biso   1.000  C
  C14      1.0000 0.38290  0.93310  0.57148  Biso   1.000  C
  C15      1.0000 0.32460  0.97640  0.44623  Biso   1.000  C
  H12      1.0000 0.31140  0.95540  0.41420  Biso   1.000  H
  N9       1.0000 0.39810  0.02390  0.60201  Biso   1.000  N
  N10      1.0000 0.35810  0.16520  0.54101  Biso   1.000  N
  N11      1.0000 0.32330  0.08450  0.46104  Biso   1.000  N
  N12      1.0000 0.34660  0.90040  0.48110  Biso   1.000  N
  O3       1.0000 0.38800  0.83210  0.58735  Biso   1.000  O
  H13      1.0000 0.33700  0.05100  0.61700  Biso   1.000  H
  H14      1.0000 0.25800  0.12900  0.45200  Biso   1.000  H
  H15      1.0000 0.35400  0.82400  0.47300  Biso   1.000  H
  Li4      1.0000 0.77030  0.21700  0.08170  Biso   1.000  Li
  C16      1.0000 0.88580  0.63070  0.08506  Biso   1.000  C
  H16      1.0000 0.89870  0.68870  0.10750  Biso   1.000  H
  C17      1.0000 0.84740  0.57640  0.00944  Biso   1.000  C
  C18      1.0000 0.86170  0.46350  0.02277  Biso   1.000  C
  C19      1.0000 0.88290  0.43310  0.07148  Biso   1.000  C
  C20      1.0000 0.82460  0.47640  0.94623  Biso   1.000  C
  H17      1.0000 0.81140  0.45540  0.91420  Biso   1.000  H
  N13      1.0000 0.89810  0.52390  0.10201  Biso   1.000  N
  N14      1.0000 0.85810  0.66520  0.04101  Biso   1.000  N
  N15      1.0000 0.82330  0.58450  0.96104  Biso   1.000  N
  N16      1.0000 0.84660  0.40040  0.98110  Biso   1.000  N
  O4       1.0000 0.88800  0.33210  0.08735  Biso   1.000  O
  H18      1.0000 0.83700  0.55100  0.11700  Biso   1.000  H
  H19      1.0000 0.75800  0.62900  0.95200  Biso   1.000  H
  H20      1.0000 0.85400  0.32400  0.97300  Biso   1.000  H
  Li5      1.0000 0.46700  0.47970  0.33170  Biso   1.000  Li
  C21      1.0000 0.88070  0.36420  0.33506  Biso   1.000  C
  H21      1.0000 0.93870  0.35130  0.35750  Biso   1.000  H
  C22      1.0000 0.82640  0.40260  0.25944  Biso   1.000  C
  C23      1.0000 0.71350  0.38830  0.27277  Biso   1.000  C
  C24      1.0000 0.68310  0.36710  0.32148  Biso   1.000  C
  C25      1.0000 0.72640  0.42540  0.19623  Biso   1.000  C
  H22      1.0000 0.70540  0.43860  0.16420  Biso   1.000  H
  N17      1.0000 0.77390  0.35190  0.35201  Biso   1.000  N
  N18      1.0000 0.91520  0.39190  0.29101  Biso   1.000  N
  N19      1.0000 0.83450  0.42670  0.21104  Biso   1.000  N
  N20      1.0000 0.65040  0.40340  0.23110  Biso   1.000  N
  O5       1.0000 0.58210  0.36200  0.33735  Biso   1.000  O
  H23      1.0000 0.80100  0.41300  0.36700  Biso   1.000  H
  H24      1.0000 0.87900  0.49200  0.20200  Biso   1.000  H
  H25      1.0000 0.57400  0.39600  0.22300  Biso   1.000  H
  Li6      1.0000 0.96700  0.97970  0.83170  Biso   1.000  Li
  C26      1.0000 0.38070  0.86420  0.83506  Biso   1.000  C
  H26      1.0000 0.43870  0.85130  0.85750  Biso   1.000  H
  C27      1.0000 0.32640  0.90260  0.75944  Biso   1.000  C
  C28      1.0000 0.21350  0.88830  0.77277  Biso   1.000  C
  C29      1.0000 0.18310  0.86710  0.82148  Biso   1.000  C
  C30      1.0000 0.22640  0.92540  0.69623  Biso   1.000  C
  H27      1.0000 0.20540  0.93860  0.66420  Biso   1.000  H
  N21      1.0000 0.27390  0.85190  0.85201  Biso   1.000  N
  N22      1.0000 0.41520  0.89190  0.79101  Biso   1.000  N
  N23      1.0000 0.33450  0.92670  0.71104  Biso   1.000  N
  N24      1.0000 0.15040  0.90340  0.73110  Biso   1.000  N
  O6       1.0000 0.08210  0.86200  0.83735  Biso   1.000  O
  H28      1.0000 0.30100  0.91300  0.86700  Biso   1.000  H
  H29      1.0000 0.37900  0.99200  0.70200  Biso   1.000  H
  H30      1.0000 0.07400  0.89600  0.72300  Biso   1.000  H
  Li7      1.0000 0.03300  0.52030  0.83170  Biso   1.000  Li
  C31      1.0000 0.61930  0.63580  0.83506  Biso   1.000  C
  H31      1.0000 0.56130  0.64870  0.85750  Biso   1.000  H
  C32      1.0000 0.67360  0.59740  0.75944  Biso   1.000  C
  C33      1.0000 0.78650  0.61170  0.77277  Biso   1.000  C
  C34      1.0000 0.81690  0.63290  0.82148  Biso   1.000  C
  C35      1.0000 0.77360  0.57460  0.69623  Biso   1.000  C
  H32      1.0000 0.79460  0.56140  0.66420  Biso   1.000  H
  N25      1.0000 0.72610  0.64810  0.85201  Biso   1.000  N
  N26      1.0000 0.58480  0.60810  0.79101  Biso   1.000  N
  N27      1.0000 0.66550  0.57330  0.71104  Biso   1.000  N
  N28      1.0000 0.84960  0.59660  0.73110  Biso   1.000  N
  O7       1.0000 0.91790  0.63800  0.83735  Biso   1.000  O
  H33      1.0000 0.69900  0.58700  0.86700  Biso   1.000  H
  H34      1.0000 0.62100  0.50800  0.70200  Biso   1.000  H
  H35      1.0000 0.92600  0.60400  0.72300  Biso   1.000  H
  Li8      1.0000 0.53300  0.02030  0.33170  Biso   1.000  Li
  C36      1.0000 0.11930  0.13580  0.33506  Biso   1.000  C
  H36      1.0000 0.06130  0.14870  0.35750  Biso   1.000  H
  C37      1.0000 0.17360  0.09740  0.25944  Biso   1.000  C
  C38      1.0000 0.28650  0.11170  0.27277  Biso   1.000  C
  C39      1.0000 0.31690  0.13290  0.32148  Biso   1.000  C
  C40      1.0000 0.27360  0.07460  0.19623  Biso   1.000  C
  H37      1.0000 0.29460  0.06140  0.16420  Biso   1.000  H
  N29      1.0000 0.22610  0.14810  0.35201  Biso   1.000  N
  N30      1.0000 0.08480  0.10810  0.29101  Biso   1.000  N
  N31      1.0000 0.16550  0.07330  0.21104  Biso   1.000  N
  N32      1.0000 0.34960  0.09660  0.23110  Biso   1.000  N
  O8       1.0000 0.41790  0.13800  0.33735  Biso   1.000  O
  H38      1.0000 0.19900  0.08700  0.36700  Biso   1.000  H
  H39      1.0000 0.12100  0.00800  0.20200  Biso   1.000  H
  H40      1.0000 0.42600  0.10400  0.22300  Biso   1.000  H
  Li9      1.0000 0.77030  0.71700  0.91830  Biso   1.000  Li
  C41      1.0000 0.88580  0.13070  0.91494  Biso   1.000  C
  H41      1.0000 0.89870  0.18870  0.89250  Biso   1.000  H
  C42      1.0000 0.84740  0.07640  0.99056  Biso   1.000  C
  C43      1.0000 0.86170  0.96350  0.97723  Biso   1.000  C
  C44      1.0000 0.88290  0.93310  0.92852  Biso   1.000  C
  C45      1.0000 0.82460  0.97640  0.05377  Biso   1.000  C
  H42      1.0000 0.81140  0.95540  0.08580  Biso   1.000  H
  N33      1.0000 0.89810  0.02390  0.89799  Biso   1.000  N
  N34      1.0000 0.85810  0.16520  0.95899  Biso   1.000  N
  N35      1.0000 0.82330  0.08450  0.03896  Biso   1.000  N
  N36      1.0000 0.84660  0.90040  0.01890  Biso   1.000  N
  O9       1.0000 0.88800  0.83210  0.91265  Biso   1.000  O
  H43      1.0000 0.83700  0.05100  0.88300  Biso   1.000  H
  H44      1.0000 0.75800  0.12900  0.04800  Biso   1.000  H
  H45      1.0000 0.85400  0.82400  0.02700  Biso   1.000  H
  Li10     1.0000 0.27030  0.21700  0.41830  Biso   1.000  Li
  C46      1.0000 0.38580  0.63070  0.41494  Biso   1.000  C
  H46      1.0000 0.39870  0.68870  0.39250  Biso   1.000  H
  C47      1.0000 0.34740  0.57640  0.49056  Biso   1.000  C
  C48      1.0000 0.36170  0.46350  0.47723  Biso   1.000  C
  C49      1.0000 0.38290  0.43310  0.42852  Biso   1.000  C
  C50      1.0000 0.32460  0.47640  0.55377  Biso   1.000  C
  H47      1.0000 0.31140  0.45540  0.58580  Biso   1.000  H
  N37      1.0000 0.39810  0.52390  0.39799  Biso   1.000  N
  N38      1.0000 0.35810  0.66520  0.45899  Biso   1.000  N
  N39      1.0000 0.32330  0.58450  0.53896  Biso   1.000  N
  N40      1.0000 0.34660  0.40040  0.51890  Biso   1.000  N
  O10      1.0000 0.38800  0.33210  0.41265  Biso   1.000  O
  H48      1.0000 0.33700  0.55100  0.38300  Biso   1.000  H
  H49      1.0000 0.25800  0.62900  0.54800  Biso   1.000  H
  H50      1.0000 0.35400  0.32400  0.52700  Biso   1.000  H
  Li11     1.0000 0.72970  0.28300  0.41830  Biso   1.000  Li
  C51      1.0000 0.61420  0.86930  0.41494  Biso   1.000  C
  H51      1.0000 0.60130  0.81130  0.39250  Biso   1.000  H
  C52      1.0000 0.65260  0.92360  0.49056  Biso   1.000  C
  C53      1.0000 0.63830  0.03650  0.47723  Biso   1.000  C
  C54      1.0000 0.61710  0.06690  0.42852  Biso   1.000  C
  C55      1.0000 0.67540  0.02360  0.55377  Biso   1.000  C
  H52      1.0000 0.68860  0.04460  0.58580  Biso   1.000  H
  N41      1.0000 0.60190  0.97610  0.39799  Biso   1.000  N
  N42      1.0000 0.64190  0.83480  0.45899  Biso   1.000  N
  N43      1.0000 0.67670  0.91550  0.53896  Biso   1.000  N
  N44      1.0000 0.65340  0.09960  0.51890  Biso   1.000  N
  O11      1.0000 0.61200  0.16790  0.41265  Biso   1.000  O
  H53      1.0000 0.66300  0.94900  0.38300  Biso   1.000  H
  H54      1.0000 0.74200  0.87100  0.54800  Biso   1.000  H
  H55      1.0000 0.64600  0.17600  0.52700  Biso   1.000  H
  Li12     1.0000 0.22970  0.78300  0.91830  Biso   1.000  Li
  C56      1.0000 0.11420  0.36930  0.91494  Biso   1.000  C
  H56      1.0000 0.10130  0.31130  0.89250  Biso   1.000  H
  C57      1.0000 0.15260  0.42360  0.99056  Biso   1.000  C
  C58      1.0000 0.13830  0.53650  0.97723  Biso   1.000  C
  C59      1.0000 0.11710  0.56690  0.92852  Biso   1.000  C
  C60      1.0000 0.17540  0.52360  0.05377  Biso   1.000  C
  H57      1.0000 0.18860  0.54460  0.08580  Biso   1.000  H
  N45      1.0000 0.10190  0.47610  0.89799  Biso   1.000  N
  N46      1.0000 0.14190  0.33480  0.95899  Biso   1.000  N
  N47      1.0000 0.17670  0.41550  0.03896  Biso   1.000  N
  N48      1.0000 0.15340  0.59960  0.01890  Biso   1.000  N
  O12      1.0000 0.11200  0.66790  0.91265  Biso   1.000  O
  H58      1.0000 0.16300  0.44900  0.88300  Biso   1.000  H
  H59      1.0000 0.24200  0.37100  0.04800  Biso   1.000  H
  H60      1.0000 0.14600  0.67600  0.02700  Biso   1.000  H
  Li13     1.0000 0.53300  0.52030  0.66830  Biso   1.000  Li
  C61      1.0000 0.11930  0.63580  0.66494  Biso   1.000  C
  H61      1.0000 0.06130  0.64870  0.64250  Biso   1.000  H
  C62      1.0000 0.17360  0.59740  0.74056  Biso   1.000  C
  C63      1.0000 0.28650  0.61170  0.72723  Biso   1.000  C
  C64      1.0000 0.31690  0.63290  0.67852  Biso   1.000  C
  C65      1.0000 0.27360  0.57460  0.80377  Biso   1.000  C
  H62      1.0000 0.29460  0.56140  0.83580  Biso   1.000  H
  N49      1.0000 0.22610  0.64810  0.64799  Biso   1.000  N
  N50      1.0000 0.08480  0.60810  0.70899  Biso   1.000  N
  N51      1.0000 0.16550  0.57330  0.78896  Biso   1.000  N
  N52      1.0000 0.34960  0.59660  0.76890  Biso   1.000  N
  O13      1.0000 0.41790  0.63800  0.66265  Biso   1.000  O
  H63      1.0000 0.19900  0.58700  0.63300  Biso   1.000  H
  H64      1.0000 0.12100  0.50800  0.79800  Biso   1.000  H
  H65      1.0000 0.42600  0.60400  0.77700  Biso   1.000  H
  Li14     1.0000 0.03300  0.02030  0.16830  Biso   1.000  Li
  C66      1.0000 0.61930  0.13580  0.16494  Biso   1.000  C
  H66      1.0000 0.56130  0.14870  0.14250  Biso   1.000  H
  C67      1.0000 0.67360  0.09740  0.24056  Biso   1.000  C
  C68      1.0000 0.78650  0.11170  0.22723  Biso   1.000  C
  C69      1.0000 0.81690  0.13290  0.17852  Biso   1.000  C
  C70      1.0000 0.77360  0.07460  0.30377  Biso   1.000  C
  H67      1.0000 0.79460  0.06140  0.33580  Biso   1.000  H
  N53      1.0000 0.72610  0.14810  0.14799  Biso   1.000  N
  N54      1.0000 0.58480  0.10810  0.20899  Biso   1.000  N
  N55      1.0000 0.66550  0.07330  0.28896  Biso   1.000  N
  N56      1.0000 0.84960  0.09660  0.26890  Biso   1.000  N
  O14      1.0000 0.91790  0.13800  0.16265  Biso   1.000  O
  H68      1.0000 0.69900  0.08700  0.13300  Biso   1.000  H
  H69      1.0000 0.62100  0.00800  0.29800  Biso   1.000  H
  H70      1.0000 0.92600  0.10400  0.27700  Biso   1.000  H
  Li15     1.0000 0.96700  0.47970  0.16830  Biso   1.000  Li
  C71      1.0000 0.38070  0.36420  0.16494  Biso   1.000  C
  H71      1.0000 0.43870  0.35130  0.14250  Biso   1.000  H
  C72      1.0000 0.32640  0.40260  0.24056  Biso   1.000  C
  C73      1.0000 0.21350  0.38830  0.22723  Biso   1.000  C
  C74      1.0000 0.18310  0.36710  0.17852  Biso   1.000  C
  C75      1.0000 0.22640  0.42540  0.30377  Biso   1.000  C
  H72      1.0000 0.20540  0.43860  0.33580  Biso   1.000  H
  N57      1.0000 0.27390  0.35190  0.14799  Biso   1.000  N
  N58      1.0000 0.41520  0.39190  0.20899  Biso   1.000  N
  N59      1.0000 0.33450  0.42670  0.28896  Biso   1.000  N
  N60      1.0000 0.15040  0.40340  0.26890  Biso   1.000  N
  O15      1.0000 0.08210  0.36200  0.16265  Biso   1.000  O
  H73      1.0000 0.30100  0.41300  0.13300  Biso   1.000  H
  H74      1.0000 0.37900  0.49200  0.29800  Biso   1.000  H
  H75      1.0000 0.07400  0.39600  0.27700  Biso   1.000  H
  Li16     1.0000 0.46700  0.97970  0.66830  Biso   1.000  Li
  C76      1.0000 0.88070  0.86420  0.66494  Biso   1.000  C
  H76      1.0000 0.93870  0.85130  0.64250  Biso   1.000  H
  C77      1.0000 0.82640  0.90260  0.74056  Biso   1.000  C
  C78      1.0000 0.71350  0.88830  0.72723  Biso   1.000  C
  C79      1.0000 0.68310  0.86710  0.67852  Biso   1.000  C
  C80      1.0000 0.72640  0.92540  0.80377  Biso   1.000  C
  H77      1.0000 0.70540  0.93860  0.83580  Biso   1.000  H
  N61      1.0000 0.77390  0.85190  0.64799  Biso   1.000  N
  N62      1.0000 0.91520  0.89190  0.70899  Biso   1.000  N
  N63      1.0000 0.83450  0.92670  0.78896  Biso   1.000  N
  N64      1.0000 0.65040  0.90340  0.76890  Biso   1.000  N
  O16      1.0000 0.58210  0.86200  0.66265  Biso   1.000  O
  H78      1.0000 0.80100  0.91300  0.63300  Biso   1.000  H
  H79      1.0000 0.87900  0.99200  0.79800  Biso   1.000  H
  H80      1.0000 0.57400  0.89600  0.77700  Biso   1.000  H
  Li17     1.0000 0.00000  0.25000  0.12500  Biso   1.000  Li
  Li18     1.0000 0.50000  0.75000  0.62500  Biso   1.000  Li
  Li19     1.0000 0.50000  0.25000  0.37500  Biso   1.000  Li
  Li20     1.0000 0.00000  0.75000  0.87500  Biso   1.000  Li
