data_image0
_cell_length_a       9.6456
_cell_length_b       23.1871
_cell_length_c       8.7113
_cell_angle_alpha    90
_cell_angle_beta     90
_cell_angle_gamma    90

_symmetry_space_group_name_H-M    "P 1"
_symmetry_int_tables_number       1

loop_
  _symmetry_equiv_pos_as_xyz
  'x, y, z'

loop_
  _atom_site_label
  _atom_site_occupancy
  _atom_site_fract_x
  _atom_site_fract_y
  _atom_site_fract_z
  _atom_site_thermal_displace_type
  _atom_site_B_iso_or_equiv
  _atom_site_type_symbol
  Zn1      1.0000 0.55845  0.54848  0.22080  Biso   1.000  Zn
  P1       1.0000 0.56874  0.68551  0.25502  Biso   1.000  P
  H1       1.0000 0.45700  0.70920  0.18700  Biso   1.000  H
  P2       1.0000 0.78244  0.49615  0.44393  Biso   1.000  P
  H2       1.0000 0.78500  0.44660  0.53700  Biso   1.000  H
  O1       1.0000 0.68520  0.68717  0.13870  Biso   1.000  O
  O2       1.0000 0.53140  0.62452  0.30000  Biso   1.000  O
  O3       1.0000 0.59330  0.72143  0.39620  Biso   1.000  O
  O4       1.0000 0.63460  0.50073  0.38500  Biso   1.000  O
  O5       1.0000 0.88490  0.48926  0.31490  Biso   1.000  O
  O6       1.0000 0.81820  0.54663  0.54600  Biso   1.000  O
  Zn2      1.0000 0.94155  0.95152  0.22080  Biso   1.000  Zn
  P3       1.0000 0.93126  0.81449  0.25502  Biso   1.000  P
  H3       1.0000 0.04300  0.79080  0.18700  Biso   1.000  H
  P4       1.0000 0.71756  0.00385  0.44393  Biso   1.000  P
  H4       1.0000 0.71500  0.05340  0.53700  Biso   1.000  H
  O7       1.0000 0.81480  0.81283  0.13870  Biso   1.000  O
  O8       1.0000 0.96860  0.87548  0.30000  Biso   1.000  O
  O9       1.0000 0.90670  0.77857  0.39620  Biso   1.000  O
  O10      1.0000 0.86540  0.99927  0.38500  Biso   1.000  O
  O11      1.0000 0.61510  0.01074  0.31490  Biso   1.000  O
  O12      1.0000 0.68180  0.95337  0.54600  Biso   1.000  O
  Zn3      1.0000 0.44155  0.04848  0.27920  Biso   1.000  Zn
  P5       1.0000 0.43126  0.18551  0.24498  Biso   1.000  P
  H5       1.0000 0.54300  0.20920  0.31300  Biso   1.000  H
  P6       1.0000 0.21756  0.99615  0.05607  Biso   1.000  P
  H6       1.0000 0.21500  0.94660  0.96300  Biso   1.000  H
  O13      1.0000 0.31480  0.18717  0.36130  Biso   1.000  O
  O14      1.0000 0.46860  0.12452  0.20000  Biso   1.000  O
  O15      1.0000 0.40670  0.22143  0.10380  Biso   1.000  O
  O16      1.0000 0.36540  0.00073  0.11500  Biso   1.000  O
  O17      1.0000 0.11510  0.98926  0.18510  Biso   1.000  O
  O18      1.0000 0.18180  0.04663  0.95400  Biso   1.000  O
  Zn4      1.0000 0.05845  0.45152  0.27920  Biso   1.000  Zn
  P7       1.0000 0.06874  0.31449  0.24498  Biso   1.000  P
  H7       1.0000 0.95700  0.29080  0.31300  Biso   1.000  H
  P8       1.0000 0.28244  0.50385  0.05607  Biso   1.000  P
  H8       1.0000 0.28500  0.55340  0.96300  Biso   1.000  H
  O19      1.0000 0.18520  0.31283  0.36130  Biso   1.000  O
  O20      1.0000 0.03140  0.37548  0.20000  Biso   1.000  O
  O21      1.0000 0.09330  0.27857  0.10380  Biso   1.000  O
  O22      1.0000 0.13460  0.49927  0.11500  Biso   1.000  O
  O23      1.0000 0.38490  0.51074  0.18510  Biso   1.000  O
  O24      1.0000 0.31820  0.45337  0.95400  Biso   1.000  O
  Zn5      1.0000 0.44155  0.45152  0.77920  Biso   1.000  Zn
  P9       1.0000 0.43126  0.31449  0.74498  Biso   1.000  P
  H9       1.0000 0.54300  0.29080  0.81300  Biso   1.000  H
  P10      1.0000 0.21756  0.50385  0.55607  Biso   1.000  P
  H10      1.0000 0.21500  0.55340  0.46300  Biso   1.000  H
  O25      1.0000 0.31480  0.31283  0.86130  Biso   1.000  O
  O26      1.0000 0.46860  0.37548  0.70000  Biso   1.000  O
  O27      1.0000 0.40670  0.27857  0.60380  Biso   1.000  O
  O28      1.0000 0.36540  0.49927  0.61500  Biso   1.000  O
  O29      1.0000 0.11510  0.51074  0.68510  Biso   1.000  O
  O30      1.0000 0.18180  0.45337  0.45400  Biso   1.000  O
  Zn6      1.0000 0.05845  0.04848  0.77920  Biso   1.000  Zn
  P11      1.0000 0.06874  0.18551  0.74498  Biso   1.000  P
  H11      1.0000 0.95700  0.20920  0.81300  Biso   1.000  H
  P12      1.0000 0.28244  0.99615  0.55607  Biso   1.000  P
  H12      1.0000 0.28500  0.94660  0.46300  Biso   1.000  H
  O31      1.0000 0.18520  0.18717  0.86130  Biso   1.000  O
  O32      1.0000 0.03140  0.12452  0.70000  Biso   1.000  O
  O33      1.0000 0.09330  0.22143  0.60380  Biso   1.000  O
  O34      1.0000 0.13460  0.00073  0.61500  Biso   1.000  O
  O35      1.0000 0.38490  0.98926  0.68510  Biso   1.000  O
  O36      1.0000 0.31820  0.04663  0.45400  Biso   1.000  O
  Zn7      1.0000 0.55845  0.95152  0.72080  Biso   1.000  Zn
  P13      1.0000 0.56874  0.81449  0.75502  Biso   1.000  P
  H13      1.0000 0.45700  0.79080  0.68700  Biso   1.000  H
  P14      1.0000 0.78244  0.00385  0.94393  Biso   1.000  P
  H14      1.0000 0.78500  0.05340  0.03700  Biso   1.000  H
  O37      1.0000 0.68520  0.81283  0.63870  Biso   1.000  O
  O38      1.0000 0.53140  0.87548  0.80000  Biso   1.000  O
  O39      1.0000 0.59330  0.77857  0.89620  Biso   1.000  O
  O40      1.0000 0.63460  0.99927  0.88500  Biso   1.000  O
  O41      1.0000 0.88490  0.01074  0.81490  Biso   1.000  O
  O42      1.0000 0.81820  0.95337  0.04600  Biso   1.000  O
  Zn8      1.0000 0.94155  0.54848  0.72080  Biso   1.000  Zn
  P15      1.0000 0.93126  0.68551  0.75502  Biso   1.000  P
  H15      1.0000 0.04300  0.70920  0.68700  Biso   1.000  H
  P16      1.0000 0.71756  0.49615  0.94393  Biso   1.000  P
  H16      1.0000 0.71500  0.44660  0.03700  Biso   1.000  H
  O43      1.0000 0.81480  0.68717  0.63870  Biso   1.000  O
  O44      1.0000 0.96860  0.62452  0.80000  Biso   1.000  O
  O45      1.0000 0.90670  0.72143  0.89620  Biso   1.000  O
  O46      1.0000 0.86540  0.50073  0.88500  Biso   1.000  O
  O47      1.0000 0.61510  0.48926  0.81490  Biso   1.000  O
  O48      1.0000 0.68180  0.54663  0.04600  Biso   1.000  O
  Zn9      1.0000 0.75000  0.75000  0.50939  Biso   1.000  Zn
  Zn10     1.0000 0.25000  0.25000  0.99061  Biso   1.000  Zn
  Zn11     1.0000 0.25000  0.25000  0.49061  Biso   1.000  Zn
  Zn12     1.0000 0.75000  0.75000  0.00939  Biso   1.000  Zn
