data_image0
_cell_length_a       33.463
_cell_length_b       18.874
_cell_length_c       20.335
_cell_angle_alpha    90
_cell_angle_beta     92.333
_cell_angle_gamma    90

_symmetry_space_group_name_H-M    "P 1"
_symmetry_int_tables_number       1

loop_
  _symmetry_equiv_pos_as_xyz
  'x, y, z'

loop_
  _atom_site_label
  _atom_site_occupancy
  _atom_site_fract_x
  _atom_site_fract_y
  _atom_site_fract_z
  _atom_site_thermal_displace_type
  _atom_site_B_iso_or_equiv
  _atom_site_type_symbol
  Ag1      1.0000 0.07408  0.87922  0.22528  Biso   1.000  Ag
  Ag2      1.0000 0.59580  0.63310  0.75540  Biso   1.000  Ag
  Ag3      1.0000 0.81958  0.86509  0.48227  Biso   1.000  Ag
  Ag4      1.0000 0.66292  0.17132  0.53828  Biso   1.000  Ag
  C1       1.0000 0.86540  0.16720  0.41200  Biso   1.000  C
  C2       1.0000 0.89680  0.18540  0.45350  Biso   1.000  C
  H1       1.0000 0.91960  0.15590  0.46060  Biso   1.000  H
  C3       1.0000 0.89280  0.24980  0.48430  Biso   1.000  C
  C4       1.0000 0.86160  0.29590  0.47350  Biso   1.000  C
  H2       1.0000 0.86070  0.34100  0.49410  Biso   1.000  H
  C5       1.0000 0.83210  0.27260  0.43120  Biso   1.000  C
  C6       1.0000 0.83330  0.20940  0.39700  Biso   1.000  C
  H3       1.0000 0.81310  0.19630  0.36510  Biso   1.000  H
  C7       1.0000 0.89750  0.07810  0.34740  Biso   1.000  C
  C8       1.0000 0.92360  0.11960  0.31280  Biso   1.000  C
  C9       1.0000 0.95650  0.08990  0.28260  Biso   1.000  C
  H4       1.0000 0.97460  0.11870  0.25950  Biso   1.000  H
  C10      1.0000 0.96220  0.01570  0.28750  Biso   1.000  C
  C11      1.0000 0.93530  0.97340  0.31770  Biso   1.000  C
  H5       1.0000 0.93870  0.92340  0.31850  Biso   1.000  H
  C12      1.0000 0.90250  0.00470  0.34760  Biso   1.000  C
  C13      1.0000 0.91920  0.19470  0.29920  Biso   1.000  C
  C14      1.0000 0.99740  0.98580  0.26040  Biso   1.000  C
  C15      1.0000 0.87420  0.96240  0.37880  Biso   1.000  C
  C16      1.0000 0.96130  0.25510  0.52210  Biso   1.000  C
  C17      1.0000 0.98220  0.28420  0.46920  Biso   1.000  C
  C18      1.0000 0.02190  0.26700  0.46190  Biso   1.000  C
  H6       1.0000 0.03560  0.28480  0.42530  Biso   1.000  H
  C19      1.0000 0.04170  0.22400  0.50750  Biso   1.000  C
  C20      1.0000 0.02150  0.19740  0.56180  Biso   1.000  C
  H7       1.0000 0.03540  0.16890  0.59370  Biso   1.000  H
  C21      1.0000 0.98190  0.21260  0.56890  Biso   1.000  C
  C22      1.0000 0.96260  0.33670  0.42640  Biso   1.000  C
  C23      1.0000 0.08320  0.20790  0.49930  Biso   1.000  C
  C24      1.0000 0.95990  0.18490  0.62350  Biso   1.000  C
  C25      1.0000 0.77630  0.31290  0.36580  Biso   1.000  C
  C26      1.0000 0.78940  0.33910  0.30550  Biso   1.000  C
  C27      1.0000 0.76560  0.33540  0.24970  Biso   1.000  C
  H8       1.0000 0.77470  0.35410  0.20960  Biso   1.000  H
  C28      1.0000 0.72820  0.30430  0.25180  Biso   1.000  C
  C29      1.0000 0.71380  0.27860  0.30920  Biso   1.000  C
  H9       1.0000 0.68780  0.25840  0.30980  Biso   1.000  H
  C30      1.0000 0.73780  0.28250  0.36680  Biso   1.000  C
  C31      1.0000 0.82850  0.37230  0.30340  Biso   1.000  C
  C32      1.0000 0.70370  0.29970  0.19130  Biso   1.000  C
  C33      1.0000 0.72360  0.25430  0.42780  Biso   1.000  C
  C34      1.0000 0.68150  0.76070  0.61320  Biso   1.000  C
  C35      1.0000 0.67250  0.81730  0.64950  Biso   1.000  C
  H10      1.0000 0.68970  0.83330  0.68480  Biso   1.000  H
  C36      1.0000 0.63720  0.85110  0.63290  Biso   1.000  C
  C37      1.0000 0.60990  0.82650  0.58740  Biso   1.000  C
  H11      1.0000 0.58460  0.84850  0.57990  Biso   1.000  H
  C38      1.0000 0.62110  0.76870  0.55320  Biso   1.000  C
  C39      1.0000 0.65650  0.73270  0.56490  Biso   1.000  C
  H12      1.0000 0.66310  0.69130  0.54110  Biso   1.000  H
  C40      1.0000 0.72640  0.66280  0.60540  Biso   1.000  C
  C41      1.0000 0.75450  0.65630  0.55580  Biso   1.000  C
  C42      1.0000 0.76410  0.58780  0.53290  Biso   1.000  C
  H13      1.0000 0.78320  0.58230  0.49990  Biso   1.000  H
  C43      1.0000 0.74580  0.52900  0.55870  Biso   1.000  C
  C44      1.0000 0.71890  0.53760  0.60980  Biso   1.000  C
  H14      1.0000 0.70730  0.49690  0.62900  Biso   1.000  H
  C45      1.0000 0.70920  0.60240  0.63170  Biso   1.000  C
  C46      1.0000 0.77180  0.71770  0.52960  Biso   1.000  C
  C47      1.0000 0.75250  0.45980  0.53350  Biso   1.000  C
  C48      1.0000 0.68160  0.60850  0.68340  Biso   1.000  C
  C49      1.0000 0.59140  0.93100  0.68160  Biso   1.000  C
  C50      1.0000 0.58130  0.99950  0.66510  Biso   1.000  C
  C51      1.0000 0.54380  0.02700  0.68150  Biso   1.000  C
  H15      1.0000 0.53740  0.07510  0.67200  Biso   1.000  H
  C52      1.0000 0.51650  0.98390  0.71140  Biso   1.000  C
  C53      1.0000 0.52610  0.91420  0.72650  Biso   1.000  C
  H16      1.0000 0.50700  0.88430  0.74580  Biso   1.000  H
  C54      1.0000 0.56250  0.88900  0.71390  Biso   1.000  C
  C55      1.0000 0.60940  0.04290  0.63150  Biso   1.000  C
  C56      1.0000 0.47890  0.01320  0.72740  Biso   1.000  C
  C57      1.0000 0.57300  0.81590  0.73440  Biso   1.000  C
  C58      1.0000 0.55580  0.74930  0.50270  Biso   1.000  C
  C59      1.0000 0.53340  0.71660  0.55070  Biso   1.000  C
  C60      1.0000 0.49250  0.72280  0.54820  Biso   1.000  C
  H17      1.0000 0.47690  0.69950  0.57970  Biso   1.000  H
  C61      1.0000 0.47400  0.76450  0.49790  Biso   1.000  C
  C62      1.0000 0.49620  0.79180  0.44780  Biso   1.000  C
  H18      1.0000 0.48340  0.81450  0.41100  Biso   1.000  H
  C63      1.0000 0.53660  0.78540  0.45250  Biso   1.000  C
  C64      1.0000 0.55190  0.66730  0.59850  Biso   1.000  C
  C65      1.0000 0.43160  0.77210  0.49470  Biso   1.000  C
  C66      1.0000 0.56100  0.81560  0.40230  Biso   1.000  C
  N1       1.0000 0.91490  0.25420  0.29380  Biso   1.000  N
  N2       1.0000 0.02540  0.96150  0.23930  Biso   1.000  N
  N3       1.0000 0.85120  0.92780  0.40670  Biso   1.000  N
  N4       1.0000 0.94650  0.37460  0.39370  Biso   1.000  N
  N5       1.0000 0.11580  0.19750  0.49290  Biso   1.000  N
  N6       1.0000 0.94340  0.16360  0.66680  Biso   1.000  N
  N7       1.0000 0.85930  0.39480  0.29930  Biso   1.000  N
  N8       1.0000 0.68740  0.29870  0.14200  Biso   1.000  N
  N9       1.0000 0.71020  0.23040  0.47250  Biso   1.000  N
  N10      1.0000 0.78600  0.76560  0.50670  Biso   1.000  N
  N11      1.0000 0.75430  0.40550  0.50890  Biso   1.000  N
  N12      1.0000 0.65830  0.61750  0.72150  Biso   1.000  N
  N13      1.0000 0.63160  0.07250  0.60310  Biso   1.000  N
  N14      1.0000 0.44900  0.03850  0.73940  Biso   1.000  N
  N15      1.0000 0.58290  0.75960  0.74110  Biso   1.000  N
  N16      1.0000 0.56910  0.63730  0.63780  Biso   1.000  N
  N17      1.0000 0.39790  0.77880  0.49370  Biso   1.000  N
  N18      1.0000 0.58130  0.83820  0.36380  Biso   1.000  N
  O1       1.0000 0.86560  0.10170  0.37810  Biso   1.000  O
  O2       1.0000 0.92250  0.27200  0.53190  Biso   1.000  O
  O3       1.0000 0.79900  0.31880  0.42170  Biso   1.000  O
  O4       1.0000 0.71910  0.73000  0.62910  Biso   1.000  O
  O5       1.0000 0.62940  0.91050  0.67150  Biso   1.000  O
  O6       1.0000 0.59650  0.73880  0.50120  Biso   1.000  O
  Ag5      1.0000 0.92592  0.37922  0.27472  Biso   1.000  Ag
  Ag6      1.0000 0.40420  0.13310  0.74460  Biso   1.000  Ag
  Ag7      1.0000 0.18042  0.36509  0.01773  Biso   1.000  Ag
  Ag8      1.0000 0.33708  0.67132  0.96172  Biso   1.000  Ag
  C67      1.0000 0.13460  0.66720  0.08800  Biso   1.000  C
  C68      1.0000 0.10320  0.68540  0.04650  Biso   1.000  C
  H19      1.0000 0.08040  0.65590  0.03940  Biso   1.000  H
  C69      1.0000 0.10720  0.74980  0.01570  Biso   1.000  C
  C70      1.0000 0.13840  0.79590  0.02650  Biso   1.000  C
  H20      1.0000 0.13930  0.84100  0.00590  Biso   1.000  H
  C71      1.0000 0.16790  0.77260  0.06880  Biso   1.000  C
  C72      1.0000 0.16670  0.70940  0.10300  Biso   1.000  C
  H21      1.0000 0.18690  0.69630  0.13490  Biso   1.000  H
  C73      1.0000 0.10250  0.57810  0.15260  Biso   1.000  C
  C74      1.0000 0.07640  0.61960  0.18720  Biso   1.000  C
  C75      1.0000 0.04350  0.58990  0.21740  Biso   1.000  C
  H22      1.0000 0.02540  0.61870  0.24050  Biso   1.000  H
  C76      1.0000 0.03780  0.51570  0.21250  Biso   1.000  C
  C77      1.0000 0.06470  0.47340  0.18230  Biso   1.000  C
  H23      1.0000 0.06130  0.42340  0.18150  Biso   1.000  H
  C78      1.0000 0.09750  0.50470  0.15240  Biso   1.000  C
  C79      1.0000 0.08080  0.69470  0.20080  Biso   1.000  C
  C80      1.0000 0.00260  0.48580  0.23960  Biso   1.000  C
  C81      1.0000 0.12580  0.46240  0.12120  Biso   1.000  C
  C82      1.0000 0.03870  0.75510  0.97790  Biso   1.000  C
  C83      1.0000 0.01780  0.78420  0.03080  Biso   1.000  C
  C84      1.0000 0.97810  0.76700  0.03810  Biso   1.000  C
  H24      1.0000 0.96440  0.78480  0.07470  Biso   1.000  H
  C85      1.0000 0.95830  0.72400  0.99250  Biso   1.000  C
  C86      1.0000 0.97850  0.69740  0.93820  Biso   1.000  C
  H25      1.0000 0.96460  0.66890  0.90630  Biso   1.000  H
  C87      1.0000 0.01810  0.71260  0.93110  Biso   1.000  C
  C88      1.0000 0.03740  0.83670  0.07360  Biso   1.000  C
  C89      1.0000 0.91680  0.70790  0.00070  Biso   1.000  C
  C90      1.0000 0.04010  0.68490  0.87650  Biso   1.000  C
  C91      1.0000 0.22370  0.81290  0.13420  Biso   1.000  C
  C92      1.0000 0.21060  0.83910  0.19450  Biso   1.000  C
  C93      1.0000 0.23440  0.83540  0.25030  Biso   1.000  C
  H26      1.0000 0.22530  0.85410  0.29040  Biso   1.000  H
  C94      1.0000 0.27180  0.80430  0.24820  Biso   1.000  C
  C95      1.0000 0.28620  0.77860  0.19080  Biso   1.000  C
  H27      1.0000 0.31220  0.75840  0.19020  Biso   1.000  H
  C96      1.0000 0.26220  0.78250  0.13320  Biso   1.000  C
  C97      1.0000 0.17150  0.87230  0.19660  Biso   1.000  C
  C98      1.0000 0.29630  0.79970  0.30870  Biso   1.000  C
  C99      1.0000 0.27640  0.75430  0.07220  Biso   1.000  C
  C100     1.0000 0.31850  0.26070  0.88680  Biso   1.000  C
  C101     1.0000 0.32750  0.31730  0.85050  Biso   1.000  C
  H28      1.0000 0.31030  0.33330  0.81520  Biso   1.000  H
  C102     1.0000 0.36280  0.35110  0.86710  Biso   1.000  C
  C103     1.0000 0.39010  0.32650  0.91260  Biso   1.000  C
  H29      1.0000 0.41540  0.34850  0.92010  Biso   1.000  H
  C104     1.0000 0.37890  0.26870  0.94680  Biso   1.000  C
  C105     1.0000 0.34350  0.23270  0.93510  Biso   1.000  C
  H30      1.0000 0.33690  0.19130  0.95890  Biso   1.000  H
  C106     1.0000 0.27360  0.16280  0.89460  Biso   1.000  C
  C107     1.0000 0.24550  0.15630  0.94420  Biso   1.000  C
  C108     1.0000 0.23590  0.08780  0.96710  Biso   1.000  C
  H31      1.0000 0.21680  0.08230  0.00010  Biso   1.000  H
  C109     1.0000 0.25420  0.02900  0.94130  Biso   1.000  C
  C110     1.0000 0.28110  0.03760  0.89020  Biso   1.000  C
  H32      1.0000 0.29270  0.99690  0.87100  Biso   1.000  H
  C111     1.0000 0.29080  0.10240  0.86830  Biso   1.000  C
  C112     1.0000 0.22820  0.21770  0.97040  Biso   1.000  C
  C113     1.0000 0.24750  0.95980  0.96650  Biso   1.000  C
  C114     1.0000 0.31840  0.10850  0.81660  Biso   1.000  C
  C115     1.0000 0.40860  0.43100  0.81840  Biso   1.000  C
  C116     1.0000 0.41870  0.49950  0.83490  Biso   1.000  C
  C117     1.0000 0.45620  0.52700  0.81850  Biso   1.000  C
  H33      1.0000 0.46260  0.57510  0.82800  Biso   1.000  H
  C118     1.0000 0.48350  0.48390  0.78860  Biso   1.000  C
  C119     1.0000 0.47390  0.41420  0.77350  Biso   1.000  C
  H34      1.0000 0.49300  0.38430  0.75420  Biso   1.000  H
  C120     1.0000 0.43750  0.38900  0.78610  Biso   1.000  C
  C121     1.0000 0.39060  0.54290  0.86850  Biso   1.000  C
  C122     1.0000 0.52110  0.51320  0.77260  Biso   1.000  C
  C123     1.0000 0.42700  0.31590  0.76560  Biso   1.000  C
  C124     1.0000 0.44420  0.24930  0.99730  Biso   1.000  C
  C125     1.0000 0.46660  0.21660  0.94930  Biso   1.000  C
  C126     1.0000 0.50750  0.22280  0.95180  Biso   1.000  C
  H35      1.0000 0.52310  0.19950  0.92030  Biso   1.000  H
  C127     1.0000 0.52600  0.26450  0.00210  Biso   1.000  C
  C128     1.0000 0.50380  0.29180  0.05220  Biso   1.000  C
  H36      1.0000 0.51660  0.31450  0.08900  Biso   1.000  H
  C129     1.0000 0.46340  0.28540  0.04750  Biso   1.000  C
  C130     1.0000 0.44810  0.16730  0.90150  Biso   1.000  C
  C131     1.0000 0.56840  0.27210  0.00530  Biso   1.000  C
  C132     1.0000 0.43900  0.31560  0.09770  Biso   1.000  C
  N19      1.0000 0.08510  0.75420  0.20620  Biso   1.000  N
  N20      1.0000 0.97460  0.46150  0.26070  Biso   1.000  N
  N21      1.0000 0.14880  0.42780  0.09330  Biso   1.000  N
  N22      1.0000 0.05350  0.87460  0.10630  Biso   1.000  N
  N23      1.0000 0.88420  0.69750  0.00710  Biso   1.000  N
  N24      1.0000 0.05660  0.66360  0.83320  Biso   1.000  N
  N25      1.0000 0.14070  0.89480  0.20070  Biso   1.000  N
  N26      1.0000 0.31260  0.79870  0.35800  Biso   1.000  N
  N27      1.0000 0.28980  0.73040  0.02750  Biso   1.000  N
  N28      1.0000 0.21400  0.26560  0.99330  Biso   1.000  N
  N29      1.0000 0.24570  0.90550  0.99110  Biso   1.000  N
  N30      1.0000 0.34170  0.11750  0.77850  Biso   1.000  N
  N31      1.0000 0.36840  0.57250  0.89690  Biso   1.000  N
  N32      1.0000 0.55100  0.53850  0.76060  Biso   1.000  N
  N33      1.0000 0.41710  0.25960  0.75890  Biso   1.000  N
  N34      1.0000 0.43090  0.13730  0.86220  Biso   1.000  N
  N35      1.0000 0.60210  0.27880  0.00630  Biso   1.000  N
  N36      1.0000 0.41870  0.33820  0.13620  Biso   1.000  N
  O7       1.0000 0.13440  0.60170  0.12190  Biso   1.000  O
  O8       1.0000 0.07750  0.77200  0.96810  Biso   1.000  O
  O9       1.0000 0.20100  0.81880  0.07830  Biso   1.000  O
  O10      1.0000 0.28090  0.23000  0.87090  Biso   1.000  O
  O11      1.0000 0.37060  0.41050  0.82850  Biso   1.000  O
  O12      1.0000 0.40350  0.23880  0.99880  Biso   1.000  O
  Ag9      1.0000 0.92592  0.12078  0.77472  Biso   1.000  Ag
  Ag10     1.0000 0.40420  0.36690  0.24460  Biso   1.000  Ag
  Ag11     1.0000 0.18042  0.13491  0.51773  Biso   1.000  Ag
  Ag12     1.0000 0.33708  0.82868  0.46172  Biso   1.000  Ag
  C133     1.0000 0.13460  0.83280  0.58800  Biso   1.000  C
  C134     1.0000 0.10320  0.81460  0.54650  Biso   1.000  C
  H37      1.0000 0.08040  0.84410  0.53940  Biso   1.000  H
  C135     1.0000 0.10720  0.75020  0.51570  Biso   1.000  C
  C136     1.0000 0.13840  0.70410  0.52650  Biso   1.000  C
  H38      1.0000 0.13930  0.65900  0.50590  Biso   1.000  H
  C137     1.0000 0.16790  0.72740  0.56880  Biso   1.000  C
  C138     1.0000 0.16670  0.79060  0.60300  Biso   1.000  C
  H39      1.0000 0.18690  0.80370  0.63490  Biso   1.000  H
  C139     1.0000 0.10250  0.92190  0.65260  Biso   1.000  C
  C140     1.0000 0.07640  0.88040  0.68720  Biso   1.000  C
  C141     1.0000 0.04350  0.91010  0.71740  Biso   1.000  C
  H40      1.0000 0.02540  0.88130  0.74050  Biso   1.000  H
  C142     1.0000 0.03780  0.98430  0.71250  Biso   1.000  C
  C143     1.0000 0.06470  0.02660  0.68230  Biso   1.000  C
  H41      1.0000 0.06130  0.07660  0.68150  Biso   1.000  H
  C144     1.0000 0.09750  0.99530  0.65240  Biso   1.000  C
  C145     1.0000 0.08080  0.80530  0.70080  Biso   1.000  C
  C146     1.0000 0.00260  0.01420  0.73960  Biso   1.000  C
  C147     1.0000 0.12580  0.03760  0.62120  Biso   1.000  C
  C148     1.0000 0.03870  0.74490  0.47790  Biso   1.000  C
  C149     1.0000 0.01780  0.71580  0.53080  Biso   1.000  C
  C150     1.0000 0.97810  0.73300  0.53810  Biso   1.000  C
  H42      1.0000 0.96440  0.71520  0.57470  Biso   1.000  H
  C151     1.0000 0.95830  0.77600  0.49250  Biso   1.000  C
  C152     1.0000 0.97850  0.80260  0.43820  Biso   1.000  C
  H43      1.0000 0.96460  0.83110  0.40630  Biso   1.000  H
  C153     1.0000 0.01810  0.78740  0.43110  Biso   1.000  C
  C154     1.0000 0.03740  0.66330  0.57360  Biso   1.000  C
  C155     1.0000 0.91680  0.79210  0.50070  Biso   1.000  C
  C156     1.0000 0.04010  0.81510  0.37650  Biso   1.000  C
  C157     1.0000 0.22370  0.68710  0.63420  Biso   1.000  C
  C158     1.0000 0.21060  0.66090  0.69450  Biso   1.000  C
  C159     1.0000 0.23440  0.66460  0.75030  Biso   1.000  C
  H44      1.0000 0.22530  0.64590  0.79040  Biso   1.000  H
  C160     1.0000 0.27180  0.69570  0.74820  Biso   1.000  C
  C161     1.0000 0.28620  0.72140  0.69080  Biso   1.000  C
  H45      1.0000 0.31220  0.74160  0.69020  Biso   1.000  H
  C162     1.0000 0.26220  0.71750  0.63320  Biso   1.000  C
  C163     1.0000 0.17150  0.62770  0.69660  Biso   1.000  C
  C164     1.0000 0.29630  0.70030  0.80870  Biso   1.000  C
  C165     1.0000 0.27640  0.74570  0.57220  Biso   1.000  C
  C166     1.0000 0.31850  0.23930  0.38680  Biso   1.000  C
  C167     1.0000 0.32750  0.18270  0.35050  Biso   1.000  C
  H46      1.0000 0.31030  0.16670  0.31520  Biso   1.000  H
  C168     1.0000 0.36280  0.14890  0.36710  Biso   1.000  C
  C169     1.0000 0.39010  0.17350  0.41260  Biso   1.000  C
  H47      1.0000 0.41540  0.15150  0.42010  Biso   1.000  H
  C170     1.0000 0.37890  0.23130  0.44680  Biso   1.000  C
  C171     1.0000 0.34350  0.26730  0.43510  Biso   1.000  C
  H48      1.0000 0.33690  0.30870  0.45890  Biso   1.000  H
  C172     1.0000 0.27360  0.33720  0.39460  Biso   1.000  C
  C173     1.0000 0.24550  0.34370  0.44420  Biso   1.000  C
  C174     1.0000 0.23590  0.41220  0.46710  Biso   1.000  C
  H49      1.0000 0.21680  0.41770  0.50010  Biso   1.000  H
  C175     1.0000 0.25420  0.47100  0.44130  Biso   1.000  C
  C176     1.0000 0.28110  0.46240  0.39020  Biso   1.000  C
  H50      1.0000 0.29270  0.50310  0.37100  Biso   1.000  H
  C177     1.0000 0.29080  0.39760  0.36830  Biso   1.000  C
  C178     1.0000 0.22820  0.28230  0.47040  Biso   1.000  C
  C179     1.0000 0.24750  0.54020  0.46650  Biso   1.000  C
  C180     1.0000 0.31840  0.39150  0.31660  Biso   1.000  C
  C181     1.0000 0.40860  0.06900  0.31840  Biso   1.000  C
  C182     1.0000 0.41870  0.00050  0.33490  Biso   1.000  C
  C183     1.0000 0.45620  0.97300  0.31850  Biso   1.000  C
  H51      1.0000 0.46260  0.92490  0.32800  Biso   1.000  H
  C184     1.0000 0.48350  0.01610  0.28860  Biso   1.000  C
  C185     1.0000 0.47390  0.08580  0.27350  Biso   1.000  C
  H52      1.0000 0.49300  0.11570  0.25420  Biso   1.000  H
  C186     1.0000 0.43750  0.11100  0.28610  Biso   1.000  C
  C187     1.0000 0.39060  0.95710  0.36850  Biso   1.000  C
  C188     1.0000 0.52110  0.98680  0.27260  Biso   1.000  C
  C189     1.0000 0.42700  0.18410  0.26560  Biso   1.000  C
  C190     1.0000 0.44420  0.25070  0.49730  Biso   1.000  C
  C191     1.0000 0.46660  0.28340  0.44930  Biso   1.000  C
  C192     1.0000 0.50750  0.27720  0.45180  Biso   1.000  C
  H53      1.0000 0.52310  0.30050  0.42030  Biso   1.000  H
  C193     1.0000 0.52600  0.23550  0.50210  Biso   1.000  C
  C194     1.0000 0.50380  0.20820  0.55220  Biso   1.000  C
  H54      1.0000 0.51660  0.18550  0.58900  Biso   1.000  H
  C195     1.0000 0.46340  0.21460  0.54750  Biso   1.000  C
  C196     1.0000 0.44810  0.33270  0.40150  Biso   1.000  C
  C197     1.0000 0.56840  0.22790  0.50530  Biso   1.000  C
  C198     1.0000 0.43900  0.18440  0.59770  Biso   1.000  C
  N37      1.0000 0.08510  0.74580  0.70620  Biso   1.000  N
  N38      1.0000 0.97460  0.03850  0.76070  Biso   1.000  N
  N39      1.0000 0.14880  0.07220  0.59330  Biso   1.000  N
  N40      1.0000 0.05350  0.62540  0.60630  Biso   1.000  N
  N41      1.0000 0.88420  0.80250  0.50710  Biso   1.000  N
  N42      1.0000 0.05660  0.83640  0.33320  Biso   1.000  N
  N43      1.0000 0.14070  0.60520  0.70070  Biso   1.000  N
  N44      1.0000 0.31260  0.70130  0.85800  Biso   1.000  N
  N45      1.0000 0.28980  0.76960  0.52750  Biso   1.000  N
  N46      1.0000 0.21400  0.23440  0.49330  Biso   1.000  N
  N47      1.0000 0.24570  0.59450  0.49110  Biso   1.000  N
  N48      1.0000 0.34170  0.38250  0.27850  Biso   1.000  N
  N49      1.0000 0.36840  0.92750  0.39690  Biso   1.000  N
  N50      1.0000 0.55100  0.96150  0.26060  Biso   1.000  N
  N51      1.0000 0.41710  0.24040  0.25890  Biso   1.000  N
  N52      1.0000 0.43090  0.36270  0.36220  Biso   1.000  N
  N53      1.0000 0.60210  0.22120  0.50630  Biso   1.000  N
  N54      1.0000 0.41870  0.16180  0.63620  Biso   1.000  N
  O13      1.0000 0.13440  0.89830  0.62190  Biso   1.000  O
  O14      1.0000 0.07750  0.72800  0.46810  Biso   1.000  O
  O15      1.0000 0.20100  0.68120  0.57830  Biso   1.000  O
  O16      1.0000 0.28090  0.27000  0.37090  Biso   1.000  O
  O17      1.0000 0.37060  0.08950  0.32850  Biso   1.000  O
  O18      1.0000 0.40350  0.26120  0.49880  Biso   1.000  O
  Ag13     1.0000 0.07408  0.62078  0.72528  Biso   1.000  Ag
  Ag14     1.0000 0.59580  0.86690  0.25540  Biso   1.000  Ag
  Ag15     1.0000 0.81958  0.63491  0.98227  Biso   1.000  Ag
  Ag16     1.0000 0.66292  0.32868  0.03828  Biso   1.000  Ag
  C199     1.0000 0.86540  0.33280  0.91200  Biso   1.000  C
  C200     1.0000 0.89680  0.31460  0.95350  Biso   1.000  C
  H55      1.0000 0.91960  0.34410  0.96060  Biso   1.000  H
  C201     1.0000 0.89280  0.25020  0.98430  Biso   1.000  C
  C202     1.0000 0.86160  0.20410  0.97350  Biso   1.000  C
  H56      1.0000 0.86070  0.15900  0.99410  Biso   1.000  H
  C203     1.0000 0.83210  0.22740  0.93120  Biso   1.000  C
  C204     1.0000 0.83330  0.29060  0.89700  Biso   1.000  C
  H57      1.0000 0.81310  0.30370  0.86510  Biso   1.000  H
  C205     1.0000 0.89750  0.42190  0.84740  Biso   1.000  C
  C206     1.0000 0.92360  0.38040  0.81280  Biso   1.000  C
  C207     1.0000 0.95650  0.41010  0.78260  Biso   1.000  C
  H58      1.0000 0.97460  0.38130  0.75950  Biso   1.000  H
  C208     1.0000 0.96220  0.48430  0.78750  Biso   1.000  C
  C209     1.0000 0.93530  0.52660  0.81770  Biso   1.000  C
  H59      1.0000 0.93870  0.57660  0.81850  Biso   1.000  H
  C210     1.0000 0.90250  0.49530  0.84760  Biso   1.000  C
  C211     1.0000 0.91920  0.30530  0.79920  Biso   1.000  C
  C212     1.0000 0.99740  0.51420  0.76040  Biso   1.000  C
  C213     1.0000 0.87420  0.53760  0.87880  Biso   1.000  C
  C214     1.0000 0.96130  0.24490  0.02210  Biso   1.000  C
  C215     1.0000 0.98220  0.21580  0.96920  Biso   1.000  C
  C216     1.0000 0.02190  0.23300  0.96190  Biso   1.000  C
  H60      1.0000 0.03560  0.21520  0.92530  Biso   1.000  H
  C217     1.0000 0.04170  0.27600  0.00750  Biso   1.000  C
  C218     1.0000 0.02150  0.30260  0.06180  Biso   1.000  C
  H61      1.0000 0.03540  0.33110  0.09370  Biso   1.000  H
  C219     1.0000 0.98190  0.28740  0.06890  Biso   1.000  C
  C220     1.0000 0.96260  0.16330  0.92640  Biso   1.000  C
  C221     1.0000 0.08320  0.29210  0.99930  Biso   1.000  C
  C222     1.0000 0.95990  0.31510  0.12350  Biso   1.000  C
  C223     1.0000 0.77630  0.18710  0.86580  Biso   1.000  C
  C224     1.0000 0.78940  0.16090  0.80550  Biso   1.000  C
  C225     1.0000 0.76560  0.16460  0.74970  Biso   1.000  C
  H62      1.0000 0.77470  0.14590  0.70960  Biso   1.000  H
  C226     1.0000 0.72820  0.19570  0.75180  Biso   1.000  C
  C227     1.0000 0.71380  0.22140  0.80920  Biso   1.000  C
  H63      1.0000 0.68780  0.24160  0.80980  Biso   1.000  H
  C228     1.0000 0.73780  0.21750  0.86680  Biso   1.000  C
  C229     1.0000 0.82850  0.12770  0.80340  Biso   1.000  C
  C230     1.0000 0.70370  0.20030  0.69130  Biso   1.000  C
  C231     1.0000 0.72360  0.24570  0.92780  Biso   1.000  C
  C232     1.0000 0.68150  0.73930  0.11320  Biso   1.000  C
  C233     1.0000 0.67250  0.68270  0.14950  Biso   1.000  C
  H64      1.0000 0.68970  0.66670  0.18480  Biso   1.000  H
  C234     1.0000 0.63720  0.64890  0.13290  Biso   1.000  C
  C235     1.0000 0.60990  0.67350  0.08740  Biso   1.000  C
  H65      1.0000 0.58460  0.65150  0.07990  Biso   1.000  H
  C236     1.0000 0.62110  0.73130  0.05320  Biso   1.000  C
  C237     1.0000 0.65650  0.76730  0.06490  Biso   1.000  C
  H66      1.0000 0.66310  0.80870  0.04110  Biso   1.000  H
  C238     1.0000 0.72640  0.83720  0.10540  Biso   1.000  C
  C239     1.0000 0.75450  0.84370  0.05580  Biso   1.000  C
  C240     1.0000 0.76410  0.91220  0.03290  Biso   1.000  C
  H67      1.0000 0.78320  0.91770  0.99990  Biso   1.000  H
  C241     1.0000 0.74580  0.97100  0.05870  Biso   1.000  C
  C242     1.0000 0.71890  0.96240  0.10980  Biso   1.000  C
  H68      1.0000 0.70730  0.00310  0.12900  Biso   1.000  H
  C243     1.0000 0.70920  0.89760  0.13170  Biso   1.000  C
  C244     1.0000 0.77180  0.78230  0.02960  Biso   1.000  C
  C245     1.0000 0.75250  0.04020  0.03350  Biso   1.000  C
  C246     1.0000 0.68160  0.89150  0.18340  Biso   1.000  C
  C247     1.0000 0.59140  0.56900  0.18160  Biso   1.000  C
  C248     1.0000 0.58130  0.50050  0.16510  Biso   1.000  C
  C249     1.0000 0.54380  0.47300  0.18150  Biso   1.000  C
  H69      1.0000 0.53740  0.42490  0.17200  Biso   1.000  H
  C250     1.0000 0.51650  0.51610  0.21140  Biso   1.000  C
  C251     1.0000 0.52610  0.58580  0.22650  Biso   1.000  C
  H70      1.0000 0.50700  0.61570  0.24580  Biso   1.000  H
  C252     1.0000 0.56250  0.61100  0.21390  Biso   1.000  C
  C253     1.0000 0.60940  0.45710  0.13150  Biso   1.000  C
  C254     1.0000 0.47890  0.48680  0.22740  Biso   1.000  C
  C255     1.0000 0.57300  0.68410  0.23440  Biso   1.000  C
  C256     1.0000 0.55580  0.75070  0.00270  Biso   1.000  C
  C257     1.0000 0.53340  0.78340  0.05070  Biso   1.000  C
  C258     1.0000 0.49250  0.77720  0.04820  Biso   1.000  C
  H71      1.0000 0.47690  0.80050  0.07970  Biso   1.000  H
  C259     1.0000 0.47400  0.73550  0.99790  Biso   1.000  C
  C260     1.0000 0.49620  0.70820  0.94780  Biso   1.000  C
  H72      1.0000 0.48340  0.68550  0.91100  Biso   1.000  H
  C261     1.0000 0.53660  0.71460  0.95250  Biso   1.000  C
  C262     1.0000 0.55190  0.83270  0.09850  Biso   1.000  C
  C263     1.0000 0.43160  0.72790  0.99470  Biso   1.000  C
  C264     1.0000 0.56100  0.68440  0.90230  Biso   1.000  C
  N55      1.0000 0.91490  0.24580  0.79380  Biso   1.000  N
  N56      1.0000 0.02540  0.53850  0.73930  Biso   1.000  N
  N57      1.0000 0.85120  0.57220  0.90670  Biso   1.000  N
  N58      1.0000 0.94650  0.12540  0.89370  Biso   1.000  N
  N59      1.0000 0.11580  0.30250  0.99290  Biso   1.000  N
  N60      1.0000 0.94340  0.33640  0.16680  Biso   1.000  N
  N61      1.0000 0.85930  0.10520  0.79930  Biso   1.000  N
  N62      1.0000 0.68740  0.20130  0.64200  Biso   1.000  N
  N63      1.0000 0.71020  0.26960  0.97250  Biso   1.000  N
  N64      1.0000 0.78600  0.73440  0.00670  Biso   1.000  N
  N65      1.0000 0.75430  0.09450  0.00890  Biso   1.000  N
  N66      1.0000 0.65830  0.88250  0.22150  Biso   1.000  N
  N67      1.0000 0.63160  0.42750  0.10310  Biso   1.000  N
  N68      1.0000 0.44900  0.46150  0.23940  Biso   1.000  N
  N69      1.0000 0.58290  0.74040  0.24110  Biso   1.000  N
  N70      1.0000 0.56910  0.86270  0.13780  Biso   1.000  N
  N71      1.0000 0.39790  0.72120  0.99370  Biso   1.000  N
  N72      1.0000 0.58130  0.66180  0.86380  Biso   1.000  N
  O19      1.0000 0.86560  0.39830  0.87810  Biso   1.000  O
  O20      1.0000 0.92250  0.22800  0.03190  Biso   1.000  O
  O21      1.0000 0.79900  0.18120  0.92170  Biso   1.000  O
  O22      1.0000 0.71910  0.77000  0.12910  Biso   1.000  O
  O23      1.0000 0.62940  0.58950  0.17150  Biso   1.000  O
  O24      1.0000 0.59650  0.76120  0.00120  Biso   1.000  O
