data_image0
_cell_length_a       9.3765
_cell_length_b       10.0807
_cell_length_c       18.629
_cell_angle_alpha    86.471
_cell_angle_beta     89.112
_cell_angle_gamma    74.752

_symmetry_space_group_name_H-M    "P 1"
_symmetry_int_tables_number       1

loop_
  _symmetry_equiv_pos_as_xyz
  'x, y, z'

loop_
  _atom_site_label
  _atom_site_occupancy
  _atom_site_fract_x
  _atom_site_fract_y
  _atom_site_fract_z
  _atom_site_thermal_displace_type
  _atom_site_B_iso_or_equiv
  _atom_site_type_symbol
  C1       1.0000 0.76290  0.93580  0.84110  Biso   1.000  C
  C2       1.0000 0.82040  0.04600  0.81700  Biso   1.000  C
  C3       1.0000 0.97170  0.02210  0.80430  Biso   1.000  C
  H1       1.0000 0.01060  0.09640  0.78740  Biso   1.000  H
  C4       1.0000 0.06600  0.89170  0.81590  Biso   1.000  C
  C5       1.0000 0.00900  0.78420  0.84090  Biso   1.000  C
  H2       1.0000 0.07410  0.69530  0.85020  Biso   1.000  H
  C6       1.0000 0.85800  0.80370  0.85300  Biso   1.000  C
  C7       1.0000 0.72520  0.19070  0.80480  Biso   1.000  C
  C8       1.0000 0.22920  0.87090  0.80340  Biso   1.000  C
  C9       1.0000 0.80530  0.68160  0.88120  Biso   1.000  C
  C10      1.0000 0.57710  0.94610  0.93440  Biso   1.000  C
  H3       1.0000 0.64020  0.85600  0.95460  Biso   1.000  H
  C11      1.0000 0.41700  0.94700  0.94690  Biso   1.000  C
  H4       1.0000 0.39620  0.86740  0.92460  Biso   1.000  H
  H5       1.0000 0.35200  0.03230  0.92390  Biso   1.000  H
  C12      1.0000 0.61580  0.06050  0.97320  Biso   1.000  C
  H6       1.0000 0.72220  0.05440  0.96620  Biso   1.000  H
  H7       1.0000 0.55880  0.15070  0.95160  Biso   1.000  H
  C13      1.0000 0.77550  0.37450  0.65300  Biso   1.000  C
  C14      1.0000 0.80660  0.49190  0.67859  Biso   1.000  C
  C15      1.0000 0.95110  0.49140  0.69390  Biso   1.000  C
  H8       1.0000 0.97150  0.57190  0.71030  Biso   1.000  H
  C16      1.0000 0.06600  0.37480  0.68550  Biso   1.000  C
  C17      1.0000 0.03610  0.25810  0.66220  Biso   1.000  C
  H9       1.0000 0.11490  0.17760  0.65770  Biso   1.000  H
  C18      1.0000 0.89290  0.25500  0.64505  Biso   1.000  C
  C19      1.0000 0.69140  0.61760  0.69960  Biso   1.000  C
  C20      1.0000 0.22150  0.37770  0.70300  Biso   1.000  C
  C21      1.0000 0.87000  0.12270  0.61930  Biso   1.000  C
  C22      1.0000 0.56510  0.47400  0.57270  Biso   1.000  C
  H10      1.0000 0.56650  0.56930  0.58400  Biso   1.000  H
  C23      1.0000 0.40780  0.47180  0.55990  Biso   1.000  C
  H11      1.0000 0.34750  0.50320  0.60280  Biso   1.000  H
  H12      1.0000 0.40420  0.37630  0.55260  Biso   1.000  H
  C24      1.0000 0.65700  0.43520  0.50590  Biso   1.000  C
  H13      1.0000 0.66250  0.33840  0.49640  Biso   1.000  H
  H14      1.0000 0.75880  0.44200  0.51420  Biso   1.000  H
  Cd1      1.0000 0.52272  0.82389  0.77641  Biso   1.000  Cd
  Cd2      1.0000 0.48663  0.41541  0.74445  Biso   1.000  Cd
  N1       1.0000 0.60870  0.95780  0.85583  Biso   1.000  N
  H15      1.0000 0.56170  0.05590  0.83970  Biso   1.000  H
  N2       1.0000 0.62790  0.37690  0.63562  Biso   1.000  N
  H16      1.0000 0.62940  0.28220  0.62180  Biso   1.000  H
  O1       1.0000 0.59060  0.20350  0.78851  Biso   1.000  O
  O2       1.0000 0.77910  0.29000  0.80866  Biso   1.000  O
  O3       1.0000 0.27470  0.96920  0.77790  Biso   1.000  O
  O4       1.0000 0.31590  0.75460  0.82025  Biso   1.000  O
  O5       1.0000 0.89040  0.59860  0.92443  Biso   1.000  O
  O6       1.0000 0.68310  0.66730  0.86054  Biso   1.000  O
  O7       1.0000 0.56340  0.60820  0.72118  Biso   1.000  O
  O8       1.0000 0.72500  0.72830  0.70063  Biso   1.000  O
  O9       1.0000 0.24110  0.48790  0.72520  Biso   1.000  O
  O10      1.0000 0.32560  0.27470  0.69397  Biso   1.000  O
  O11      1.0000 0.98220  0.03630  0.59770  Biso   1.000  O
  O12      1.0000 0.74260  0.10370  0.62070  Biso   1.000  O
  C25      1.0000 0.23710  0.06420  0.15890  Biso   1.000  C
  C26      1.0000 0.17960  0.95400  0.18300  Biso   1.000  C
  C27      1.0000 0.02830  0.97790  0.19570  Biso   1.000  C
  H17      1.0000 0.98940  0.90360  0.21260  Biso   1.000  H
  C28      1.0000 0.93400  0.10830  0.18410  Biso   1.000  C
  C29      1.0000 0.99100  0.21580  0.15910  Biso   1.000  C
  H18      1.0000 0.92590  0.30470  0.14980  Biso   1.000  H
  C30      1.0000 0.14200  0.19630  0.14700  Biso   1.000  C
  C31      1.0000 0.27480  0.80930  0.19520  Biso   1.000  C
  C32      1.0000 0.77080  0.12910  0.19660  Biso   1.000  C
  C33      1.0000 0.19470  0.31840  0.11880  Biso   1.000  C
  C34      1.0000 0.42290  0.05390  0.06560  Biso   1.000  C
  H19      1.0000 0.35980  0.14400  0.04540  Biso   1.000  H
  C35      1.0000 0.58300  0.05300  0.05310  Biso   1.000  C
  H20      1.0000 0.60380  0.13260  0.07540  Biso   1.000  H
  H21      1.0000 0.64800  0.96770  0.07610  Biso   1.000  H
  C36      1.0000 0.38420  0.93950  0.02680  Biso   1.000  C
  H22      1.0000 0.27780  0.94560  0.03380  Biso   1.000  H
  H23      1.0000 0.44120  0.84930  0.04840  Biso   1.000  H
  C37      1.0000 0.22450  0.62550  0.34700  Biso   1.000  C
  C38      1.0000 0.19340  0.50810  0.32141  Biso   1.000  C
  C39      1.0000 0.04890  0.50860  0.30610  Biso   1.000  C
  H24      1.0000 0.02850  0.42810  0.28970  Biso   1.000  H
  C40      1.0000 0.93400  0.62520  0.31450  Biso   1.000  C
  C41      1.0000 0.96390  0.74190  0.33780  Biso   1.000  C
  H25      1.0000 0.88510  0.82240  0.34230  Biso   1.000  H
  C42      1.0000 0.10710  0.74500  0.35495  Biso   1.000  C
  C43      1.0000 0.30860  0.38240  0.30040  Biso   1.000  C
  C44      1.0000 0.77850  0.62230  0.29700  Biso   1.000  C
  C45      1.0000 0.13000  0.87730  0.38070  Biso   1.000  C
  C46      1.0000 0.43490  0.52600  0.42730  Biso   1.000  C
  H26      1.0000 0.43350  0.43070  0.41600  Biso   1.000  H
  C47      1.0000 0.59220  0.52820  0.44010  Biso   1.000  C
  H27      1.0000 0.65250  0.49680  0.39720  Biso   1.000  H
  H28      1.0000 0.59580  0.62370  0.44740  Biso   1.000  H
  C48      1.0000 0.34300  0.56480  0.49410  Biso   1.000  C
  H29      1.0000 0.33750  0.66160  0.50360  Biso   1.000  H
  H30      1.0000 0.24120  0.55800  0.48580  Biso   1.000  H
  Cd3      1.0000 0.47728  0.17611  0.22359  Biso   1.000  Cd
  Cd4      1.0000 0.51337  0.58459  0.25555  Biso   1.000  Cd
  N3       1.0000 0.39130  0.04220  0.14417  Biso   1.000  N
  H31      1.0000 0.43830  0.94410  0.16030  Biso   1.000  H
  N4       1.0000 0.37210  0.62310  0.36438  Biso   1.000  N
  H32      1.0000 0.37060  0.71780  0.37820  Biso   1.000  H
  O13      1.0000 0.40940  0.79650  0.21149  Biso   1.000  O
  O14      1.0000 0.22090  0.71000  0.19134  Biso   1.000  O
  O15      1.0000 0.72530  0.03080  0.22210  Biso   1.000  O
  O16      1.0000 0.68410  0.24540  0.17975  Biso   1.000  O
  O17      1.0000 0.10960  0.40140  0.07557  Biso   1.000  O
  O18      1.0000 0.31690  0.33270  0.13946  Biso   1.000  O
  O19      1.0000 0.43660  0.39180  0.27882  Biso   1.000  O
  O20      1.0000 0.27500  0.27170  0.29937  Biso   1.000  O
  O21      1.0000 0.75890  0.51210  0.27480  Biso   1.000  O
  O22      1.0000 0.67440  0.72530  0.30603  Biso   1.000  O
  O23      1.0000 0.01780  0.96370  0.40230  Biso   1.000  O
  O24      1.0000 0.25740  0.89630  0.37930  Biso   1.000  O
