data_UVAROZ_clean
_audit_creation_date              2014-07-02
_audit_creation_method            'Materials Studio'
_symmetry_space_group_name_H-M    'P1'
_symmetry_Int_Tables_number       1
_symmetry_cell_setting            triclinic
loop_
_symmetry_equiv_pos_as_xyz
  x,y,z
_cell_length_a                    8.6660
_cell_length_b                    13.1870
_cell_length_c                    14.0833
_cell_angle_alpha                 62.0839
_cell_angle_beta                  84.1180
_cell_angle_gamma                 77.3561
loop_
_atom_site_label
_atom_site_type_symbol
_atom_site_fract_x
_atom_site_fract_y
_atom_site_fract_z
_atom_site_U_iso_or_equiv
_atom_site_adp_type
_atom_site_occupancy
Zn1    Zn    0.79845   0.10049   0.82360   0.01267  Uiso   1.00
Zn2    Zn    0.29845   0.92409   0.17640   0.01267  Uiso   1.00
H1     H     0.06830   0.10040   0.47000   0.01267  Uiso   1.00
H2     H     0.31100   0.05320   0.39580   0.01267  Uiso   1.00
H3     H     0.53310   0.97950   0.66580   0.01267  Uiso   1.00
H4     H     0.28380   0.01610   0.74280   0.01267  Uiso   1.00
H5     H     0.68940   0.98210   0.52000   0.01267  Uiso   1.00
H6     H     0.54330   0.99260   0.34780   0.01267  Uiso   1.00
H7     H     0.70660   0.99790   0.19660   0.01267  Uiso   1.00
H8     H     0.96010   0.96880   0.12360   0.01267  Uiso   1.00
H9     H     0.16710   0.89710   0.38880   0.01267  Uiso   1.00
H10    H     0.92780   0.93220   0.46540   0.01267  Uiso   1.00
H11    H     0.44910   0.26530   0.91920   0.01267  Uiso   1.00
H12    H     0.53620   0.44190   0.85840   0.01267  Uiso   1.00
H13    H     0.50710   0.40290   0.16020   0.01267  Uiso   1.00
H14    H     0.42300   0.23050   0.22260   0.01267  Uiso   1.00
H15    H     0.60840   0.58940   0.88660   0.01267  Uiso   1.00
H16    H     0.58750   0.56460   0.09360   0.01267  Uiso   1.00
H17    H     0.71940   0.74000   0.82380   0.01267  Uiso   1.00
H18    H     0.79690   0.91660   0.77060   0.01267  Uiso   1.00
H19    H     0.67840   0.91820   0.04660   0.01267  Uiso   1.00
H20    H     0.61780   0.73250   0.11180   0.01267  Uiso   1.00
H21    H     0.56830   0.57040   0.53000   0.01267  Uiso   1.00
H22    H     0.81100   0.44900   0.60420   0.01267  Uiso   1.00
H23    H     0.03310   0.64530   0.33420   0.01267  Uiso   1.00
H24    H     0.78380   0.75890   0.25720   0.01267  Uiso   1.00
H25    H     0.18940   0.50210   0.48000   0.01267  Uiso   1.00
H26    H     0.04330   0.34040   0.65220   0.01267  Uiso   1.00
H27    H     0.20660   0.19450   0.80340   0.01267  Uiso   1.00
H28    H     0.46010   0.09240   0.87640   0.01267  Uiso   1.00
H29    H     0.66710   0.28590   0.61120   0.01267  Uiso   1.00
H30    H     0.42780   0.39760   0.53460   0.01267  Uiso   1.00
H31    H     0.94910   0.18450   0.08080   0.01267  Uiso   1.00
H32    H     0.03620   0.30030   0.14160   0.01267  Uiso   1.00
H33    H     0.00710   0.56310   0.83980   0.01267  Uiso   1.00
H34    H     0.92300   0.45310   0.77740   0.01267  Uiso   1.00
H35    H     0.10840   0.47600   0.11340   0.01267  Uiso   1.00
H36    H     0.08750   0.65820   0.90640   0.01267  Uiso   1.00
H37    H     0.21940   0.56380   0.17620   0.01267  Uiso   1.00
H38    H     0.29690   0.68720   0.22940   0.01267  Uiso   1.00
H39    H     0.17840   0.96480   0.95340   0.01267  Uiso   1.00
H40    H     0.11780   0.84430   0.88820   0.01267  Uiso   1.00
C1     C     0.00150   0.08160   0.66500   0.01267  Uiso   1.00
C2     C     0.15660   0.05750   0.61420   0.01267  Uiso   1.00
C3     C     0.16280   0.07300   0.51060   0.01267  Uiso   1.00
C4     C     0.30750   0.04840   0.46540   0.01267  Uiso   1.00
C5     C     0.44750   0.01680   0.52180   0.01267  Uiso   1.00
C6     C     0.43900   0.00330   0.62540   0.01267  Uiso   1.00
C7     C     0.28980   0.02470   0.67180   0.01267  Uiso   1.00
C8     C     0.60090   0.99320   0.47920   0.01267  Uiso   1.00
C9     C     0.63180   0.98520   0.38680   0.01267  Uiso   1.00
C10    C     0.78810   0.96610   0.34080   0.01267  Uiso   1.00
C11    C     0.79880   0.97840   0.23740   0.01267  Uiso   1.00
C12    C     0.95270   0.96060   0.19440   0.01267  Uiso   1.00
C13    C     0.07290   0.92000   0.34880   0.01267  Uiso   1.00
C14    C     0.93070   0.93830   0.39540   0.01267  Uiso   1.00
C15    C     0.37320   0.11610   0.11860   0.01267  Uiso   1.00
C16    C     0.42480   0.22980   0.07720   0.01267  Uiso   1.00
C17    C     0.46030   0.29350   0.96860   0.01267  Uiso   1.00
C18    C     0.51220   0.39900   0.93240   0.01267  Uiso   1.00
C19    C     0.52900   0.44150   0.00280   0.01267  Uiso   1.00
C20    C     0.49470   0.37510   0.11080   0.01267  Uiso   1.00
C21    C     0.44470   0.27300   0.14820   0.01267  Uiso   1.00
C22    C     0.58540   0.55180   0.96120   0.01267  Uiso   1.00
C23    C     0.60730   0.60380   0.01860   0.01267  Uiso   1.00
C24    C     0.65940   0.71690   0.97700   0.01267  Uiso   1.00
C25    C     0.71280   0.77290   0.87180   0.01267  Uiso   1.00
C26    C     0.75570   0.87890   0.84100   0.01267  Uiso   1.00
C27    C     0.69010   0.88070   0.00220   0.01267  Uiso   1.00
C28    C     0.65130   0.77110   0.03940   0.01267  Uiso   1.00
C29    C     0.50150   0.74660   0.33500   0.01267  Uiso   1.00
C30    C     0.65660   0.67170   0.38580   0.01267  Uiso   1.00
C31    C     0.66280   0.58360   0.48940   0.01267  Uiso   1.00
C32    C     0.80750   0.51380   0.53460   0.01267  Uiso   1.00
C33    C     0.94750   0.53860   0.47820   0.01267  Uiso   1.00
C34    C     0.93900   0.62870   0.37460   0.01267  Uiso   1.00
C35    C     0.78980   0.69650   0.32820   0.01267  Uiso   1.00
C36    C     0.10090   0.47240   0.52080   0.01267  Uiso   1.00
C37    C     0.13180   0.37200   0.61320   0.01267  Uiso   1.00
C38    C     0.28810   0.30690   0.65920   0.01267  Uiso   1.00
C39    C     0.29880   0.21580   0.76260   0.01267  Uiso   1.00
C40    C     0.45270   0.15500   0.80560   0.01267  Uiso   1.00
C41    C     0.57290   0.26880   0.65120   0.01267  Uiso   1.00
C42    C     0.43070   0.33370   0.60460   0.01267  Uiso   1.00
C43    C     0.87320   0.23470   0.88140   0.01267  Uiso   1.00
C44    C     0.92480   0.30700   0.92280   0.01267  Uiso   1.00
C45    C     0.96030   0.26210   0.03140   0.01267  Uiso   1.00
C46    C     0.01220   0.33140   0.06760   0.01267  Uiso   1.00
C47    C     0.02900   0.44430   0.99720   0.01267  Uiso   1.00
C48    C     0.99470   0.48590   0.88920   0.01267  Uiso   1.00
C49    C     0.94470   0.42120   0.85180   0.01267  Uiso   1.00
C50    C     0.08540   0.51300   0.03880   0.01267  Uiso   1.00
C51    C     0.10730   0.62240   0.98140   0.01267  Uiso   1.00
C52    C     0.15940   0.69390   0.02300   0.01267  Uiso   1.00
C53    C     0.21280   0.64470   0.12820   0.01267  Uiso   1.00
C54    C     0.25570   0.71990   0.15900   0.01267  Uiso   1.00
C55    C     0.19010   0.88290   0.99780   0.01267  Uiso   1.00
C56    C     0.15130   0.81050   0.96060   0.01267  Uiso   1.00
N1     N     0.08360   0.93380   0.24600   0.01267  Uiso   1.00
N2     N     0.74430   0.93170   0.90120   0.01267  Uiso   1.00
N3     N     0.58360   0.17980   0.75400   0.01267  Uiso   1.00
N4     N     0.24430   0.83290   0.09880   0.01267  Uiso   1.00
O1     O     0.00430   0.06700   0.76020   0.01267  Uiso   1.00
O2     O     0.87440   0.10850   0.61280   0.01267  Uiso   1.00
O3     O     0.35500   0.07560   0.05520   0.01267  Uiso   1.00
O4     O     0.33430   0.06770   0.21660   0.01267  Uiso   1.00
O5     O     0.50430   0.82720   0.23980   0.01267  Uiso   1.00
O6     O     0.37440   0.72130   0.38720   0.01267  Uiso   1.00
O7     O     0.85500   0.13080   0.94480   0.01267  Uiso   1.00
O8     O     0.83430   0.28430   0.78340   0.01267  Uiso   1.00
