data_UVARIT_clean
_audit_creation_date              2014-07-02
_audit_creation_method            'Materials Studio'
_symmetry_space_group_name_H-M    'P1'
_symmetry_Int_Tables_number       1
_symmetry_cell_setting            triclinic
loop_
_symmetry_equiv_pos_as_xyz
  x,y,z
_cell_length_a                    8.4090
_cell_length_b                    13.4880
_cell_length_c                    14.1302
_cell_angle_alpha                 61.4924
_cell_angle_beta                  85.7574
_cell_angle_gamma                 81.0829
loop_
_atom_site_label
_atom_site_type_symbol
_atom_site_fract_x
_atom_site_fract_y
_atom_site_fract_z
_atom_site_U_iso_or_equiv
_atom_site_adp_type
_atom_site_occupancy
Zn1    Zn    0.47811   0.61776   0.18240   0.01267  Uiso   1.00
Zn2    Zn    0.97811   0.80016   0.81760   0.01267  Uiso   1.00
H1     H     0.98360   0.46580   0.25860   0.01267  Uiso   1.00
H2     H     0.22230   0.35040   0.33360   0.01267  Uiso   1.00
H3     H     0.98290   0.14530   0.59700   0.01267  Uiso   1.00
H4     H     0.74200   0.25930   0.52100   0.01267  Uiso   1.00
H5     H     0.37730   0.19010   0.47200   0.01267  Uiso   1.00
H6     H     0.21560   0.04700   0.65160   0.01267  Uiso   1.00
H7     H     0.38400   0.91060   0.80440   0.01267  Uiso   1.00
H8     H     0.63070   0.80630   0.87740   0.01267  Uiso   1.00
H9     H     0.84200   0.96800   0.59760   0.01267  Uiso   1.00
H10    H     0.60330   0.07590   0.51840   0.01267  Uiso   1.00
H11    H     0.61810   0.96490   0.92260   0.01267  Uiso   1.00
H12    H     0.70070   0.14480   0.86020   0.01267  Uiso   1.00
H13    H     0.67210   0.10340   0.16280   0.01267  Uiso   1.00
H14    H     0.58770   0.92860   0.22420   0.01267  Uiso   1.00
H15    H     0.78520   0.28930   0.89000   0.01267  Uiso   1.00
H16    H     0.74780   0.26720   0.09420   0.01267  Uiso   1.00
H17    H     0.90430   0.43560   0.82980   0.01267  Uiso   1.00
H18    H     0.98330   0.61640   0.76640   0.01267  Uiso   1.00
H19    H     0.85110   0.61670   0.04080   0.01267  Uiso   1.00
H20    H     0.78320   0.43540   0.11120   0.01267  Uiso   1.00
H21    H     0.48360   0.72440   0.74140   0.01267  Uiso   1.00
H22    H     0.72230   0.68400   0.66640   0.01267  Uiso   1.00
H23    H     0.48290   0.74230   0.40300   0.01267  Uiso   1.00
H24    H     0.24200   0.78030   0.47900   0.01267  Uiso   1.00
H25    H     0.87730   0.66210   0.52800   0.01267  Uiso   1.00
H26    H     0.71560   0.69860   0.34840   0.01267  Uiso   1.00
H27    H     0.88400   0.71500   0.19560   0.01267  Uiso   1.00
H28    H     0.13070   0.68370   0.12260   0.01267  Uiso   1.00
H29    H     0.34200   0.56560   0.40240   0.01267  Uiso   1.00
H30    H     0.10330   0.59430   0.48160   0.01267  Uiso   1.00
H31    H     0.11810   0.88750   0.07740   0.01267  Uiso   1.00
H32    H     0.20070   0.00500   0.13980   0.01267  Uiso   1.00
H33    H     0.17210   0.26620   0.83720   0.01267  Uiso   1.00
H34    H     0.08770   0.15280   0.77580   0.01267  Uiso   1.00
H35    H     0.28520   0.17930   0.11000   0.01267  Uiso   1.00
H36    H     0.24780   0.36140   0.90580   0.01267  Uiso   1.00
H37    H     0.40430   0.26540   0.17020   0.01267  Uiso   1.00
H38    H     0.48330   0.38280   0.23360   0.01267  Uiso   1.00
H39    H     0.35110   0.65750   0.95920   0.01267  Uiso   1.00
H40    H     0.28320   0.54660   0.88880   0.01267  Uiso   1.00
C1     C     0.68170   0.44680   0.33440   0.01267  Uiso   1.00
C2     C     0.83810   0.37450   0.38220   0.01267  Uiso   1.00
C3     C     0.98290   0.40040   0.32740   0.01267  Uiso   1.00
C4     C     0.12480   0.33170   0.37240   0.01267  Uiso   1.00
C5     C     0.12980   0.23630   0.47240   0.01267  Uiso   1.00
C6     C     0.98320   0.21020   0.52800   0.01267  Uiso   1.00
C7     C     0.84000   0.27820   0.48300   0.01267  Uiso   1.00
C8     C     0.28500   0.16610   0.51560   0.01267  Uiso   1.00
C9     C     0.30830   0.07270   0.60940   0.01267  Uiso   1.00
C10    C     0.46450   0.00520   0.65380   0.01267  Uiso   1.00
C11    C     0.47720   0.92400   0.76020   0.01267  Uiso   1.00
C12    C     0.62500   0.86160   0.80340   0.01267  Uiso   1.00
C13    C     0.74710   0.95630   0.64020   0.01267  Uiso   1.00
C14    C     0.60570   0.02080   0.59260   0.01267  Uiso   1.00
C15    C     0.53860   0.81330   0.12260   0.01267  Uiso   1.00
C16    C     0.59240   0.92960   0.07900   0.01267  Uiso   1.00
C17    C     0.62820   0.99320   0.97160   0.01267  Uiso   1.00
C18    C     0.67970   0.10020   0.93460   0.01267  Uiso   1.00
C19    C     0.70010   0.14080   0.00520   0.01267  Uiso   1.00
C20    C     0.66210   0.07540   0.11360   0.01267  Uiso   1.00
C21    C     0.61100   0.97210   0.15000   0.01267  Uiso   1.00
C22    C     0.75740   0.25200   0.96420   0.01267  Uiso   1.00
C23    C     0.77380   0.30480   0.01980   0.01267  Uiso   1.00
C24    C     0.82880   0.41690   0.97740   0.01267  Uiso   1.00
C25    C     0.89240   0.47140   0.87420   0.01267  Uiso   1.00
C26    C     0.93890   0.58010   0.83660   0.01267  Uiso   1.00
C27    C     0.86350   0.57990   0.99720   0.01267  Uiso   1.00
C28    C     0.81990   0.47220   0.03880   0.01267  Uiso   1.00
C29    C     0.18170   0.78120   0.66560   0.01267  Uiso   1.00
C30    C     0.33810   0.75670   0.61780   0.01267  Uiso   1.00
C31    C     0.48290   0.72780   0.67260   0.01267  Uiso   1.00
C32    C     0.62480   0.70410   0.62760   0.01267  Uiso   1.00
C33    C     0.62980   0.70870   0.52760   0.01267  Uiso   1.00
C34    C     0.48320   0.73820   0.47200   0.01267  Uiso   1.00
C35    C     0.34000   0.76120   0.51700   0.01267  Uiso   1.00
C36    C     0.78500   0.68170   0.48440   0.01267  Uiso   1.00
C37    C     0.80830   0.68210   0.39060   0.01267  Uiso   1.00
C38    C     0.96450   0.65900   0.34620   0.01267  Uiso   1.00
C39    C     0.97720   0.68420   0.23980   0.01267  Uiso   1.00
C40    C     0.12500   0.66500   0.19660   0.01267  Uiso   1.00
C41    C     0.24710   0.59650   0.35980   0.01267  Uiso   1.00
C42    C     0.10570   0.61340   0.40740   0.01267  Uiso   1.00
C43    C     0.03860   0.93590   0.87740   0.01267  Uiso   1.00
C44    C     0.09240   0.00860   0.92100   0.01267  Uiso   1.00
C45    C     0.12820   0.96480   0.02840   0.01267  Uiso   1.00
C46    C     0.17970   0.03480   0.06540   0.01267  Uiso   1.00
C47    C     0.20010   0.14600   0.99480   0.01267  Uiso   1.00
C48    C     0.16210   0.18900   0.88640   0.01267  Uiso   1.00
C49    C     0.11100   0.12210   0.85000   0.01267  Uiso   1.00
C50    C     0.25740   0.21620   0.03580   0.01267  Uiso   1.00
C51    C     0.27380   0.32460   0.98020   0.01267  Uiso   1.00
C52    C     0.32880   0.39430   0.02260   0.01267  Uiso   1.00
C53    C     0.39240   0.34560   0.12580   0.01267  Uiso   1.00
C54    C     0.43890   0.41670   0.16340   0.01267  Uiso   1.00
C55    C     0.36350   0.57710   0.00280   0.01267  Uiso   1.00
C56    C     0.31990   0.51100   0.96120   0.01267  Uiso   1.00
N1     N     0.75930   0.87670   0.74460   0.01267  Uiso   1.00
N2     N     0.92280   0.63450   0.89680   0.01267  Uiso   1.00
N3     N     0.25930   0.62130   0.25540   0.01267  Uiso   1.00
N4     N     0.42280   0.53130   0.10320   0.01267  Uiso   1.00
O1     O     0.68920   0.52992   0.23816   0.01267  Uiso   1.00
O2     O     0.55400   0.42336   0.38388   0.01267  Uiso   1.00
O3     O     0.52500   0.77361   0.05818   0.01267  Uiso   1.00
O4     O     0.51540   0.75850   0.22140   0.01267  Uiso   1.00
O5     O     0.18920   0.76808   0.76184   0.01267  Uiso   1.00
O6     O     0.05400   0.80724   0.61612   0.01267  Uiso   1.00
O7     O     0.02500   0.83179   0.94182   0.01267  Uiso   1.00
O8     O     0.01540   0.97990   0.77860   0.01267  Uiso   1.00
