data_UVARUF_clean
_audit_creation_date              2014-07-02
_audit_creation_method            'Materials Studio'
_symmetry_space_group_name_H-M    'P1'
_symmetry_Int_Tables_number       1
_symmetry_cell_setting            triclinic
loop_
_symmetry_equiv_pos_as_xyz
  x,y,z
_cell_length_a                    8.7150
_cell_length_b                    12.9340
_cell_length_c                    14.0605
_cell_angle_alpha                 62.6167
_cell_angle_beta                  83.6860
_cell_angle_gamma                 76.1659
loop_
_atom_site_label
_atom_site_type_symbol
_atom_site_fract_x
_atom_site_fract_y
_atom_site_fract_z
_atom_site_U_iso_or_equiv
_atom_site_adp_type
_atom_site_occupancy
Zn1    Zn    0.36757   0.74115   0.82246   0.01267  Uiso   1.00
Zn2    Zn    0.86757   0.56361   0.17754   0.01267  Uiso   1.00
H1     H     0.09300   0.09630   0.46840   0.01267  Uiso   1.00
H2     H     0.85010   0.20040   0.39220   0.01267  Uiso   1.00
H3     H     0.64380   0.02040   0.66480   0.01267  Uiso   1.00
H4     H     0.87850   0.91990   0.74320   0.01267  Uiso   1.00
H5     H     0.47570   0.16230   0.51580   0.01267  Uiso   1.00
H6     H     0.62280   0.31640   0.34400   0.01267  Uiso   1.00
H7     H     0.24830   0.26140   0.45900   0.01267  Uiso   1.00
H8     H     0.00150   0.37330   0.38280   0.01267  Uiso   1.00
H9     H     0.20870   0.56600   0.12580   0.01267  Uiso   1.00
H10    H     0.45240   0.47370   0.19580   0.01267  Uiso   1.00
H11    H     0.23980   0.43540   0.77860   0.01267  Uiso   1.00
H12    H     0.14970   0.26130   0.84040   0.01267  Uiso   1.00
H13    H     0.14500   0.22040   0.13880   0.01267  Uiso   1.00
H14    H     0.24570   0.39200   0.07740   0.01267  Uiso   1.00
H15    H     0.05100   0.08200   0.10620   0.01267  Uiso   1.00
H16    H     0.08260   0.09440   0.90500   0.01267  Uiso   1.00
H17    H     0.05710   0.92550   0.88900   0.01267  Uiso   1.00
H18    H     0.96750   0.74890   0.95440   0.01267  Uiso   1.00
H19    H     0.85830   0.75910   0.22920   0.01267  Uiso   1.00
H20    H     0.93550   0.93050   0.16820   0.01267  Uiso   1.00
H21    H     0.59300   0.56470   0.53160   0.01267  Uiso   1.00
H22    H     0.35010   0.59260   0.60780   0.01267  Uiso   1.00
H23    H     0.14380   0.68520   0.33520   0.01267  Uiso   1.00
H24    H     0.37850   0.66310   0.25680   0.01267  Uiso   1.00
H25    H     0.97570   0.67810   0.48420   0.01267  Uiso   1.00
H26    H     0.12280   0.66040   0.65600   0.01267  Uiso   1.00
H27    H     0.74830   0.72040   0.54100   0.01267  Uiso   1.00
H28    H     0.50150   0.75610   0.61720   0.01267  Uiso   1.00
H29    H     0.70870   0.69180   0.87420   0.01267  Uiso   1.00
H30    H     0.95240   0.66950   0.80420   0.01267  Uiso   1.00
H31    H     0.73980   0.21400   0.22140   0.01267  Uiso   1.00
H32    H     0.64970   0.10170   0.15960   0.01267  Uiso   1.00
H33    H     0.64500   0.35920   0.86120   0.01267  Uiso   1.00
H34    H     0.74570   0.46940   0.92260   0.01267  Uiso   1.00
H35    H     0.55100   0.18820   0.89380   0.01267  Uiso   1.00
H36    H     0.58260   0.99940   0.09500   0.01267  Uiso   1.00
H37    H     0.55710   0.81450   0.11100   0.01267  Uiso   1.00
H38    H     0.46750   0.70330   0.04560   0.01267  Uiso   1.00
H39    H     0.35830   0.98830   0.77080   0.01267  Uiso   1.00
H40    H     0.43550   0.09870   0.83180   0.01267  Uiso   1.00
C1     C     0.16500   0.92050   0.66320   0.01267  Uiso   1.00
C2     C     0.01680   0.99310   0.61480   0.01267  Uiso   1.00
C3     C     0.00240   0.08020   0.50920   0.01267  Uiso   1.00
C4     C     0.85640   0.14330   0.46360   0.01267  Uiso   1.00
C5     C     0.71980   0.12330   0.52180   0.01267  Uiso   1.00
C6     C     0.73490   0.03720   0.62480   0.01267  Uiso   1.00
C7     C     0.87500   0.97560   0.67160   0.01267  Uiso   1.00
C8     C     0.56270   0.19020   0.47680   0.01267  Uiso   1.00
C9     C     0.53590   0.28860   0.38380   0.01267  Uiso   1.00
C10    C     0.37680   0.35630   0.33980   0.01267  Uiso   1.00
C11    C     0.24260   0.32660   0.39160   0.01267  Uiso   1.00
C12    C     0.09300   0.39340   0.34480   0.01267  Uiso   1.00
C13    C     0.21570   0.50640   0.19620   0.01267  Uiso   1.00
C14    C     0.36360   0.45060   0.23580   0.01267  Uiso   1.00
C15    C     0.30170   0.54210   0.87880   0.01267  Uiso   1.00
C16    C     0.24370   0.43220   0.92460   0.01267  Uiso   1.00
C17    C     0.21980   0.39260   0.85100   0.01267  Uiso   1.00
C18    C     0.16570   0.28840   0.88860   0.01267  Uiso   1.00
C19    C     0.13520   0.22380   0.99540   0.01267  Uiso   1.00
C20    C     0.16400   0.26310   0.06620   0.01267  Uiso   1.00
C21    C     0.22220   0.36780   0.02880   0.01267  Uiso   1.00
C22    C     0.07800   0.11640   0.03420   0.01267  Uiso   1.00
C23    C     0.05880   0.05970   0.97760   0.01267  Uiso   1.00
C24    C     0.00470   0.95010   0.02060   0.01267  Uiso   1.00
C25    C     0.01640   0.89310   0.95800   0.01267  Uiso   1.00
C26    C     0.96600   0.78410   0.99940   0.01267  Uiso   1.00
C27    C     0.90080   0.79060   0.16060   0.01267  Uiso   1.00
C28    C     0.94490   0.89400   0.12360   0.01267  Uiso   1.00
C29    C     0.66500   0.58370   0.33680   0.01267  Uiso   1.00
C30    C     0.51680   0.60790   0.38520   0.01267  Uiso   1.00
C31    C     0.50240   0.58940   0.49080   0.01267  Uiso   1.00
C32    C     0.35640   0.60690   0.53640   0.01267  Uiso   1.00
C33    C     0.21980   0.64510   0.47820   0.01267  Uiso   1.00
C34    C     0.23490   0.66200   0.37520   0.01267  Uiso   1.00
C35    C     0.37500   0.64720   0.32840   0.01267  Uiso   1.00
C36    C     0.06270   0.66700   0.52320   0.01267  Uiso   1.00
C37    C     0.03590   0.67240   0.61620   0.01267  Uiso   1.00
C38    C     0.87680   0.69610   0.66020   0.01267  Uiso   1.00
C39    C     0.74260   0.71820   0.60840   0.01267  Uiso   1.00
C40    C     0.59300   0.73820   0.65520   0.01267  Uiso   1.00
C41    C     0.71570   0.70260   0.80380   0.01267  Uiso   1.00
C42    C     0.86360   0.68640   0.76420   0.01267  Uiso   1.00
C43    C     0.80170   0.42090   0.12120   0.01267  Uiso   1.00
C44    C     0.74370   0.35680   0.07540   0.01267  Uiso   1.00
C45    C     0.71980   0.24360   0.14900   0.01267  Uiso   1.00
C46    C     0.66570   0.17700   0.11140   0.01267  Uiso   1.00
C47    C     0.63520   0.21920   0.00460   0.01267  Uiso   1.00
C48    C     0.66400   0.32930   0.93380   0.01267  Uiso   1.00
C49    C     0.72220   0.39660   0.97120   0.01267  Uiso   1.00
C50    C     0.57800   0.15060   0.96580   0.01267  Uiso   1.00
C51    C     0.55880   0.03730   0.02240   0.01267  Uiso   1.00
C52    C     0.50470   0.97070   0.97940   0.01267  Uiso   1.00
C53    C     0.51640   0.85110   0.04200   0.01267  Uiso   1.00
C54    C     0.46600   0.78350   0.00060   0.01267  Uiso   1.00
C55    C     0.40080   0.95120   0.83940   0.01267  Uiso   1.00
C56    C     0.44490   0.01760   0.87640   0.01267  Uiso   1.00
N1     N     0.08140   0.48640   0.24520   0.01267  Uiso   1.00
N2     N     0.91540   0.72880   0.10220   0.01267  Uiso   1.00
N3     N     0.58140   0.73160   0.75480   0.01267  Uiso   1.00
N4     N     0.41540   0.83100   0.89780   0.01267  Uiso   1.00
O1     O     0.16310   0.84300   0.76020   0.01267  Uiso   1.00
O2     O     0.28860   0.94220   0.61200   0.01267  Uiso   1.00
O3     O     0.31650   0.59000   0.94280   0.01267  Uiso   1.00
O4     O     0.33070   0.59920   0.78300   0.01267  Uiso   1.00
O5     O     0.66310   0.60320   0.23980   0.01267  Uiso   1.00
O6     O     0.78860   0.55420   0.38800   0.01267  Uiso   1.00
O7     O     0.81650   0.53280   0.05720   0.01267  Uiso   1.00
O8     O     0.83070   0.38220   0.21700   0.01267  Uiso   1.00
