data_UVASAM_clean
_audit_creation_date              2014-07-02
_audit_creation_method            'Materials Studio'
_symmetry_space_group_name_H-M    'P1'
_symmetry_Int_Tables_number       1
_symmetry_cell_setting            triclinic
loop_
_symmetry_equiv_pos_as_xyz
  x,y,z
_cell_length_a                    8.4060
_cell_length_b                    13.5070
_cell_length_c                    14.1361
_cell_angle_alpha                 61.4615
_cell_angle_beta                  85.7892
_cell_angle_gamma                 81.1591
loop_
_atom_site_label
_atom_site_type_symbol
_atom_site_fract_x
_atom_site_fract_y
_atom_site_fract_z
_atom_site_U_iso_or_equiv
_atom_site_adp_type
_atom_site_occupancy
Zn1    Zn    0.83362   0.92030   0.18274   0.01267  Uiso   1.00
Zn2    Zn    0.33362   0.10304   0.81726   0.01267  Uiso   1.00
H1     H     0.83990   0.02430   0.74060   0.01267  Uiso   1.00
H2     H     0.07900   0.98960   0.66580   0.01267  Uiso   1.00
H3     H     0.84120   0.04210   0.40740   0.01267  Uiso   1.00
H4     H     0.59990   0.08190   0.48060   0.01267  Uiso   1.00
H5     H     0.23080   0.96620   0.52720   0.01267  Uiso   1.00
H6     H     0.07400   0.99970   0.34920   0.01267  Uiso   1.00
H7     H     0.45740   0.89470   0.48220   0.01267  Uiso   1.00
H8     H     0.69710   0.86620   0.40220   0.01267  Uiso   1.00
H9     H     0.48670   0.99030   0.12500   0.01267  Uiso   1.00
H10    H     0.24020   0.01720   0.19600   0.01267  Uiso   1.00
H11    H     0.46580   0.19490   0.07520   0.01267  Uiso   1.00
H12    H     0.55190   0.30720   0.13860   0.01267  Uiso   1.00
H13    H     0.53270   0.56700   0.83720   0.01267  Uiso   1.00
H14    H     0.44670   0.45490   0.77620   0.01267  Uiso   1.00
H15    H     0.63640   0.48460   0.10760   0.01267  Uiso   1.00
H16    H     0.60630   0.66580   0.90600   0.01267  Uiso   1.00
H17    H     0.64050   0.84720   0.88920   0.01267  Uiso   1.00
H18    H     0.70530   0.95970   0.96160   0.01267  Uiso   1.00
H19    H     0.84020   0.68690   0.23020   0.01267  Uiso   1.00
H20    H     0.75810   0.57060   0.16980   0.01267  Uiso   1.00
H21    H     0.33990   0.76490   0.25940   0.01267  Uiso   1.00
H22    H     0.57900   0.65540   0.33420   0.01267  Uiso   1.00
H23    H     0.34120   0.44950   0.59260   0.01267  Uiso   1.00
H24    H     0.09990   0.56250   0.51940   0.01267  Uiso   1.00
H25    H     0.73080   0.49340   0.47280   0.01267  Uiso   1.00
H26    H     0.57400   0.34890   0.65080   0.01267  Uiso   1.00
H27    H     0.95740   0.37690   0.51780   0.01267  Uiso   1.00
H28    H     0.19710   0.26840   0.59780   0.01267  Uiso   1.00
H29    H     0.98670   0.11530   0.87500   0.01267  Uiso   1.00
H30    H     0.74020   0.21320   0.80400   0.01267  Uiso   1.00
H31    H     0.96580   0.27010   0.92480   0.01267  Uiso   1.00
H32    H     0.05190   0.44580   0.86140   0.01267  Uiso   1.00
H33    H     0.03270   0.40420   0.16280   0.01267  Uiso   1.00
H34    H     0.94670   0.23110   0.22380   0.01267  Uiso   1.00
H35    H     0.13640   0.59220   0.89240   0.01267  Uiso   1.00
H36    H     0.10630   0.57180   0.09400   0.01267  Uiso   1.00
H37    H     0.14050   0.73640   0.11080   0.01267  Uiso   1.00
H38    H     0.20530   0.92130   0.03840   0.01267  Uiso   1.00
H39    H     0.34020   0.91710   0.76980   0.01267  Uiso   1.00
H40    H     0.25810   0.74040   0.83020   0.01267  Uiso   1.00
C1     C     0.54050   0.08210   0.66600   0.01267  Uiso   1.00
C2     C     0.69430   0.05850   0.61860   0.01267  Uiso   1.00
C3     C     0.83980   0.02920   0.67280   0.01267  Uiso   1.00
C4     C     0.98320   0.00720   0.62860   0.01267  Uiso   1.00
C5     C     0.98550   0.01130   0.52700   0.01267  Uiso   1.00
C6     C     0.84160   0.03910   0.47440   0.01267  Uiso   1.00
C7     C     0.69550   0.06300   0.51840   0.01267  Uiso   1.00
C8     C     0.14050   0.98460   0.48460   0.01267  Uiso   1.00
C9     C     0.16430   0.98420   0.39080   0.01267  Uiso   1.00
C10    C     0.32340   0.96130   0.34680   0.01267  Uiso   1.00
C11    C     0.46080   0.91420   0.40960   0.01267  Uiso   1.00
C12    C     0.60390   0.89710   0.36080   0.01267  Uiso   1.00
C13    C     0.47980   0.96930   0.19800   0.01267  Uiso   1.00
C14    C     0.33180   0.98780   0.23900   0.01267  Uiso   1.00
C15    C     0.39540   0.24040   0.87740   0.01267  Uiso   1.00
C16    C     0.44700   0.31100   0.92000   0.01267  Uiso   1.00
C17    C     0.47940   0.26970   0.02700   0.01267  Uiso   1.00
C18    C     0.53220   0.33670   0.06560   0.01267  Uiso   1.00
C19    C     0.55500   0.44780   0.99400   0.01267  Uiso   1.00
C20    C     0.52040   0.49190   0.88520   0.01267  Uiso   1.00
C21    C     0.46840   0.42490   0.84900   0.01267  Uiso   1.00
C22    C     0.61150   0.52020   0.03460   0.01267  Uiso   1.00
C23    C     0.63030   0.62900   0.97920   0.01267  Uiso   1.00
C24    C     0.68610   0.69670   0.02360   0.01267  Uiso   1.00
C25    C     0.67550   0.81340   0.96000   0.01267  Uiso   1.00
C26    C     0.71830   0.88100   0.00320   0.01267  Uiso   1.00
C27    C     0.79470   0.72020   0.16200   0.01267  Uiso   1.00
C28    C     0.74770   0.64890   0.12560   0.01267  Uiso   1.00
C29    C     0.04050   0.74810   0.33400   0.01267  Uiso   1.00
C30    C     0.19430   0.67710   0.38140   0.01267  Uiso   1.00
C31    C     0.33980   0.70200   0.32720   0.01267  Uiso   1.00
C32    C     0.48320   0.63580   0.37140   0.01267  Uiso   1.00
C33    C     0.48550   0.53830   0.47300   0.01267  Uiso   1.00
C34    C     0.34160   0.51350   0.52560   0.01267  Uiso   1.00
C35    C     0.19550   0.58140   0.48160   0.01267  Uiso   1.00
C36    C     0.64050   0.46920   0.51540   0.01267  Uiso   1.00
C37    C     0.66430   0.37500   0.60920   0.01267  Uiso   1.00
C38    C     0.82340   0.30810   0.65320   0.01267  Uiso   1.00
C39    C     0.96080   0.32380   0.59040   0.01267  Uiso   1.00
C40    C     0.10390   0.25790   0.63920   0.01267  Uiso   1.00
C41    C     0.97980   0.16730   0.80200   0.01267  Uiso   1.00
C42    C     0.83180   0.22680   0.76100   0.01267  Uiso   1.00
C43    C     0.89540   0.11780   0.12260   0.01267  Uiso   1.00
C44    C     0.94700   0.23100   0.08000   0.01267  Uiso   1.00
C45    C     0.97940   0.29670   0.97300   0.01267  Uiso   1.00
C46    C     0.03220   0.40230   0.93440   0.01267  Uiso   1.00
C47    C     0.05500   0.44180   0.00600   0.01267  Uiso   1.00
C48    C     0.02040   0.37710   0.11480   0.01267  Uiso   1.00
C49    C     0.96840   0.27390   0.15100   0.01267  Uiso   1.00
C50    C     0.11150   0.55480   0.96540   0.01267  Uiso   1.00
C51    C     0.13030   0.60820   0.02080   0.01267  Uiso   1.00
C52    C     0.18610   0.72030   0.97640   0.01267  Uiso   1.00
C53    C     0.17550   0.77340   0.04000   0.01267  Uiso   1.00
C54    C     0.21830   0.88420   0.99680   0.01267  Uiso   1.00
C55    C     0.29470   0.88220   0.83800   0.01267  Uiso   1.00
C56    C     0.24770   0.77450   0.87440   0.01267  Uiso   1.00
N1     N     0.61420   0.92310   0.25640   0.01267  Uiso   1.00
N2     N     0.77730   0.83310   0.10360   0.01267  Uiso   1.00
N3     N     0.11420   0.17950   0.74360   0.01267  Uiso   1.00
N4     N     0.27730   0.93670   0.89640   0.01267  Uiso   1.00
O1     O     0.54650   0.07070   0.76240   0.01267  Uiso   1.00
O2     O     0.41060   0.10980   0.61680   0.01267  Uiso   1.00
O3     O     0.37920   0.13550   0.94180   0.01267  Uiso   1.00
O4     O     0.37100   0.28140   0.77860   0.01267  Uiso   1.00
O5     O     0.04650   0.83310   0.23760   0.01267  Uiso   1.00
O6     O     0.91060   0.72660   0.38320   0.01267  Uiso   1.00
O7     O     0.87920   0.07730   0.05820   0.01267  Uiso   1.00
O8     O     0.87100   0.06000   0.22140   0.01267  Uiso   1.00
