data_UVEVAT_clean
_audit_creation_date              2014-07-02
_audit_creation_method            'Materials Studio'
_symmetry_space_group_name_H-M    'P1'
_symmetry_Int_Tables_number       1
_symmetry_cell_setting            triclinic
loop_
_symmetry_equiv_pos_as_xyz
  x,y,z
_cell_length_a                    12.2862
_cell_length_b                    14.9471
_cell_length_c                    20.8959
_cell_angle_alpha                 90.0000
_cell_angle_beta                  90.0000
_cell_angle_gamma                 90.0000
loop_
_atom_site_label
_atom_site_type_symbol
_atom_site_fract_x
_atom_site_fract_y
_atom_site_fract_z
_atom_site_U_iso_or_equiv
_atom_site_adp_type
_atom_site_occupancy
Mn1    Mn    0.91569   0.62456   0.30633   0.01267  Uiso   1.00
Mn2    Mn    0.58431   0.87544   0.80633   0.01267  Uiso   1.00
Mn3    Mn    0.08431   0.62456   0.19367   0.01267  Uiso   1.00
Mn4    Mn    0.41569   0.87544   0.69367   0.01267  Uiso   1.00
Mn5    Mn    0.08431   0.37544   0.69367   0.01267  Uiso   1.00
Mn6    Mn    0.41569   0.12456   0.19367   0.01267  Uiso   1.00
Mn7    Mn    0.91569   0.37544   0.80633   0.01267  Uiso   1.00
Mn8    Mn    0.58431   0.12456   0.30633   0.01267  Uiso   1.00
H1     H     0.59990   0.61950   0.46000   0.01267  Uiso   1.00
H2     H     0.91690   0.64000   0.46460   0.01267  Uiso   1.00
H3     H     0.86820   0.52970   0.56880   0.01267  Uiso   1.00
H4     H     0.74560   0.62560   0.73310   0.01267  Uiso   1.00
H5     H     0.64050   0.72350   0.56530   0.01267  Uiso   1.00
H6     H     0.90010   0.88050   0.96000   0.01267  Uiso   1.00
H7     H     0.58310   0.86000   0.96460   0.01267  Uiso   1.00
H8     H     0.63180   0.97030   0.06880   0.01267  Uiso   1.00
H9     H     0.75440   0.87440   0.23310   0.01267  Uiso   1.00
H10    H     0.85950   0.77650   0.06530   0.01267  Uiso   1.00
H11    H     0.40010   0.61950   0.04000   0.01267  Uiso   1.00
H12    H     0.08310   0.64000   0.03540   0.01267  Uiso   1.00
H13    H     0.13180   0.52970   0.93120   0.01267  Uiso   1.00
H14    H     0.25440   0.62560   0.76690   0.01267  Uiso   1.00
H15    H     0.35950   0.72350   0.93470   0.01267  Uiso   1.00
H16    H     0.09990   0.88050   0.54000   0.01267  Uiso   1.00
H17    H     0.41690   0.86000   0.53540   0.01267  Uiso   1.00
H18    H     0.36820   0.97030   0.43120   0.01267  Uiso   1.00
H19    H     0.24560   0.87440   0.26690   0.01267  Uiso   1.00
H20    H     0.14050   0.77650   0.43470   0.01267  Uiso   1.00
H21    H     0.40010   0.38050   0.54000   0.01267  Uiso   1.00
H22    H     0.08310   0.36000   0.53540   0.01267  Uiso   1.00
H23    H     0.13180   0.47030   0.43120   0.01267  Uiso   1.00
H24    H     0.25440   0.37440   0.26690   0.01267  Uiso   1.00
H25    H     0.35950   0.27650   0.43470   0.01267  Uiso   1.00
H26    H     0.09990   0.11950   0.04000   0.01267  Uiso   1.00
H27    H     0.41690   0.14000   0.03540   0.01267  Uiso   1.00
H28    H     0.36820   0.02970   0.93120   0.01267  Uiso   1.00
H29    H     0.24560   0.12560   0.76690   0.01267  Uiso   1.00
H30    H     0.14050   0.22350   0.93470   0.01267  Uiso   1.00
H31    H     0.59990   0.38050   0.96000   0.01267  Uiso   1.00
H32    H     0.91690   0.36000   0.96460   0.01267  Uiso   1.00
H33    H     0.86820   0.47030   0.06880   0.01267  Uiso   1.00
H34    H     0.74560   0.37440   0.23310   0.01267  Uiso   1.00
H35    H     0.64050   0.27650   0.06530   0.01267  Uiso   1.00
H36    H     0.90010   0.11950   0.46000   0.01267  Uiso   1.00
H37    H     0.58310   0.14000   0.46460   0.01267  Uiso   1.00
H38    H     0.63180   0.02970   0.56880   0.01267  Uiso   1.00
H39    H     0.75440   0.12560   0.73310   0.01267  Uiso   1.00
H40    H     0.85950   0.22350   0.56530   0.01267  Uiso   1.00
C1     C     0.67260   0.61860   0.44750   0.01267  Uiso   1.00
C2     C     0.84600   0.63080   0.45040   0.01267  Uiso   1.00
C3     C     0.75370   0.62320   0.55710   0.01267  Uiso   1.00
C4     C     0.82010   0.56720   0.59030   0.01267  Uiso   1.00
C5     C     0.81500   0.56690   0.65750   0.01267  Uiso   1.00
C6     C     0.74830   0.62580   0.68870   0.01267  Uiso   1.00
C7     C     0.68420   0.68630   0.65410   0.01267  Uiso   1.00
C8     C     0.61260   0.75310   0.68960   0.01267  Uiso   1.00
C9     C     0.68460   0.68480   0.58860   0.01267  Uiso   1.00
C10    C     0.88030   0.49900   0.69360   0.01267  Uiso   1.00
C11    C     0.82740   0.88140   0.94750   0.01267  Uiso   1.00
C12    C     0.65400   0.86920   0.95040   0.01267  Uiso   1.00
C13    C     0.74630   0.87680   0.05710   0.01267  Uiso   1.00
C14    C     0.67990   0.93280   0.09030   0.01267  Uiso   1.00
C15    C     0.68500   0.93310   0.15750   0.01267  Uiso   1.00
C16    C     0.75170   0.87420   0.18870   0.01267  Uiso   1.00
C17    C     0.81580   0.81370   0.15410   0.01267  Uiso   1.00
C18    C     0.88740   0.74690   0.18960   0.01267  Uiso   1.00
C19    C     0.81540   0.81520   0.08860   0.01267  Uiso   1.00
C20    C     0.61970   0.00100   0.19360   0.01267  Uiso   1.00
C21    C     0.32740   0.61860   0.05250   0.01267  Uiso   1.00
C22    C     0.15400   0.63080   0.04960   0.01267  Uiso   1.00
C23    C     0.24630   0.62320   0.94290   0.01267  Uiso   1.00
C24    C     0.17990   0.56720   0.90970   0.01267  Uiso   1.00
C25    C     0.18500   0.56690   0.84250   0.01267  Uiso   1.00
C26    C     0.25170   0.62580   0.81130   0.01267  Uiso   1.00
C27    C     0.31580   0.68630   0.84590   0.01267  Uiso   1.00
C28    C     0.38740   0.75310   0.81040   0.01267  Uiso   1.00
C29    C     0.31540   0.68480   0.91140   0.01267  Uiso   1.00
C30    C     0.11970   0.49900   0.80640   0.01267  Uiso   1.00
C31    C     0.17260   0.88140   0.55250   0.01267  Uiso   1.00
C32    C     0.34600   0.86920   0.54960   0.01267  Uiso   1.00
C33    C     0.25370   0.87680   0.44290   0.01267  Uiso   1.00
C34    C     0.32010   0.93280   0.40970   0.01267  Uiso   1.00
C35    C     0.31500   0.93310   0.34250   0.01267  Uiso   1.00
C36    C     0.24830   0.87420   0.31130   0.01267  Uiso   1.00
C37    C     0.18420   0.81370   0.34590   0.01267  Uiso   1.00
C38    C     0.11260   0.74690   0.31040   0.01267  Uiso   1.00
C39    C     0.18460   0.81520   0.41140   0.01267  Uiso   1.00
C40    C     0.38030   0.00100   0.30640   0.01267  Uiso   1.00
C41    C     0.32740   0.38140   0.55250   0.01267  Uiso   1.00
C42    C     0.15400   0.36920   0.54960   0.01267  Uiso   1.00
C43    C     0.24630   0.37680   0.44290   0.01267  Uiso   1.00
C44    C     0.17990   0.43280   0.40970   0.01267  Uiso   1.00
C45    C     0.18500   0.43310   0.34250   0.01267  Uiso   1.00
C46    C     0.25170   0.37420   0.31130   0.01267  Uiso   1.00
C47    C     0.31580   0.31370   0.34590   0.01267  Uiso   1.00
C48    C     0.38740   0.24690   0.31040   0.01267  Uiso   1.00
C49    C     0.31540   0.31520   0.41140   0.01267  Uiso   1.00
C50    C     0.11970   0.50100   0.30640   0.01267  Uiso   1.00
C51    C     0.17260   0.11860   0.05250   0.01267  Uiso   1.00
C52    C     0.34600   0.13080   0.04960   0.01267  Uiso   1.00
C53    C     0.25370   0.12320   0.94290   0.01267  Uiso   1.00
C54    C     0.32010   0.06720   0.90970   0.01267  Uiso   1.00
C55    C     0.31500   0.06690   0.84250   0.01267  Uiso   1.00
C56    C     0.24830   0.12580   0.81130   0.01267  Uiso   1.00
C57    C     0.18420   0.18630   0.84590   0.01267  Uiso   1.00
C58    C     0.11260   0.25310   0.81040   0.01267  Uiso   1.00
C59    C     0.18460   0.18480   0.91140   0.01267  Uiso   1.00
C60    C     0.38030   0.99900   0.80640   0.01267  Uiso   1.00
C61    C     0.67260   0.38140   0.94750   0.01267  Uiso   1.00
C62    C     0.84600   0.36920   0.95040   0.01267  Uiso   1.00
C63    C     0.75370   0.37680   0.05710   0.01267  Uiso   1.00
C64    C     0.82010   0.43280   0.09030   0.01267  Uiso   1.00
C65    C     0.81500   0.43310   0.15750   0.01267  Uiso   1.00
C66    C     0.74830   0.37420   0.18870   0.01267  Uiso   1.00
C67    C     0.68420   0.31370   0.15410   0.01267  Uiso   1.00
C68    C     0.61260   0.24690   0.18960   0.01267  Uiso   1.00
C69    C     0.68460   0.31520   0.08860   0.01267  Uiso   1.00
C70    C     0.88030   0.50100   0.19360   0.01267  Uiso   1.00
C71    C     0.82740   0.11860   0.44750   0.01267  Uiso   1.00
C72    C     0.65400   0.13080   0.45040   0.01267  Uiso   1.00
C73    C     0.74630   0.12320   0.55710   0.01267  Uiso   1.00
C74    C     0.67990   0.06720   0.59030   0.01267  Uiso   1.00
C75    C     0.68500   0.06690   0.65750   0.01267  Uiso   1.00
C76    C     0.75170   0.12580   0.68870   0.01267  Uiso   1.00
C77    C     0.81580   0.18630   0.65410   0.01267  Uiso   1.00
C78    C     0.88740   0.25310   0.68960   0.01267  Uiso   1.00
C79    C     0.81540   0.18480   0.58860   0.01267  Uiso   1.00
C80    C     0.61970   0.99900   0.69360   0.01267  Uiso   1.00
N1     N     0.75710   0.62330   0.48860   0.01267  Uiso   1.00
N2     N     0.81670   0.62320   0.39080   0.01267  Uiso   1.00
N3     N     0.70460   0.61250   0.38880   0.01267  Uiso   1.00
N4     N     0.74290   0.87670   0.98860   0.01267  Uiso   1.00
N5     N     0.68330   0.87680   0.89080   0.01267  Uiso   1.00
N6     N     0.79540   0.88750   0.88880   0.01267  Uiso   1.00
N7     N     0.24290   0.62330   0.01140   0.01267  Uiso   1.00
N8     N     0.18330   0.62320   0.10920   0.01267  Uiso   1.00
N9     N     0.29540   0.61250   0.11120   0.01267  Uiso   1.00
N10    N     0.25710   0.87670   0.51140   0.01267  Uiso   1.00
N11    N     0.31670   0.87680   0.60920   0.01267  Uiso   1.00
N12    N     0.20460   0.88750   0.61120   0.01267  Uiso   1.00
N13    N     0.24290   0.37670   0.51140   0.01267  Uiso   1.00
N14    N     0.18330   0.37680   0.60920   0.01267  Uiso   1.00
N15    N     0.29540   0.38750   0.61120   0.01267  Uiso   1.00
N16    N     0.25710   0.12330   0.01140   0.01267  Uiso   1.00
N17    N     0.31670   0.12320   0.10920   0.01267  Uiso   1.00
N18    N     0.20460   0.11250   0.11120   0.01267  Uiso   1.00
N19    N     0.75710   0.37670   0.98860   0.01267  Uiso   1.00
N20    N     0.81670   0.37680   0.89080   0.01267  Uiso   1.00
N21    N     0.70460   0.38750   0.88880   0.01267  Uiso   1.00
N22    N     0.74290   0.12330   0.48860   0.01267  Uiso   1.00
N23    N     0.68330   0.12320   0.39080   0.01267  Uiso   1.00
N24    N     0.79540   0.11250   0.38880   0.01267  Uiso   1.00
O1     O     0.64350   0.77610   0.74330   0.01267  Uiso   1.00
O2     O     0.53050   0.78060   0.66060   0.01267  Uiso   1.00
O3     O     0.84920   0.47720   0.74830   0.01267  Uiso   1.00
O4     O     0.96280   0.46870   0.66580   0.01267  Uiso   1.00
O5     O     0.85650   0.72390   0.24330   0.01267  Uiso   1.00
O6     O     0.96950   0.71940   0.16060   0.01267  Uiso   1.00
O7     O     0.65080   0.02280   0.24830   0.01267  Uiso   1.00
O8     O     0.53720   0.03130   0.16580   0.01267  Uiso   1.00
O9     O     0.35650   0.77610   0.75670   0.01267  Uiso   1.00
O10    O     0.46950   0.78060   0.83940   0.01267  Uiso   1.00
O11    O     0.15080   0.47720   0.75170   0.01267  Uiso   1.00
O12    O     0.03720   0.46870   0.83420   0.01267  Uiso   1.00
O13    O     0.14350   0.72390   0.25670   0.01267  Uiso   1.00
O14    O     0.03050   0.71940   0.33940   0.01267  Uiso   1.00
O15    O     0.34920   0.02280   0.25170   0.01267  Uiso   1.00
O16    O     0.46280   0.03130   0.33420   0.01267  Uiso   1.00
O17    O     0.35650   0.22390   0.25670   0.01267  Uiso   1.00
O18    O     0.46950   0.21940   0.33940   0.01267  Uiso   1.00
O19    O     0.15080   0.52280   0.25170   0.01267  Uiso   1.00
O20    O     0.03720   0.53130   0.33420   0.01267  Uiso   1.00
O21    O     0.14350   0.27610   0.75670   0.01267  Uiso   1.00
O22    O     0.03050   0.28060   0.83940   0.01267  Uiso   1.00
O23    O     0.34920   0.97720   0.75170   0.01267  Uiso   1.00
O24    O     0.46280   0.96870   0.83420   0.01267  Uiso   1.00
O25    O     0.64350   0.22390   0.24330   0.01267  Uiso   1.00
O26    O     0.53050   0.21940   0.16060   0.01267  Uiso   1.00
O27    O     0.84920   0.52280   0.24830   0.01267  Uiso   1.00
O28    O     0.96280   0.53130   0.16580   0.01267  Uiso   1.00
O29    O     0.85650   0.27610   0.74330   0.01267  Uiso   1.00
O30    O     0.96950   0.28060   0.66060   0.01267  Uiso   1.00
O31    O     0.65080   0.97720   0.74830   0.01267  Uiso   1.00
O32    O     0.53720   0.96870   0.66580   0.01267  Uiso   1.00
