data_UVEWIC01_clean
_audit_creation_date              2014-07-02
_audit_creation_method            'Materials Studio'
_symmetry_space_group_name_H-M    'P1'
_symmetry_Int_Tables_number       1
_symmetry_cell_setting            triclinic
loop_
_symmetry_equiv_pos_as_xyz
  x,y,z
_cell_length_a                    10.4590
_cell_length_b                    10.4600
_cell_length_c                    11.5400
_cell_angle_alpha                 83.1590
_cell_angle_beta                  82.1200
_cell_angle_gamma                 88.9640
loop_
_atom_site_label
_atom_site_type_symbol
_atom_site_fract_x
_atom_site_fract_y
_atom_site_fract_z
_atom_site_U_iso_or_equiv
_atom_site_adp_type
_atom_site_occupancy
Mn1    Mn    0.25187   0.69491   0.88363   0.01267  Uiso   1.00
Mn2    Mn    0.20248   0.76430   0.38654   0.01267  Uiso   1.00
Mn3    Mn    0.74813   0.30509   0.11637   0.01267  Uiso   1.00
Mn4    Mn    0.79752   0.23570   0.61346   0.01267  Uiso   1.00
Nb1    Nb    0.22485   0.27952   0.24797   0.01267  Uiso   1.00
Nb2    Nb    0.77515   0.72048   0.75203   0.01267  Uiso   1.00
C1     C     0.27270   0.15840   0.09700   0.01267  Uiso   1.00
C2     C     0.06220   0.25750   0.40360   0.01267  Uiso   1.00
C3     C     0.19860   0.47390   0.30830   0.01267  Uiso   1.00
C4     C     0.23150   0.07380   0.32460   0.01267  Uiso   1.00
C5     C     0.43500   0.31590   0.18710   0.01267  Uiso   1.00
C6     C     0.04140   0.26090   0.17200   0.01267  Uiso   1.00
C7     C     0.23110   0.42990   0.08850   0.01267  Uiso   1.00
C8     C     0.33340   0.27490   0.40550   0.01267  Uiso   1.00
C9     C     0.72730   0.84160   0.90300   0.01267  Uiso   1.00
C10    C     0.93780   0.74250   0.59640   0.01267  Uiso   1.00
C11    C     0.80140   0.52610   0.69170   0.01267  Uiso   1.00
C12    C     0.76850   0.92620   0.67540   0.01267  Uiso   1.00
C13    C     0.56500   0.68410   0.81290   0.01267  Uiso   1.00
C14    C     0.95860   0.73910   0.82800   0.01267  Uiso   1.00
C15    C     0.76890   0.57010   0.91150   0.01267  Uiso   1.00
C16    C     0.66660   0.72510   0.59450   0.01267  Uiso   1.00
N1     N     0.40050   0.27430   0.47530   0.01267  Uiso   1.00
N2     N     0.97490   0.24460   0.47620   0.01267  Uiso   1.00
N3     N     0.23150   0.96920   0.37040   0.01267  Uiso   1.00
N4     N     0.23100   0.51760   0.01570   0.01267  Uiso   1.00
N5     N     0.95170   0.26310   0.12370   0.01267  Uiso   1.00
N6     N     0.18470   0.56880   0.34830   0.01267  Uiso   1.00
N7     N     0.54140   0.33110   0.15260   0.01267  Uiso   1.00
N8     N     0.29350   0.08440   0.03120   0.01267  Uiso   1.00
N9     N     0.59950   0.72570   0.52470   0.01267  Uiso   1.00
N10    N     0.02510   0.75540   0.52380   0.01267  Uiso   1.00
N11    N     0.76850   0.03080   0.62960   0.01267  Uiso   1.00
N12    N     0.76900   0.48240   0.98430   0.01267  Uiso   1.00
N13    N     0.04830   0.73690   0.87630   0.01267  Uiso   1.00
N14    N     0.81530   0.43120   0.65170   0.01267  Uiso   1.00
N15    N     0.45860   0.66890   0.84740   0.01267  Uiso   1.00
N16    N     0.70650   0.91560   0.96880   0.01267  Uiso   1.00
