data_UVEWIC_clean
_audit_creation_date              2014-07-02
_audit_creation_method            'Materials Studio'
_symmetry_space_group_name_H-M    'P1'
_symmetry_Int_Tables_number       1
_symmetry_cell_setting            triclinic
loop_
_symmetry_equiv_pos_as_xyz
  x,y,z
_cell_length_a                    10.4500
_cell_length_b                    10.4500
_cell_length_c                    22.7360
_cell_angle_alpha                 90.0000
_cell_angle_beta                  90.0000
_cell_angle_gamma                 90.0000
loop_
_atom_site_label
_atom_site_type_symbol
_atom_site_fract_x
_atom_site_fract_y
_atom_site_fract_z
_atom_site_U_iso_or_equiv
_atom_site_adp_type
_atom_site_occupancy
Mn1    Mn    0.57161   0.44163   0.30281   0.01267  Uiso   1.00
Mn2    Mn    0.07352   0.93986   0.16835   0.01267  Uiso   1.00
Mn3    Mn    0.42839   0.55837   0.80281   0.01267  Uiso   1.00
Mn4    Mn    0.92648   0.06014   0.66835   0.01267  Uiso   1.00
Mn5    Mn    0.55837   0.57161   0.05281   0.01267  Uiso   1.00
Mn6    Mn    0.06014   0.07352   0.91835   0.01267  Uiso   1.00
Mn7    Mn    0.44163   0.42839   0.55281   0.01267  Uiso   1.00
Mn8    Mn    0.93986   0.92648   0.41835   0.01267  Uiso   1.00
Nb1    Nb    0.57121   0.93855   0.23584   0.01267  Uiso   1.00
Nb2    Nb    0.42879   0.06145   0.73584   0.01267  Uiso   1.00
Nb3    Nb    0.06145   0.57121   0.98584   0.01267  Uiso   1.00
Nb4    Nb    0.93855   0.42879   0.48584   0.01267  Uiso   1.00
C1     C     0.37400   0.95860   0.19860   0.01267  Uiso   1.00
C2     C     0.77300   0.92060   0.20450   0.01267  Uiso   1.00
C3     C     0.58690   0.07110   0.15720   0.01267  Uiso   1.00
C4     C     0.56090   0.79950   0.15960   0.01267  Uiso   1.00
C5     C     0.70180   0.92470   0.31700   0.01267  Uiso   1.00
C6     C     0.43100   0.96310   0.31060   0.01267  Uiso   1.00
C7     C     0.54290   0.74340   0.27360   0.01267  Uiso   1.00
C8     C     0.59800   0.13870   0.26660   0.01267  Uiso   1.00
C9     C     0.62600   0.04140   0.69860   0.01267  Uiso   1.00
C10    C     0.22700   0.07940   0.70450   0.01267  Uiso   1.00
C11    C     0.41310   0.92890   0.65720   0.01267  Uiso   1.00
C12    C     0.43910   0.20050   0.65960   0.01267  Uiso   1.00
C13    C     0.29820   0.07530   0.81700   0.01267  Uiso   1.00
C14    C     0.56900   0.03690   0.81060   0.01267  Uiso   1.00
C15    C     0.45710   0.25660   0.77360   0.01267  Uiso   1.00
C16    C     0.40200   0.86130   0.76660   0.01267  Uiso   1.00
C17    C     0.04140   0.37400   0.94860   0.01267  Uiso   1.00
C18    C     0.07940   0.77300   0.95450   0.01267  Uiso   1.00
C19    C     0.92890   0.58690   0.90720   0.01267  Uiso   1.00
C20    C     0.20050   0.56090   0.90960   0.01267  Uiso   1.00
C21    C     0.07530   0.70180   0.06700   0.01267  Uiso   1.00
C22    C     0.03690   0.43100   0.06060   0.01267  Uiso   1.00
C23    C     0.25660   0.54290   0.02360   0.01267  Uiso   1.00
C24    C     0.86130   0.59800   0.01660   0.01267  Uiso   1.00
C25    C     0.95860   0.62600   0.44860   0.01267  Uiso   1.00
C26    C     0.92060   0.22700   0.45450   0.01267  Uiso   1.00
C27    C     0.07110   0.41310   0.40720   0.01267  Uiso   1.00
C28    C     0.79950   0.43910   0.40960   0.01267  Uiso   1.00
C29    C     0.92470   0.29820   0.56700   0.01267  Uiso   1.00
C30    C     0.96310   0.56900   0.56060   0.01267  Uiso   1.00
C31    C     0.74340   0.45710   0.52360   0.01267  Uiso   1.00
C32    C     0.13870   0.40200   0.51660   0.01267  Uiso   1.00
N1     N     0.55180   0.72230   0.12220   0.01267  Uiso   1.00
N2     N     0.77720   0.91780   0.35220   0.01267  Uiso   1.00
N3     N     0.59660   0.15220   0.12320   0.01267  Uiso   1.00
N4     N     0.87360   0.91400   0.18560   0.01267  Uiso   1.00
N5     N     0.34850   0.97120   0.34310   0.01267  Uiso   1.00
N6     N     0.27660   0.96780   0.17590   0.01267  Uiso   1.00
N7     N     0.53270   0.64650   0.29760   0.01267  Uiso   1.00
N8     N     0.60760   0.24010   0.28450   0.01267  Uiso   1.00
N9     N     0.44820   0.27770   0.62220   0.01267  Uiso   1.00
N10    N     0.22280   0.08220   0.85220   0.01267  Uiso   1.00
N11    N     0.40340   0.84780   0.62320   0.01267  Uiso   1.00
N12    N     0.12640   0.08600   0.68560   0.01267  Uiso   1.00
N13    N     0.65150   0.02880   0.84310   0.01267  Uiso   1.00
N14    N     0.72340   0.03220   0.67590   0.01267  Uiso   1.00
N15    N     0.46730   0.35350   0.79760   0.01267  Uiso   1.00
N16    N     0.39240   0.75990   0.78450   0.01267  Uiso   1.00
N17    N     0.27770   0.55180   0.87220   0.01267  Uiso   1.00
N18    N     0.08220   0.77720   0.10220   0.01267  Uiso   1.00
N19    N     0.84780   0.59660   0.87320   0.01267  Uiso   1.00
N20    N     0.08600   0.87360   0.93560   0.01267  Uiso   1.00
N21    N     0.02880   0.34850   0.09310   0.01267  Uiso   1.00
N22    N     0.03220   0.27660   0.92590   0.01267  Uiso   1.00
N23    N     0.35350   0.53270   0.04760   0.01267  Uiso   1.00
N24    N     0.75990   0.60760   0.03450   0.01267  Uiso   1.00
N25    N     0.72230   0.44820   0.37220   0.01267  Uiso   1.00
N26    N     0.91780   0.22280   0.60220   0.01267  Uiso   1.00
N27    N     0.15220   0.40340   0.37320   0.01267  Uiso   1.00
N28    N     0.91400   0.12640   0.43560   0.01267  Uiso   1.00
N29    N     0.97120   0.65150   0.59310   0.01267  Uiso   1.00
N30    N     0.96780   0.72340   0.42590   0.01267  Uiso   1.00
N31    N     0.64650   0.46730   0.54760   0.01267  Uiso   1.00
N32    N     0.24010   0.39240   0.53450   0.01267  Uiso   1.00
