data_image0
_cell_length_a       11.5084
_cell_length_b       12.7158
_cell_length_c       14.5387
_cell_angle_alpha    94.241
_cell_angle_beta     109.066
_cell_angle_gamma    115.603

_symmetry_space_group_name_H-M    "P 1"
_symmetry_int_tables_number       1

loop_
  _symmetry_equiv_pos_as_xyz
  'x, y, z'

loop_
  _atom_site_label
  _atom_site_occupancy
  _atom_site_fract_x
  _atom_site_fract_y
  _atom_site_fract_z
  _atom_site_thermal_displace_type
  _atom_site_B_iso_or_equiv
  _atom_site_type_symbol
  Ce1      1.0000 0.38220  0.45220  0.83177  Biso   1.000  Ce
  Ce2      1.0000 0.23327  0.52404  0.44113  Biso   1.000  Ce
  Mo1      1.0000 0.34935  0.75832  0.88641  Biso   1.000  Mo
  Mo2      1.0000 0.37236  0.92513  0.72719  Biso   1.000  Mo
  Mo3      1.0000 0.37730  0.12519  0.88323  Biso   1.000  Mo
  Mo4      1.0000 0.64688  0.04335  0.96194  Biso   1.000  Mo
  N1       1.0000 0.60870  0.65160  0.83990  Biso   1.000  N
  N2       1.0000 0.17630  0.56980  0.26400  Biso   1.000  N
  O1       1.0000 0.37100  0.53920  0.67790  Biso   1.000  O
  O2       1.0000 0.46550  0.65140  0.58640  Biso   1.000  O
  O3       1.0000 0.61600  0.54790  0.98860  Biso   1.000  O
  O4       1.0000 0.80880  0.70730  0.09670  Biso   1.000  O
  O5       1.0000 0.00490  0.52300  0.35540  Biso   1.000  O
  O6       1.0000 0.85720  0.55930  0.23870  Biso   1.000  O
  O7       1.0000 0.40860  0.56160  0.36490  Biso   1.000  O
  O8       1.0000 0.48680  0.60320  0.24440  Biso   1.000  O
  O9       1.0000 0.39610  0.95240  0.90270  Biso   1.000  O
  O10      1.0000 0.38930  0.79210  0.77230  Biso   1.000  O
  O11      1.0000 0.38190  0.63970  0.89800  Biso   1.000  O
  O12      1.0000 0.41500  0.08770  0.77120  Biso   1.000  O
  O13      1.0000 0.60580  0.01590  0.83290  Biso   1.000  O
  O14      1.0000 0.61370  0.18070  0.97320  Biso   1.000  O
  O15      1.0000 0.40710  0.11980  0.02530  Biso   1.000  O
  O16      1.0000 0.42140  0.27370  0.89050  Biso   1.000  O
  C1       1.0000 0.47080  0.62480  0.66810  Biso   1.000  C
  C2       1.0000 0.60710  0.69880  0.75990  Biso   1.000  C
  C3       1.0000 0.71780  0.80190  0.76020  Biso   1.000  C
  H1       1.0000 0.71160  0.83170  0.70330  Biso   1.000  H
  C4       1.0000 0.83730  0.85930  0.84700  Biso   1.000  C
  H2       1.0000 0.91400  0.92930  0.84990  Biso   1.000  H
  C5       1.0000 0.84310  0.81260  0.92960  Biso   1.000  C
  H3       1.0000 0.92440  0.85000  0.98840  Biso   1.000  H
  C6       1.0000 0.72750  0.70990  0.92490  Biso   1.000  C
  C7       1.0000 0.72020  0.65460  0.00950  Biso   1.000  C
  C8       1.0000 0.96530  0.55090  0.27360  Biso   1.000  C
  C9       1.0000 0.06180  0.57680  0.21850  Biso   1.000  C
  C10      1.0000 0.03380  0.60940  0.12710  Biso   1.000  C
  H4       1.0000 0.95390  0.61690  0.09740  Biso   1.000  H
  C11      1.0000 0.12680  0.63000  0.08260  Biso   1.000  C
  H5       1.0000 0.10940  0.65030  0.02130  Biso   1.000  H
  C12      1.0000 0.24850  0.62050  0.12940  Biso   1.000  C
  H6       1.0000 0.31260  0.63330  0.10010  Biso   1.000  H
  C13      1.0000 0.26830  0.59140  0.22110  Biso   1.000  C
  C14      1.0000 0.39870  0.58440  0.28100  Biso   1.000  C
  Ce3      1.0000 0.61780  0.54780  0.16823  Biso   1.000  Ce
  Ce4      1.0000 0.76673  0.47596  0.55887  Biso   1.000  Ce
  Mo5      1.0000 0.65065  0.24168  0.11359  Biso   1.000  Mo
  Mo6      1.0000 0.62764  0.07487  0.27281  Biso   1.000  Mo
  Mo7      1.0000 0.62270  0.87481  0.11677  Biso   1.000  Mo
  Mo8      1.0000 0.35312  0.95665  0.03806  Biso   1.000  Mo
  N3       1.0000 0.39130  0.34840  0.16010  Biso   1.000  N
  N4       1.0000 0.82370  0.43020  0.73600  Biso   1.000  N
  O17      1.0000 0.62900  0.46080  0.32210  Biso   1.000  O
  O18      1.0000 0.53450  0.34860  0.41360  Biso   1.000  O
  O19      1.0000 0.38400  0.45210  0.01140  Biso   1.000  O
  O20      1.0000 0.19120  0.29270  0.90330  Biso   1.000  O
  O21      1.0000 0.99510  0.47700  0.64460  Biso   1.000  O
  O22      1.0000 0.14280  0.44070  0.76130  Biso   1.000  O
  O23      1.0000 0.59140  0.43840  0.63510  Biso   1.000  O
  O24      1.0000 0.51320  0.39680  0.75560  Biso   1.000  O
  O25      1.0000 0.60390  0.04760  0.09730  Biso   1.000  O
  O26      1.0000 0.61070  0.20790  0.22770  Biso   1.000  O
  O27      1.0000 0.61810  0.36030  0.10200  Biso   1.000  O
  O28      1.0000 0.58500  0.91230  0.22880  Biso   1.000  O
  O29      1.0000 0.39420  0.98410  0.16710  Biso   1.000  O
  O30      1.0000 0.38630  0.81930  0.02680  Biso   1.000  O
  O31      1.0000 0.59290  0.88020  0.97470  Biso   1.000  O
  O32      1.0000 0.57860  0.72630  0.10950  Biso   1.000  O
  C15      1.0000 0.52920  0.37520  0.33190  Biso   1.000  C
  C16      1.0000 0.39290  0.30120  0.24010  Biso   1.000  C
  C17      1.0000 0.28220  0.19810  0.23980  Biso   1.000  C
  H7       1.0000 0.28840  0.16830  0.29670  Biso   1.000  H
  C18      1.0000 0.16270  0.14070  0.15300  Biso   1.000  C
  H8       1.0000 0.08600  0.07070  0.15010  Biso   1.000  H
  C19      1.0000 0.15690  0.18740  0.07040  Biso   1.000  C
  H9       1.0000 0.07560  0.15000  0.01160  Biso   1.000  H
  C20      1.0000 0.27250  0.29010  0.07510  Biso   1.000  C
  C21      1.0000 0.27980  0.34540  0.99050  Biso   1.000  C
  C22      1.0000 0.03470  0.44910  0.72640  Biso   1.000  C
  C23      1.0000 0.93820  0.42320  0.78150  Biso   1.000  C
  C24      1.0000 0.96620  0.39060  0.87290  Biso   1.000  C
  H10      1.0000 0.04610  0.38310  0.90260  Biso   1.000  H
  C25      1.0000 0.87320  0.37000  0.91740  Biso   1.000  C
  H11      1.0000 0.89060  0.34970  0.97870  Biso   1.000  H
  C26      1.0000 0.75150  0.37950  0.87060  Biso   1.000  C
  H12      1.0000 0.68740  0.36670  0.89990  Biso   1.000  H
  C27      1.0000 0.73170  0.40860  0.77890  Biso   1.000  C
  C28      1.0000 0.60130  0.41560  0.71900  Biso   1.000  C
