data_image0
_cell_length_a       29.074
_cell_length_b       29.074
_cell_length_c       13.854
_cell_angle_alpha    90
_cell_angle_beta     90
_cell_angle_gamma    90

_symmetry_space_group_name_H-M    "P 1"
_symmetry_int_tables_number       1

loop_
  _symmetry_equiv_pos_as_xyz
  'x, y, z'

loop_
  _atom_site_label
  _atom_site_occupancy
  _atom_site_fract_x
  _atom_site_fract_y
  _atom_site_fract_z
  _atom_site_thermal_displace_type
  _atom_site_B_iso_or_equiv
  _atom_site_type_symbol
  C1       1.0000 0.76710  0.13220  0.49610  Biso   1.000  C
  C2       1.0000 0.77650  0.42770  0.69520  Biso   1.000  C
  C3       1.0000 0.77000  0.18310  0.50540  Biso   1.000  C
  C4       1.0000 0.78490  0.20820  0.42690  Biso   1.000  C
  H1       1.0000 0.79410  0.19270  0.37140  Biso   1.000  H
  C5       1.0000 0.78660  0.25680  0.42820  Biso   1.000  C
  H2       1.0000 0.79840  0.27330  0.37640  Biso   1.000  H
  C6       1.0000 0.76970  0.27910  0.51020  Biso   1.000  C
  C7       1.0000 0.75660  0.25440  0.58930  Biso   1.000  C
  H3       1.0000 0.74770  0.27000  0.64480  Biso   1.000  H
  C8       1.0000 0.75640  0.20690  0.58930  Biso   1.000  C
  C9       1.0000 0.76780  0.33080  0.51280  Biso   1.000  C
  C10      1.0000 0.75480  0.35450  0.43180  Biso   1.000  C
  H4       1.0000 0.75060  0.33890  0.37380  Biso   1.000  H
  C11      1.0000 0.74790  0.40270  0.43610  Biso   1.000  C
  C12      1.0000 0.75410  0.42440  0.52210  Biso   1.000  C
  H5       1.0000 0.74860  0.45580  0.52510  Biso   1.000  H
  C13      1.0000 0.76800  0.40240  0.60420  Biso   1.000  C
  C14      1.0000 0.77550  0.35470  0.59940  Biso   1.000  C
  H6       1.0000 0.78570  0.33890  0.65370  Biso   1.000  H
  C15      1.0000 0.73500  0.42630  0.34630  Biso   1.000  C
  O1       1.0000 0.74920  0.11050  0.56850  Biso   1.000  O
  O2       1.0000 0.78140  0.11230  0.42330  Biso   1.000  O
  O3       1.0000 0.74600  0.41090  0.26680  Biso   1.000  O
  O4       1.0000 0.71400  0.46570  0.34870  Biso   1.000  O
  O5       1.0000 0.77310  0.47060  0.69700  Biso   1.000  O
  O6       1.0000 0.79060  0.40580  0.76920  Biso   1.000  O
  O7       1.0000 0.74000  0.18540  0.67160  Biso   1.000  O
  H7       1.0000 0.73970  0.15750  0.66320  Biso   1.000  H
  Tb1      1.0000 0.70515  0.04455  0.59524  Biso   1.000  Tb
  C16      1.0000 0.26710  0.63220  0.99610  Biso   1.000  C
  C17      1.0000 0.27650  0.92770  0.19520  Biso   1.000  C
  C18      1.0000 0.27000  0.68310  0.00540  Biso   1.000  C
  C19      1.0000 0.28490  0.70820  0.92690  Biso   1.000  C
  H8       1.0000 0.29410  0.69270  0.87140  Biso   1.000  H
  C20      1.0000 0.28660  0.75680  0.92820  Biso   1.000  C
  H9       1.0000 0.29840  0.77330  0.87640  Biso   1.000  H
  C21      1.0000 0.26970  0.77910  0.01020  Biso   1.000  C
  C22      1.0000 0.25660  0.75440  0.08930  Biso   1.000  C
  H10      1.0000 0.24770  0.77000  0.14480  Biso   1.000  H
  C23      1.0000 0.25640  0.70690  0.08930  Biso   1.000  C
  C24      1.0000 0.26780  0.83080  0.01280  Biso   1.000  C
  C25      1.0000 0.25480  0.85450  0.93180  Biso   1.000  C
  H11      1.0000 0.25060  0.83890  0.87380  Biso   1.000  H
  C26      1.0000 0.24790  0.90270  0.93610  Biso   1.000  C
  C27      1.0000 0.25410  0.92440  0.02210  Biso   1.000  C
  H12      1.0000 0.24860  0.95580  0.02510  Biso   1.000  H
  C28      1.0000 0.26800  0.90240  0.10420  Biso   1.000  C
  C29      1.0000 0.27550  0.85470  0.09940  Biso   1.000  C
  H13      1.0000 0.28570  0.83890  0.15370  Biso   1.000  H
  C30      1.0000 0.23500  0.92630  0.84630  Biso   1.000  C
  O8       1.0000 0.24920  0.61050  0.06850  Biso   1.000  O
  O9       1.0000 0.28140  0.61230  0.92330  Biso   1.000  O
  O10      1.0000 0.24600  0.91090  0.76680  Biso   1.000  O
  O11      1.0000 0.21400  0.96570  0.84870  Biso   1.000  O
  O12      1.0000 0.27310  0.97060  0.19700  Biso   1.000  O
  O13      1.0000 0.29060  0.90580  0.26920  Biso   1.000  O
  O14      1.0000 0.24000  0.68540  0.17160  Biso   1.000  O
  H14      1.0000 0.23970  0.65750  0.16320  Biso   1.000  H
  Tb2      1.0000 0.20515  0.54455  0.09524  Biso   1.000  Tb
  C31      1.0000 0.73290  0.86780  0.99610  Biso   1.000  C
  C32      1.0000 0.72350  0.57230  0.19520  Biso   1.000  C
  C33      1.0000 0.73000  0.81690  0.00540  Biso   1.000  C
  C34      1.0000 0.71510  0.79180  0.92690  Biso   1.000  C
  H15      1.0000 0.70590  0.80730  0.87140  Biso   1.000  H
  C35      1.0000 0.71340  0.74320  0.92820  Biso   1.000  C
  H16      1.0000 0.70160  0.72670  0.87640  Biso   1.000  H
  C36      1.0000 0.73030  0.72090  0.01020  Biso   1.000  C
  C37      1.0000 0.74340  0.74560  0.08930  Biso   1.000  C
  H17      1.0000 0.75230  0.73000  0.14480  Biso   1.000  H
  C38      1.0000 0.74360  0.79310  0.08930  Biso   1.000  C
  C39      1.0000 0.73220  0.66920  0.01280  Biso   1.000  C
  C40      1.0000 0.74520  0.64550  0.93180  Biso   1.000  C
  H18      1.0000 0.74940  0.66110  0.87380  Biso   1.000  H
  C41      1.0000 0.75210  0.59730  0.93610  Biso   1.000  C
  C42      1.0000 0.74590  0.57560  0.02210  Biso   1.000  C
  H19      1.0000 0.75140  0.54420  0.02510  Biso   1.000  H
  C43      1.0000 0.73200  0.59760  0.10420  Biso   1.000  C
  C44      1.0000 0.72450  0.64530  0.09940  Biso   1.000  C
  H20      1.0000 0.71430  0.66110  0.15370  Biso   1.000  H
  C45      1.0000 0.76500  0.57370  0.84630  Biso   1.000  C
  O15      1.0000 0.75080  0.88950  0.06850  Biso   1.000  O
  O16      1.0000 0.71860  0.88770  0.92330  Biso   1.000  O
  O17      1.0000 0.75400  0.58910  0.76680  Biso   1.000  O
  O18      1.0000 0.78600  0.53430  0.84870  Biso   1.000  O
  O19      1.0000 0.72690  0.52940  0.19700  Biso   1.000  O
  O20      1.0000 0.70940  0.59420  0.26920  Biso   1.000  O
  O21      1.0000 0.76000  0.81460  0.17160  Biso   1.000  O
  H21      1.0000 0.76030  0.84250  0.16320  Biso   1.000  H
  Tb3      1.0000 0.79485  0.95545  0.09524  Biso   1.000  Tb
  C46      1.0000 0.23290  0.36780  0.49610  Biso   1.000  C
  C47      1.0000 0.22350  0.07230  0.69520  Biso   1.000  C
  C48      1.0000 0.23000  0.31690  0.50540  Biso   1.000  C
  C49      1.0000 0.21510  0.29180  0.42690  Biso   1.000  C
  H22      1.0000 0.20590  0.30730  0.37140  Biso   1.000  H
  C50      1.0000 0.21340  0.24320  0.42820  Biso   1.000  C
  H23      1.0000 0.20160  0.22670  0.37640  Biso   1.000  H
  C51      1.0000 0.23030  0.22090  0.51020  Biso   1.000  C
  C52      1.0000 0.24340  0.24560  0.58930  Biso   1.000  C
  H24      1.0000 0.25230  0.23000  0.64480  Biso   1.000  H
  C53      1.0000 0.24360  0.29310  0.58930  Biso   1.000  C
  C54      1.0000 0.23220  0.16920  0.51280  Biso   1.000  C
  C55      1.0000 0.24520  0.14550  0.43180  Biso   1.000  C
  H25      1.0000 0.24940  0.16110  0.37380  Biso   1.000  H
  C56      1.0000 0.25210  0.09730  0.43610  Biso   1.000  C
  C57      1.0000 0.24590  0.07560  0.52210  Biso   1.000  C
  H26      1.0000 0.25140  0.04420  0.52510  Biso   1.000  H
  C58      1.0000 0.23200  0.09760  0.60420  Biso   1.000  C
  C59      1.0000 0.22450  0.14530  0.59940  Biso   1.000  C
  H27      1.0000 0.21430  0.16110  0.65370  Biso   1.000  H
  C60      1.0000 0.26500  0.07370  0.34630  Biso   1.000  C
  O22      1.0000 0.25080  0.38950  0.56850  Biso   1.000  O
  O23      1.0000 0.21860  0.38770  0.42330  Biso   1.000  O
  O24      1.0000 0.25400  0.08910  0.26680  Biso   1.000  O
  O25      1.0000 0.28600  0.03430  0.34870  Biso   1.000  O
  O26      1.0000 0.22690  0.02940  0.69700  Biso   1.000  O
  O27      1.0000 0.20940  0.09420  0.76920  Biso   1.000  O
  O28      1.0000 0.26000  0.31460  0.67160  Biso   1.000  O
  H28      1.0000 0.26030  0.34250  0.66320  Biso   1.000  H
  Tb4      1.0000 0.29485  0.45545  0.59524  Biso   1.000  Tb
  C61      1.0000 0.61780  0.01710  0.74610  Biso   1.000  C
  C62      1.0000 0.32230  0.02650  0.94520  Biso   1.000  C
  C63      1.0000 0.56690  0.02000  0.75540  Biso   1.000  C
  C64      1.0000 0.54180  0.03490  0.67690  Biso   1.000  C
  H29      1.0000 0.55730  0.04410  0.62140  Biso   1.000  H
  C65      1.0000 0.49320  0.03660  0.67820  Biso   1.000  C
  H30      1.0000 0.47670  0.04840  0.62640  Biso   1.000  H
  C66      1.0000 0.47090  0.01970  0.76020  Biso   1.000  C
  C67      1.0000 0.49560  0.00660  0.83930  Biso   1.000  C
  H31      1.0000 0.48000  0.99770  0.89480  Biso   1.000  H
  C68      1.0000 0.54310  0.00640  0.83930  Biso   1.000  C
  C69      1.0000 0.41920  0.01780  0.76280  Biso   1.000  C
  C70      1.0000 0.39550  0.00480  0.68180  Biso   1.000  C
  H32      1.0000 0.41110  0.00060  0.62380  Biso   1.000  H
  C71      1.0000 0.34730  0.99790  0.68610  Biso   1.000  C
  C72      1.0000 0.32560  0.00410  0.77210  Biso   1.000  C
  H33      1.0000 0.29420  0.99860  0.77510  Biso   1.000  H
  C73      1.0000 0.34760  0.01800  0.85420  Biso   1.000  C
  C74      1.0000 0.39530  0.02550  0.84940  Biso   1.000  C
  H34      1.0000 0.41110  0.03570  0.90370  Biso   1.000  H
  C75      1.0000 0.32370  0.98500  0.59630  Biso   1.000  C
  O29      1.0000 0.63950  0.99920  0.81850  Biso   1.000  O
  O30      1.0000 0.63770  0.03140  0.67330  Biso   1.000  O
  O31      1.0000 0.33910  0.99600  0.51680  Biso   1.000  O
  O32      1.0000 0.28430  0.96400  0.59870  Biso   1.000  O
  O33      1.0000 0.27940  0.02310  0.94700  Biso   1.000  O
  O34      1.0000 0.34420  0.04060  0.01920  Biso   1.000  O
  O35      1.0000 0.56460  0.99000  0.92160  Biso   1.000  O
  H35      1.0000 0.59250  0.98970  0.91320  Biso   1.000  H
  Tb5      1.0000 0.70545  0.95515  0.84524  Biso   1.000  Tb
  C76      1.0000 0.11780  0.51710  0.24610  Biso   1.000  C
  C77      1.0000 0.82230  0.52650  0.44520  Biso   1.000  C
  C78      1.0000 0.06690  0.52000  0.25540  Biso   1.000  C
  C79      1.0000 0.04180  0.53490  0.17690  Biso   1.000  C
  H36      1.0000 0.05730  0.54410  0.12140  Biso   1.000  H
  C80      1.0000 0.99320  0.53660  0.17820  Biso   1.000  C
  H37      1.0000 0.97670  0.54840  0.12640  Biso   1.000  H
  C81      1.0000 0.97090  0.51970  0.26020  Biso   1.000  C
  C82      1.0000 0.99560  0.50660  0.33930  Biso   1.000  C
  H38      1.0000 0.98000  0.49770  0.39480  Biso   1.000  H
  C83      1.0000 0.04310  0.50640  0.33930  Biso   1.000  C
  C84      1.0000 0.91920  0.51780  0.26280  Biso   1.000  C
  C85      1.0000 0.89550  0.50480  0.18180  Biso   1.000  C
  H39      1.0000 0.91110  0.50060  0.12380  Biso   1.000  H
  C86      1.0000 0.84730  0.49790  0.18610  Biso   1.000  C
  C87      1.0000 0.82560  0.50410  0.27210  Biso   1.000  C
  H40      1.0000 0.79420  0.49860  0.27510  Biso   1.000  H
  C88      1.0000 0.84760  0.51800  0.35420  Biso   1.000  C
  C89      1.0000 0.89530  0.52550  0.34940  Biso   1.000  C
  H41      1.0000 0.91110  0.53570  0.40370  Biso   1.000  H
  C90      1.0000 0.82370  0.48500  0.09630  Biso   1.000  C
  O36      1.0000 0.13950  0.49920  0.31850  Biso   1.000  O
  O37      1.0000 0.13770  0.53140  0.17330  Biso   1.000  O
  O38      1.0000 0.83910  0.49600  0.01680  Biso   1.000  O
  O39      1.0000 0.78430  0.46400  0.09870  Biso   1.000  O
  O40      1.0000 0.77940  0.52310  0.44700  Biso   1.000  O
  O41      1.0000 0.84420  0.54060  0.51920  Biso   1.000  O
  O42      1.0000 0.06460  0.49000  0.42160  Biso   1.000  O
  H42      1.0000 0.09250  0.48970  0.41320  Biso   1.000  H
  Tb6      1.0000 0.20545  0.45515  0.34524  Biso   1.000  Tb
  C91      1.0000 0.88220  0.98290  0.24610  Biso   1.000  C
  C92      1.0000 0.17770  0.97350  0.44520  Biso   1.000  C
  C93      1.0000 0.93310  0.98000  0.25540  Biso   1.000  C
  C94      1.0000 0.95820  0.96510  0.17690  Biso   1.000  C
  H43      1.0000 0.94270  0.95590  0.12140  Biso   1.000  H
  C95      1.0000 0.00680  0.96340  0.17820  Biso   1.000  C
  H44      1.0000 0.02330  0.95160  0.12640  Biso   1.000  H
  C96      1.0000 0.02910  0.98030  0.26020  Biso   1.000  C
  C97      1.0000 0.00440  0.99340  0.33930  Biso   1.000  C
  H45      1.0000 0.02000  0.00230  0.39480  Biso   1.000  H
  C98      1.0000 0.95690  0.99360  0.33930  Biso   1.000  C
  C99      1.0000 0.08080  0.98220  0.26280  Biso   1.000  C
  C100     1.0000 0.10450  0.99520  0.18180  Biso   1.000  C
  H46      1.0000 0.08890  0.99940  0.12380  Biso   1.000  H
  C101     1.0000 0.15270  0.00210  0.18610  Biso   1.000  C
  C102     1.0000 0.17440  0.99590  0.27210  Biso   1.000  C
  H47      1.0000 0.20580  0.00140  0.27510  Biso   1.000  H
  C103     1.0000 0.15240  0.98200  0.35420  Biso   1.000  C
  C104     1.0000 0.10470  0.97450  0.34940  Biso   1.000  C
  H48      1.0000 0.08890  0.96430  0.40370  Biso   1.000  H
  C105     1.0000 0.17630  0.01500  0.09630  Biso   1.000  C
  O43      1.0000 0.86050  0.00080  0.31850  Biso   1.000  O
  O44      1.0000 0.86230  0.96860  0.17330  Biso   1.000  O
  O45      1.0000 0.16090  0.00400  0.01680  Biso   1.000  O
  O46      1.0000 0.21570  0.03600  0.09870  Biso   1.000  O
  O47      1.0000 0.22060  0.97690  0.44700  Biso   1.000  O
  O48      1.0000 0.15580  0.95940  0.51920  Biso   1.000  O
  O49      1.0000 0.93540  0.01000  0.42160  Biso   1.000  O
  H49      1.0000 0.90750  0.01030  0.41320  Biso   1.000  H
  Tb7      1.0000 0.79455  0.04485  0.34524  Biso   1.000  Tb
  C106     1.0000 0.38220  0.48290  0.74610  Biso   1.000  C
  C107     1.0000 0.67770  0.47350  0.94520  Biso   1.000  C
  C108     1.0000 0.43310  0.48000  0.75540  Biso   1.000  C
  C109     1.0000 0.45820  0.46510  0.67690  Biso   1.000  C
  H50      1.0000 0.44270  0.45590  0.62140  Biso   1.000  H
  C110     1.0000 0.50680  0.46340  0.67820  Biso   1.000  C
  H51      1.0000 0.52330  0.45160  0.62640  Biso   1.000  H
  C111     1.0000 0.52910  0.48030  0.76020  Biso   1.000  C
  C112     1.0000 0.50440  0.49340  0.83930  Biso   1.000  C
  H52      1.0000 0.52000  0.50230  0.89480  Biso   1.000  H
  C113     1.0000 0.45690  0.49360  0.83930  Biso   1.000  C
  C114     1.0000 0.58080  0.48220  0.76280  Biso   1.000  C
  C115     1.0000 0.60450  0.49520  0.68180  Biso   1.000  C
  H53      1.0000 0.58890  0.49940  0.62380  Biso   1.000  H
  C116     1.0000 0.65270  0.50210  0.68610  Biso   1.000  C
  C117     1.0000 0.67440  0.49590  0.77210  Biso   1.000  C
  H54      1.0000 0.70580  0.50140  0.77510  Biso   1.000  H
  C118     1.0000 0.65240  0.48200  0.85420  Biso   1.000  C
  C119     1.0000 0.60470  0.47450  0.84940  Biso   1.000  C
  H55      1.0000 0.58890  0.46430  0.90370  Biso   1.000  H
  C120     1.0000 0.67630  0.51500  0.59630  Biso   1.000  C
  O50      1.0000 0.36050  0.50080  0.81850  Biso   1.000  O
  O51      1.0000 0.36230  0.46860  0.67330  Biso   1.000  O
  O52      1.0000 0.66090  0.50400  0.51680  Biso   1.000  O
  O53      1.0000 0.71570  0.53600  0.59870  Biso   1.000  O
  O54      1.0000 0.72060  0.47690  0.94700  Biso   1.000  O
  O55      1.0000 0.65580  0.45940  0.01920  Biso   1.000  O
  O56      1.0000 0.43540  0.51000  0.92160  Biso   1.000  O
  H56      1.0000 0.40750  0.51030  0.91320  Biso   1.000  H
  Tb8      1.0000 0.29455  0.54485  0.84524  Biso   1.000  Tb
  C121     1.0000 0.23290  0.86780  0.50390  Biso   1.000  C
  C122     1.0000 0.22350  0.57230  0.30480  Biso   1.000  C
  C123     1.0000 0.23000  0.81690  0.49460  Biso   1.000  C
  C124     1.0000 0.21510  0.79180  0.57310  Biso   1.000  C
  H57      1.0000 0.20590  0.80730  0.62860  Biso   1.000  H
  C125     1.0000 0.21340  0.74320  0.57180  Biso   1.000  C
  H58      1.0000 0.20160  0.72670  0.62360  Biso   1.000  H
  C126     1.0000 0.23030  0.72090  0.48980  Biso   1.000  C
  C127     1.0000 0.24340  0.74560  0.41070  Biso   1.000  C
  H59      1.0000 0.25230  0.73000  0.35520  Biso   1.000  H
  C128     1.0000 0.24360  0.79310  0.41070  Biso   1.000  C
  C129     1.0000 0.23220  0.66920  0.48720  Biso   1.000  C
  C130     1.0000 0.24520  0.64550  0.56820  Biso   1.000  C
  H60      1.0000 0.24940  0.66110  0.62620  Biso   1.000  H
  C131     1.0000 0.25210  0.59730  0.56390  Biso   1.000  C
  C132     1.0000 0.24590  0.57560  0.47790  Biso   1.000  C
  H61      1.0000 0.25140  0.54420  0.47490  Biso   1.000  H
  C133     1.0000 0.23200  0.59760  0.39580  Biso   1.000  C
  C134     1.0000 0.22450  0.64530  0.40060  Biso   1.000  C
  H62      1.0000 0.21430  0.66110  0.34630  Biso   1.000  H
  C135     1.0000 0.26500  0.57370  0.65370  Biso   1.000  C
  O57      1.0000 0.25080  0.88950  0.43150  Biso   1.000  O
  O58      1.0000 0.21860  0.88770  0.57670  Biso   1.000  O
  O59      1.0000 0.25400  0.58910  0.73320  Biso   1.000  O
  O60      1.0000 0.28600  0.53430  0.65130  Biso   1.000  O
  O61      1.0000 0.22690  0.52940  0.30300  Biso   1.000  O
  O62      1.0000 0.20940  0.59420  0.23080  Biso   1.000  O
  O63      1.0000 0.26000  0.81460  0.32840  Biso   1.000  O
  H63      1.0000 0.26030  0.84250  0.33680  Biso   1.000  H
  Tb9      1.0000 0.29485  0.95545  0.40476  Biso   1.000  Tb
  C136     1.0000 0.73290  0.36780  0.00390  Biso   1.000  C
  C137     1.0000 0.72350  0.07230  0.80480  Biso   1.000  C
  C138     1.0000 0.73000  0.31690  0.99460  Biso   1.000  C
  C139     1.0000 0.71510  0.29180  0.07310  Biso   1.000  C
  H64      1.0000 0.70590  0.30730  0.12860  Biso   1.000  H
  C140     1.0000 0.71340  0.24320  0.07180  Biso   1.000  C
  H65      1.0000 0.70160  0.22670  0.12360  Biso   1.000  H
  C141     1.0000 0.73030  0.22090  0.98980  Biso   1.000  C
  C142     1.0000 0.74340  0.24560  0.91070  Biso   1.000  C
  H66      1.0000 0.75230  0.23000  0.85520  Biso   1.000  H
  C143     1.0000 0.74360  0.29310  0.91070  Biso   1.000  C
  C144     1.0000 0.73220  0.16920  0.98720  Biso   1.000  C
  C145     1.0000 0.74520  0.14550  0.06820  Biso   1.000  C
  H67      1.0000 0.74940  0.16110  0.12620  Biso   1.000  H
  C146     1.0000 0.75210  0.09730  0.06390  Biso   1.000  C
  C147     1.0000 0.74590  0.07560  0.97790  Biso   1.000  C
  H68      1.0000 0.75140  0.04420  0.97490  Biso   1.000  H
  C148     1.0000 0.73200  0.09760  0.89580  Biso   1.000  C
  C149     1.0000 0.72450  0.14530  0.90060  Biso   1.000  C
  H69      1.0000 0.71430  0.16110  0.84630  Biso   1.000  H
  C150     1.0000 0.76500  0.07370  0.15370  Biso   1.000  C
  O64      1.0000 0.75080  0.38950  0.93150  Biso   1.000  O
  O65      1.0000 0.71860  0.38770  0.07670  Biso   1.000  O
  O66      1.0000 0.75400  0.08910  0.23320  Biso   1.000  O
  O67      1.0000 0.78600  0.03430  0.15130  Biso   1.000  O
  O68      1.0000 0.72690  0.02940  0.80300  Biso   1.000  O
  O69      1.0000 0.70940  0.09420  0.73080  Biso   1.000  O
  O70      1.0000 0.76000  0.31460  0.82840  Biso   1.000  O
  H70      1.0000 0.76030  0.34250  0.83680  Biso   1.000  H
  Tb10     1.0000 0.79485  0.45545  0.90476  Biso   1.000  Tb
  C151     1.0000 0.26710  0.13220  0.00390  Biso   1.000  C
  C152     1.0000 0.27650  0.42770  0.80480  Biso   1.000  C
  C153     1.0000 0.27000  0.18310  0.99460  Biso   1.000  C
  C154     1.0000 0.28490  0.20820  0.07310  Biso   1.000  C
  H71      1.0000 0.29410  0.19270  0.12860  Biso   1.000  H
  C155     1.0000 0.28660  0.25680  0.07180  Biso   1.000  C
  H72      1.0000 0.29840  0.27330  0.12360  Biso   1.000  H
  C156     1.0000 0.26970  0.27910  0.98980  Biso   1.000  C
  C157     1.0000 0.25660  0.25440  0.91070  Biso   1.000  C
  H73      1.0000 0.24770  0.27000  0.85520  Biso   1.000  H
  C158     1.0000 0.25640  0.20690  0.91070  Biso   1.000  C
  C159     1.0000 0.26780  0.33080  0.98720  Biso   1.000  C
  C160     1.0000 0.25480  0.35450  0.06820  Biso   1.000  C
  H74      1.0000 0.25060  0.33890  0.12620  Biso   1.000  H
  C161     1.0000 0.24790  0.40270  0.06390  Biso   1.000  C
  C162     1.0000 0.25410  0.42440  0.97790  Biso   1.000  C
  H75      1.0000 0.24860  0.45580  0.97490  Biso   1.000  H
  C163     1.0000 0.26800  0.40240  0.89580  Biso   1.000  C
  C164     1.0000 0.27550  0.35470  0.90060  Biso   1.000  C
  H76      1.0000 0.28570  0.33890  0.84630  Biso   1.000  H
  C165     1.0000 0.23500  0.42630  0.15370  Biso   1.000  C
  O71      1.0000 0.24920  0.11050  0.93150  Biso   1.000  O
  O72      1.0000 0.28140  0.11230  0.07670  Biso   1.000  O
  O73      1.0000 0.24600  0.41090  0.23320  Biso   1.000  O
  O74      1.0000 0.21400  0.46570  0.15130  Biso   1.000  O
  O75      1.0000 0.27310  0.47060  0.80300  Biso   1.000  O
  O76      1.0000 0.29060  0.40580  0.73080  Biso   1.000  O
  O77      1.0000 0.24000  0.18540  0.82840  Biso   1.000  O
  H77      1.0000 0.23970  0.15750  0.83680  Biso   1.000  H
  Tb11     1.0000 0.20515  0.04455  0.90476  Biso   1.000  Tb
  C166     1.0000 0.76710  0.63220  0.50390  Biso   1.000  C
  C167     1.0000 0.77650  0.92770  0.30480  Biso   1.000  C
  C168     1.0000 0.77000  0.68310  0.49460  Biso   1.000  C
  C169     1.0000 0.78490  0.70820  0.57310  Biso   1.000  C
  H78      1.0000 0.79410  0.69270  0.62860  Biso   1.000  H
  C170     1.0000 0.78660  0.75680  0.57180  Biso   1.000  C
  H79      1.0000 0.79840  0.77330  0.62360  Biso   1.000  H
  C171     1.0000 0.76970  0.77910  0.48980  Biso   1.000  C
  C172     1.0000 0.75660  0.75440  0.41070  Biso   1.000  C
  H80      1.0000 0.74770  0.77000  0.35520  Biso   1.000  H
  C173     1.0000 0.75640  0.70690  0.41070  Biso   1.000  C
  C174     1.0000 0.76780  0.83080  0.48720  Biso   1.000  C
  C175     1.0000 0.75480  0.85450  0.56820  Biso   1.000  C
  H81      1.0000 0.75060  0.83890  0.62620  Biso   1.000  H
  C176     1.0000 0.74790  0.90270  0.56390  Biso   1.000  C
  C177     1.0000 0.75410  0.92440  0.47790  Biso   1.000  C
  H82      1.0000 0.74860  0.95580  0.47490  Biso   1.000  H
  C178     1.0000 0.76800  0.90240  0.39580  Biso   1.000  C
  C179     1.0000 0.77550  0.85470  0.40060  Biso   1.000  C
  H83      1.0000 0.78570  0.83890  0.34630  Biso   1.000  H
  C180     1.0000 0.73500  0.92630  0.65370  Biso   1.000  C
  O78      1.0000 0.74920  0.61050  0.43150  Biso   1.000  O
  O79      1.0000 0.78140  0.61230  0.57670  Biso   1.000  O
  O80      1.0000 0.74600  0.91090  0.73320  Biso   1.000  O
  O81      1.0000 0.71400  0.96570  0.65130  Biso   1.000  O
  O82      1.0000 0.77310  0.97060  0.30300  Biso   1.000  O
  O83      1.0000 0.79060  0.90580  0.23080  Biso   1.000  O
  O84      1.0000 0.74000  0.68540  0.32840  Biso   1.000  O
  H84      1.0000 0.73970  0.65750  0.33680  Biso   1.000  H
  Tb12     1.0000 0.70515  0.54455  0.40476  Biso   1.000  Tb
  C181     1.0000 0.38220  0.98290  0.25390  Biso   1.000  C
  C182     1.0000 0.67770  0.97350  0.05480  Biso   1.000  C
  C183     1.0000 0.43310  0.98000  0.24460  Biso   1.000  C
  C184     1.0000 0.45820  0.96510  0.32310  Biso   1.000  C
  H85      1.0000 0.44270  0.95590  0.37860  Biso   1.000  H
  C185     1.0000 0.50680  0.96340  0.32180  Biso   1.000  C
  H86      1.0000 0.52330  0.95160  0.37360  Biso   1.000  H
  C186     1.0000 0.52910  0.98030  0.23980  Biso   1.000  C
  C187     1.0000 0.50440  0.99340  0.16070  Biso   1.000  C
  H87      1.0000 0.52000  0.00230  0.10520  Biso   1.000  H
  C188     1.0000 0.45690  0.99360  0.16070  Biso   1.000  C
  C189     1.0000 0.58080  0.98220  0.23720  Biso   1.000  C
  C190     1.0000 0.60450  0.99520  0.31820  Biso   1.000  C
  H88      1.0000 0.58890  0.99940  0.37620  Biso   1.000  H
  C191     1.0000 0.65270  0.00210  0.31390  Biso   1.000  C
  C192     1.0000 0.67440  0.99590  0.22790  Biso   1.000  C
  H89      1.0000 0.70580  0.00140  0.22490  Biso   1.000  H
  C193     1.0000 0.65240  0.98200  0.14580  Biso   1.000  C
  C194     1.0000 0.60470  0.97450  0.15060  Biso   1.000  C
  H90      1.0000 0.58890  0.96430  0.09630  Biso   1.000  H
  C195     1.0000 0.67630  0.01500  0.40370  Biso   1.000  C
  O85      1.0000 0.36050  0.00080  0.18150  Biso   1.000  O
  O86      1.0000 0.36230  0.96860  0.32670  Biso   1.000  O
  O87      1.0000 0.66090  0.00400  0.48320  Biso   1.000  O
  O88      1.0000 0.71570  0.03600  0.40130  Biso   1.000  O
  O89      1.0000 0.72060  0.97690  0.05300  Biso   1.000  O
  O90      1.0000 0.65580  0.95940  0.98080  Biso   1.000  O
  O91      1.0000 0.43540  0.01000  0.07840  Biso   1.000  O
  H91      1.0000 0.40750  0.01030  0.08680  Biso   1.000  H
  Tb13     1.0000 0.29455  0.04485  0.15476  Biso   1.000  Tb
  C196     1.0000 0.88220  0.48290  0.75390  Biso   1.000  C
  C197     1.0000 0.17770  0.47350  0.55480  Biso   1.000  C
  C198     1.0000 0.93310  0.48000  0.74460  Biso   1.000  C
  C199     1.0000 0.95820  0.46510  0.82310  Biso   1.000  C
  H92      1.0000 0.94270  0.45590  0.87860  Biso   1.000  H
  C200     1.0000 0.00680  0.46340  0.82180  Biso   1.000  C
  H93      1.0000 0.02330  0.45160  0.87360  Biso   1.000  H
  C201     1.0000 0.02910  0.48030  0.73980  Biso   1.000  C
  C202     1.0000 0.00440  0.49340  0.66070  Biso   1.000  C
  H94      1.0000 0.02000  0.50230  0.60520  Biso   1.000  H
  C203     1.0000 0.95690  0.49360  0.66070  Biso   1.000  C
  C204     1.0000 0.08080  0.48220  0.73720  Biso   1.000  C
  C205     1.0000 0.10450  0.49520  0.81820  Biso   1.000  C
  H95      1.0000 0.08890  0.49940  0.87620  Biso   1.000  H
  C206     1.0000 0.15270  0.50210  0.81390  Biso   1.000  C
  C207     1.0000 0.17440  0.49590  0.72790  Biso   1.000  C
  H96      1.0000 0.20580  0.50140  0.72490  Biso   1.000  H
  C208     1.0000 0.15240  0.48200  0.64580  Biso   1.000  C
  C209     1.0000 0.10470  0.47450  0.65060  Biso   1.000  C
  H97      1.0000 0.08890  0.46430  0.59630  Biso   1.000  H
  C210     1.0000 0.17630  0.51500  0.90370  Biso   1.000  C
  O92      1.0000 0.86050  0.50080  0.68150  Biso   1.000  O
  O93      1.0000 0.86230  0.46860  0.82670  Biso   1.000  O
  O94      1.0000 0.16090  0.50400  0.98320  Biso   1.000  O
  O95      1.0000 0.21570  0.53600  0.90130  Biso   1.000  O
  O96      1.0000 0.22060  0.47690  0.55300  Biso   1.000  O
  O97      1.0000 0.15580  0.45940  0.48080  Biso   1.000  O
  O98      1.0000 0.93540  0.51000  0.57840  Biso   1.000  O
  H98      1.0000 0.90750  0.51030  0.58680  Biso   1.000  H
  Tb14     1.0000 0.79455  0.54485  0.65476  Biso   1.000  Tb
  C211     1.0000 0.11780  0.01710  0.75390  Biso   1.000  C
  C212     1.0000 0.82230  0.02650  0.55480  Biso   1.000  C
  C213     1.0000 0.06690  0.02000  0.74460  Biso   1.000  C
  C214     1.0000 0.04180  0.03490  0.82310  Biso   1.000  C
  H99      1.0000 0.05730  0.04410  0.87860  Biso   1.000  H
  C215     1.0000 0.99320  0.03660  0.82180  Biso   1.000  C
  H100     1.0000 0.97670  0.04840  0.87360  Biso   1.000  H
  C216     1.0000 0.97090  0.01970  0.73980  Biso   1.000  C
  C217     1.0000 0.99560  0.00660  0.66070  Biso   1.000  C
  H101     1.0000 0.98000  0.99770  0.60520  Biso   1.000  H
  C218     1.0000 0.04310  0.00640  0.66070  Biso   1.000  C
  C219     1.0000 0.91920  0.01780  0.73720  Biso   1.000  C
  C220     1.0000 0.89550  0.00480  0.81820  Biso   1.000  C
  H102     1.0000 0.91110  0.00060  0.87620  Biso   1.000  H
  C221     1.0000 0.84730  0.99790  0.81390  Biso   1.000  C
  C222     1.0000 0.82560  0.00410  0.72790  Biso   1.000  C
  H103     1.0000 0.79420  0.99860  0.72490  Biso   1.000  H
  C223     1.0000 0.84760  0.01800  0.64580  Biso   1.000  C
  C224     1.0000 0.89530  0.02550  0.65060  Biso   1.000  C
  H104     1.0000 0.91110  0.03570  0.59630  Biso   1.000  H
  C225     1.0000 0.82370  0.98500  0.90370  Biso   1.000  C
  O99      1.0000 0.13950  0.99920  0.68150  Biso   1.000  O
  O100     1.0000 0.13770  0.03140  0.82670  Biso   1.000  O
  O101     1.0000 0.83910  0.99600  0.98320  Biso   1.000  O
  O102     1.0000 0.78430  0.96400  0.90130  Biso   1.000  O
  O103     1.0000 0.77940  0.02310  0.55300  Biso   1.000  O
  O104     1.0000 0.84420  0.04060  0.48080  Biso   1.000  O
  O105     1.0000 0.06460  0.99000  0.57840  Biso   1.000  O
  H105     1.0000 0.09250  0.98970  0.58680  Biso   1.000  H
  Tb15     1.0000 0.20545  0.95515  0.65476  Biso   1.000  Tb
  C226     1.0000 0.61780  0.51710  0.25390  Biso   1.000  C
  C227     1.0000 0.32230  0.52650  0.05480  Biso   1.000  C
  C228     1.0000 0.56690  0.52000  0.24460  Biso   1.000  C
  C229     1.0000 0.54180  0.53490  0.32310  Biso   1.000  C
  H106     1.0000 0.55730  0.54410  0.37860  Biso   1.000  H
  C230     1.0000 0.49320  0.53660  0.32180  Biso   1.000  C
  H107     1.0000 0.47670  0.54840  0.37360  Biso   1.000  H
  C231     1.0000 0.47090  0.51970  0.23980  Biso   1.000  C
  C232     1.0000 0.49560  0.50660  0.16070  Biso   1.000  C
  H108     1.0000 0.48000  0.49770  0.10520  Biso   1.000  H
  C233     1.0000 0.54310  0.50640  0.16070  Biso   1.000  C
  C234     1.0000 0.41920  0.51780  0.23720  Biso   1.000  C
  C235     1.0000 0.39550  0.50480  0.31820  Biso   1.000  C
  H109     1.0000 0.41110  0.50060  0.37620  Biso   1.000  H
  C236     1.0000 0.34730  0.49790  0.31390  Biso   1.000  C
  C237     1.0000 0.32560  0.50410  0.22790  Biso   1.000  C
  H110     1.0000 0.29420  0.49860  0.22490  Biso   1.000  H
  C238     1.0000 0.34760  0.51800  0.14580  Biso   1.000  C
  C239     1.0000 0.39530  0.52550  0.15060  Biso   1.000  C
  H111     1.0000 0.41110  0.53570  0.09630  Biso   1.000  H
  C240     1.0000 0.32370  0.48500  0.40370  Biso   1.000  C
  O106     1.0000 0.63950  0.49920  0.18150  Biso   1.000  O
  O107     1.0000 0.63770  0.53140  0.32670  Biso   1.000  O
  O108     1.0000 0.33910  0.49600  0.48320  Biso   1.000  O
  O109     1.0000 0.28430  0.46400  0.40130  Biso   1.000  O
  O110     1.0000 0.27940  0.52310  0.05300  Biso   1.000  O
  O111     1.0000 0.34420  0.54060  0.98080  Biso   1.000  O
  O112     1.0000 0.56460  0.49000  0.07840  Biso   1.000  O
  H112     1.0000 0.59250  0.48970  0.08680  Biso   1.000  H
  Tb16     1.0000 0.70545  0.45515  0.15476  Biso   1.000  Tb
