data_UVUQAE_clean
_audit_creation_date              2014-07-02
_audit_creation_method            'Materials Studio'
_symmetry_space_group_name_H-M    'P1'
_symmetry_Int_Tables_number       1
_symmetry_cell_setting            triclinic
loop_
_symmetry_equiv_pos_as_xyz
  x,y,z
_cell_length_a                    15.0855
_cell_length_b                    15.0855
_cell_length_c                    21.5150
_cell_angle_alpha                 83.8672
_cell_angle_beta                  83.8672
_cell_angle_gamma                 65.5556
loop_
_atom_site_label
_atom_site_type_symbol
_atom_site_fract_x
_atom_site_fract_y
_atom_site_fract_z
_atom_site_U_iso_or_equiv
_atom_site_adp_type
_atom_site_occupancy
Zn1    Zn    0.00965   0.01285   0.68147   0.01267  Uiso   1.00
Zn2    Zn    0.95184   0.43236   0.00610   0.01267  Uiso   1.00
Zn3    Zn    0.98715   0.99035   0.81853   0.01267  Uiso   1.00
Zn4    Zn    0.56764   0.04816   0.49390   0.01267  Uiso   1.00
Zn5    Zn    0.99035   0.98715   0.31853   0.01267  Uiso   1.00
Zn6    Zn    0.04816   0.56764   0.99390   0.01267  Uiso   1.00
Zn7    Zn    0.01285   0.00965   0.18147   0.01267  Uiso   1.00
Zn8    Zn    0.43236   0.95184   0.50610   0.01267  Uiso   1.00
H1     H     0.67780   0.10300   0.83610   0.01267  Uiso   1.00
H2     H     0.51220   0.15200   0.83920   0.01267  Uiso   1.00
H3     H     0.53300   0.11240   0.65660   0.01267  Uiso   1.00
H4     H     0.69980   0.06260   0.65350   0.01267  Uiso   1.00
H5     H     0.26310   0.40930   0.86380   0.01267  Uiso   1.00
H6     H     0.39130   0.31470   0.79730   0.01267  Uiso   1.00
H7     H     0.26330   0.13030   0.79220   0.01267  Uiso   1.00
H8     H     0.13290   0.22810   0.85720   0.01267  Uiso   1.00
H9     H     0.11190   0.55870   0.62190   0.01267  Uiso   1.00
H10    H     0.08710   0.71830   0.63290   0.01267  Uiso   1.00
H11    H     0.03830   0.68110   0.81800   0.01267  Uiso   1.00
H12    H     0.06860   0.52040   0.80930   0.01267  Uiso   1.00
H13    H     0.20880   0.15040   0.63300   0.01267  Uiso   1.00
H14    H     0.09440   0.27780   0.68710   0.01267  Uiso   1.00
H15    H     0.26950   0.42130   0.65480   0.01267  Uiso   1.00
H16    H     0.38160   0.29360   0.59970   0.01267  Uiso   1.00
H17    H     0.93890   0.25210   0.07650   0.01267  Uiso   1.00
H18    H     0.82570   0.18930   0.10810   0.01267  Uiso   1.00
H19    H     0.66580   0.27520   0.08060   0.01267  Uiso   1.00
H20    H     0.74480   0.48100   0.99190   0.01267  Uiso   1.00
H21    H     0.89700   0.32220   0.66390   0.01267  Uiso   1.00
H22    H     0.84800   0.48780   0.66080   0.01267  Uiso   1.00
H23    H     0.88760   0.46700   0.84340   0.01267  Uiso   1.00
H24    H     0.93740   0.30020   0.84650   0.01267  Uiso   1.00
H25    H     0.59070   0.73690   0.63620   0.01267  Uiso   1.00
H26    H     0.68530   0.60870   0.70270   0.01267  Uiso   1.00
H27    H     0.86970   0.73670   0.70780   0.01267  Uiso   1.00
H28    H     0.77190   0.86710   0.64280   0.01267  Uiso   1.00
H29    H     0.44130   0.88810   0.87810   0.01267  Uiso   1.00
H30    H     0.28170   0.91290   0.86710   0.01267  Uiso   1.00
H31    H     0.31890   0.96170   0.68200   0.01267  Uiso   1.00
H32    H     0.47960   0.93140   0.69070   0.01267  Uiso   1.00
H33    H     0.84960   0.79120   0.86700   0.01267  Uiso   1.00
H34    H     0.72220   0.90560   0.81290   0.01267  Uiso   1.00
H35    H     0.57870   0.73050   0.84520   0.01267  Uiso   1.00
H36    H     0.70640   0.61840   0.90030   0.01267  Uiso   1.00
H37    H     0.74790   0.06110   0.42350   0.01267  Uiso   1.00
H38    H     0.81070   0.17430   0.39190   0.01267  Uiso   1.00
H39    H     0.72480   0.33420   0.41940   0.01267  Uiso   1.00
H40    H     0.51900   0.25520   0.50810   0.01267  Uiso   1.00
H41    H     0.32220   0.89700   0.16390   0.01267  Uiso   1.00
H42    H     0.48780   0.84800   0.16080   0.01267  Uiso   1.00
H43    H     0.46700   0.88760   0.34340   0.01267  Uiso   1.00
H44    H     0.30020   0.93740   0.34650   0.01267  Uiso   1.00
H45    H     0.73690   0.59070   0.13620   0.01267  Uiso   1.00
H46    H     0.60870   0.68530   0.20270   0.01267  Uiso   1.00
H47    H     0.73670   0.86970   0.20780   0.01267  Uiso   1.00
H48    H     0.86710   0.77190   0.14280   0.01267  Uiso   1.00
H49    H     0.88810   0.44130   0.37810   0.01267  Uiso   1.00
H50    H     0.91290   0.28170   0.36710   0.01267  Uiso   1.00
H51    H     0.96170   0.31890   0.18200   0.01267  Uiso   1.00
H52    H     0.93140   0.47960   0.19070   0.01267  Uiso   1.00
H53    H     0.79120   0.84960   0.36700   0.01267  Uiso   1.00
H54    H     0.90560   0.72220   0.31290   0.01267  Uiso   1.00
H55    H     0.73050   0.57870   0.34520   0.01267  Uiso   1.00
H56    H     0.61840   0.70640   0.40030   0.01267  Uiso   1.00
H57    H     0.06110   0.74790   0.92350   0.01267  Uiso   1.00
H58    H     0.17430   0.81070   0.89190   0.01267  Uiso   1.00
H59    H     0.33420   0.72480   0.91940   0.01267  Uiso   1.00
H60    H     0.25520   0.51900   0.00810   0.01267  Uiso   1.00
H61    H     0.10300   0.67780   0.33610   0.01267  Uiso   1.00
H62    H     0.15200   0.51220   0.33920   0.01267  Uiso   1.00
H63    H     0.11240   0.53300   0.15660   0.01267  Uiso   1.00
H64    H     0.06260   0.69980   0.15350   0.01267  Uiso   1.00
H65    H     0.40930   0.26310   0.36380   0.01267  Uiso   1.00
H66    H     0.31470   0.39130   0.29730   0.01267  Uiso   1.00
H67    H     0.13030   0.26330   0.29220   0.01267  Uiso   1.00
H68    H     0.22810   0.13290   0.35720   0.01267  Uiso   1.00
H69    H     0.55870   0.11190   0.12190   0.01267  Uiso   1.00
H70    H     0.71830   0.08710   0.13290   0.01267  Uiso   1.00
H71    H     0.68110   0.03830   0.31800   0.01267  Uiso   1.00
H72    H     0.52040   0.06860   0.30930   0.01267  Uiso   1.00
H73    H     0.15040   0.20880   0.13300   0.01267  Uiso   1.00
H74    H     0.27780   0.09440   0.18710   0.01267  Uiso   1.00
H75    H     0.42130   0.26950   0.15480   0.01267  Uiso   1.00
H76    H     0.29360   0.38160   0.09970   0.01267  Uiso   1.00
H77    H     0.25210   0.93890   0.57650   0.01267  Uiso   1.00
H78    H     0.18930   0.82570   0.60810   0.01267  Uiso   1.00
H79    H     0.27520   0.66580   0.58060   0.01267  Uiso   1.00
H80    H     0.48100   0.74480   0.49190   0.01267  Uiso   1.00
C1     C     0.70659   0.07999   0.74406   0.01267  Uiso   1.00
C2     C     0.64860   0.10560   0.79966   0.01267  Uiso   1.00
C3     C     0.54986   0.13426   0.80183   0.01267  Uiso   1.00
C4     C     0.50654   0.13654   0.74808   0.01267  Uiso   1.00
C5     C     0.56258   0.11038   0.69283   0.01267  Uiso   1.00
C6     C     0.66222   0.08142   0.69086   0.01267  Uiso   1.00
C7     C     0.81574   0.04614   0.74406   0.01267  Uiso   1.00
C8     C     0.18624   0.32652   0.86865   0.01267  Uiso   1.00
C9     C     0.26289   0.35329   0.84970   0.01267  Uiso   1.00
C10    C     0.33971   0.29671   0.80960   0.01267  Uiso   1.00
C11    C     0.33908   0.21388   0.78831   0.01267  Uiso   1.00
C12    C     0.26326   0.18646   0.80620   0.01267  Uiso   1.00
C13    C     0.18550   0.24490   0.84602   0.01267  Uiso   1.00
C14    C     0.10636   0.38670   0.91365   0.01267  Uiso   1.00
C15    C     0.09414   0.52394   0.71540   0.01267  Uiso   1.00
C16    C     0.09844   0.58324   0.66140   0.01267  Uiso   1.00
C17    C     0.08244   0.67864   0.66818   0.01267  Uiso   1.00
C18    C     0.05967   0.71649   0.72607   0.01267  Uiso   1.00
C19    C     0.05420   0.65600   0.77871   0.01267  Uiso   1.00
C20    C     0.07180   0.56020   0.77375   0.01267  Uiso   1.00
C21    C     0.03914   0.82194   0.73230   0.01267  Uiso   1.00
C22    C     0.30555   0.20969   0.61000   0.01267  Uiso   1.00
C23    C     0.22049   0.20529   0.63695   0.01267  Uiso   1.00
C24    C     0.15230   0.28090   0.66970   0.01267  Uiso   1.00
C25    C     0.17164   0.36164   0.67620   0.01267  Uiso   1.00
C26    C     0.25698   0.36698   0.65020   0.01267  Uiso   1.00
C27    C     0.32370   0.29070   0.61720   0.01267  Uiso   1.00
C28    C     0.37867   0.12695   0.57377   0.01267  Uiso   1.00
C29    C     0.58677   0.44897   0.01480   0.01267  Uiso   1.00
C30    C     0.87512   0.28672   0.06530   0.01267  Uiso   1.00
C31    C     0.80773   0.24873   0.08460   0.01267  Uiso   1.00
C32    C     0.71265   0.30005   0.06860   0.01267  Uiso   1.00
C33    C     0.68761   0.38961   0.03403   0.01267  Uiso   1.00
C34    C     0.76051   0.42197   0.01573   0.01267  Uiso   1.00
C35    C     0.92001   0.29341   0.75594   0.01267  Uiso   1.00
C36    C     0.89440   0.35140   0.70034   0.01267  Uiso   1.00
C37    C     0.86574   0.45014   0.69817   0.01267  Uiso   1.00
C38    C     0.86346   0.49346   0.75192   0.01267  Uiso   1.00
C39    C     0.88962   0.43742   0.80717   0.01267  Uiso   1.00
C40    C     0.91858   0.33778   0.80914   0.01267  Uiso   1.00
C41    C     0.95386   0.18426   0.75594   0.01267  Uiso   1.00
C42    C     0.67348   0.81376   0.63135   0.01267  Uiso   1.00
C43    C     0.64671   0.73711   0.65030   0.01267  Uiso   1.00
C44    C     0.70329   0.66029   0.69040   0.01267  Uiso   1.00
C45    C     0.78612   0.66092   0.71169   0.01267  Uiso   1.00
C46    C     0.81354   0.73674   0.69380   0.01267  Uiso   1.00
C47    C     0.75510   0.81450   0.65398   0.01267  Uiso   1.00
C48    C     0.61330   0.89364   0.58635   0.01267  Uiso   1.00
C49    C     0.47606   0.90586   0.78460   0.01267  Uiso   1.00
C50    C     0.41676   0.90156   0.83860   0.01267  Uiso   1.00
C51    C     0.32136   0.91756   0.83182   0.01267  Uiso   1.00
C52    C     0.28351   0.94033   0.77393   0.01267  Uiso   1.00
C53    C     0.34400   0.94580   0.72129   0.01267  Uiso   1.00
C54    C     0.43980   0.92820   0.72625   0.01267  Uiso   1.00
C55    C     0.17806   0.96086   0.76770   0.01267  Uiso   1.00
C56    C     0.79031   0.69445   0.89000   0.01267  Uiso   1.00
C57    C     0.79471   0.77951   0.86305   0.01267  Uiso   1.00
C58    C     0.71910   0.84770   0.83030   0.01267  Uiso   1.00
C59    C     0.63836   0.82836   0.82380   0.01267  Uiso   1.00
C60    C     0.63302   0.74302   0.84980   0.01267  Uiso   1.00
C61    C     0.70930   0.67630   0.88280   0.01267  Uiso   1.00
C62    C     0.87305   0.62133   0.92623   0.01267  Uiso   1.00
C63    C     0.55103   0.41323   0.48520   0.01267  Uiso   1.00
C64    C     0.71328   0.12488   0.43470   0.01267  Uiso   1.00
C65    C     0.75127   0.19227   0.41540   0.01267  Uiso   1.00
C66    C     0.69995   0.28735   0.43140   0.01267  Uiso   1.00
C67    C     0.61039   0.31239   0.46597   0.01267  Uiso   1.00
C68    C     0.57803   0.23949   0.48427   0.01267  Uiso   1.00
C69    C     0.29341   0.92001   0.25594   0.01267  Uiso   1.00
C70    C     0.35140   0.89440   0.20034   0.01267  Uiso   1.00
C71    C     0.45014   0.86574   0.19817   0.01267  Uiso   1.00
C72    C     0.49346   0.86346   0.25192   0.01267  Uiso   1.00
C73    C     0.43742   0.88962   0.30717   0.01267  Uiso   1.00
C74    C     0.33778   0.91858   0.30914   0.01267  Uiso   1.00
C75    C     0.18426   0.95386   0.25594   0.01267  Uiso   1.00
C76    C     0.81376   0.67348   0.13135   0.01267  Uiso   1.00
C77    C     0.73711   0.64671   0.15030   0.01267  Uiso   1.00
C78    C     0.66029   0.70329   0.19040   0.01267  Uiso   1.00
C79    C     0.66092   0.78612   0.21169   0.01267  Uiso   1.00
C80    C     0.73674   0.81354   0.19380   0.01267  Uiso   1.00
C81    C     0.81450   0.75510   0.15398   0.01267  Uiso   1.00
C82    C     0.89364   0.61330   0.08635   0.01267  Uiso   1.00
C83    C     0.90586   0.47606   0.28460   0.01267  Uiso   1.00
C84    C     0.90156   0.41676   0.33860   0.01267  Uiso   1.00
C85    C     0.91756   0.32136   0.33182   0.01267  Uiso   1.00
C86    C     0.94033   0.28351   0.27393   0.01267  Uiso   1.00
C87    C     0.94580   0.34400   0.22129   0.01267  Uiso   1.00
C88    C     0.92820   0.43980   0.22625   0.01267  Uiso   1.00
C89    C     0.96086   0.17806   0.26770   0.01267  Uiso   1.00
C90    C     0.69445   0.79031   0.39000   0.01267  Uiso   1.00
C91    C     0.77951   0.79471   0.36305   0.01267  Uiso   1.00
C92    C     0.84770   0.71910   0.33030   0.01267  Uiso   1.00
C93    C     0.82836   0.63836   0.32380   0.01267  Uiso   1.00
C94    C     0.74302   0.63302   0.34980   0.01267  Uiso   1.00
C95    C     0.67630   0.70930   0.38280   0.01267  Uiso   1.00
C96    C     0.62133   0.87305   0.42623   0.01267  Uiso   1.00
C97    C     0.41323   0.55103   0.98520   0.01267  Uiso   1.00
C98    C     0.12488   0.71328   0.93470   0.01267  Uiso   1.00
C99    C     0.19227   0.75127   0.91540   0.01267  Uiso   1.00
C100   C     0.28735   0.69995   0.93140   0.01267  Uiso   1.00
C101   C     0.31239   0.61039   0.96597   0.01267  Uiso   1.00
C102   C     0.23949   0.57803   0.98427   0.01267  Uiso   1.00
C103   C     0.07999   0.70659   0.24406   0.01267  Uiso   1.00
C104   C     0.10560   0.64860   0.29966   0.01267  Uiso   1.00
C105   C     0.13426   0.54986   0.30183   0.01267  Uiso   1.00
C106   C     0.13654   0.50654   0.24808   0.01267  Uiso   1.00
C107   C     0.11038   0.56258   0.19283   0.01267  Uiso   1.00
C108   C     0.08142   0.66222   0.19086   0.01267  Uiso   1.00
C109   C     0.04614   0.81574   0.24406   0.01267  Uiso   1.00
C110   C     0.32652   0.18624   0.36865   0.01267  Uiso   1.00
C111   C     0.35329   0.26289   0.34970   0.01267  Uiso   1.00
C112   C     0.29671   0.33971   0.30960   0.01267  Uiso   1.00
C113   C     0.21388   0.33908   0.28831   0.01267  Uiso   1.00
C114   C     0.18646   0.26326   0.30620   0.01267  Uiso   1.00
C115   C     0.24490   0.18550   0.34602   0.01267  Uiso   1.00
C116   C     0.38670   0.10636   0.41365   0.01267  Uiso   1.00
C117   C     0.52394   0.09414   0.21540   0.01267  Uiso   1.00
C118   C     0.58324   0.09844   0.16140   0.01267  Uiso   1.00
C119   C     0.67864   0.08244   0.16818   0.01267  Uiso   1.00
C120   C     0.71649   0.05967   0.22607   0.01267  Uiso   1.00
C121   C     0.65600   0.05420   0.27871   0.01267  Uiso   1.00
C122   C     0.56020   0.07180   0.27375   0.01267  Uiso   1.00
C123   C     0.82194   0.03914   0.23230   0.01267  Uiso   1.00
C124   C     0.20969   0.30555   0.11000   0.01267  Uiso   1.00
C125   C     0.20529   0.22049   0.13695   0.01267  Uiso   1.00
C126   C     0.28090   0.15230   0.16970   0.01267  Uiso   1.00
C127   C     0.36164   0.17164   0.17620   0.01267  Uiso   1.00
C128   C     0.36698   0.25698   0.15020   0.01267  Uiso   1.00
C129   C     0.29070   0.32370   0.11720   0.01267  Uiso   1.00
C130   C     0.12695   0.37867   0.07377   0.01267  Uiso   1.00
C131   C     0.44897   0.58677   0.51480   0.01267  Uiso   1.00
C132   C     0.28672   0.87512   0.56530   0.01267  Uiso   1.00
C133   C     0.24873   0.80773   0.58460   0.01267  Uiso   1.00
C134   C     0.30005   0.71265   0.56860   0.01267  Uiso   1.00
C135   C     0.38961   0.68761   0.53403   0.01267  Uiso   1.00
C136   C     0.42197   0.76051   0.51573   0.01267  Uiso   1.00
N1     N     0.51742   0.41912   0.03912   0.01267  Uiso   1.00
N2     N     0.57188   0.52768   0.97630   0.01267  Uiso   1.00
N3     N     0.85335   0.37115   0.03108   0.01267  Uiso   1.00
N4     N     0.58088   0.48258   0.46088   0.01267  Uiso   1.00
N5     N     0.47232   0.42812   0.52370   0.01267  Uiso   1.00
N6     N     0.62885   0.14665   0.46892   0.01267  Uiso   1.00
N7     N     0.48258   0.58088   0.96088   0.01267  Uiso   1.00
N8     N     0.42812   0.47232   0.02370   0.01267  Uiso   1.00
N9     N     0.14665   0.62885   0.96892   0.01267  Uiso   1.00
N10    N     0.41912   0.51742   0.53912   0.01267  Uiso   1.00
N11    N     0.52768   0.57188   0.47630   0.01267  Uiso   1.00
N12    N     0.37115   0.85335   0.53108   0.01267  Uiso   1.00
O1     O     0.40930   0.15660   0.74586   0.01267  Uiso   1.00
O2     O     0.86437   0.03431   0.69224   0.01267  Uiso   1.00
O3     O     0.84988   0.03358   0.79698   0.01267  Uiso   1.00
O4     O     0.04187   0.35491   0.93551   0.01267  Uiso   1.00
O5     O     0.10824   0.46336   0.92864   0.01267  Uiso   1.00
O6     O     0.10190   0.42968   0.71407   0.01267  Uiso   1.00
O7     O     0.04648   0.87082   0.68187   0.01267  Uiso   1.00
O8     O     0.01671   0.85399   0.78592   0.01267  Uiso   1.00
O9     O     0.35366   0.05918   0.56376   0.01267  Uiso   1.00
O10    O     0.45985   0.12993   0.55499   0.01267  Uiso   1.00
O11    O     0.84340   0.59070   0.75414   0.01267  Uiso   1.00
O12    O     0.96569   0.13563   0.80776   0.01267  Uiso   1.00
O13    O     0.96642   0.15012   0.70302   0.01267  Uiso   1.00
O14    O     0.64509   0.95813   0.56449   0.01267  Uiso   1.00
O15    O     0.53664   0.89176   0.57136   0.01267  Uiso   1.00
O16    O     0.57032   0.89810   0.78593   0.01267  Uiso   1.00
O17    O     0.12918   0.95352   0.81813   0.01267  Uiso   1.00
O18    O     0.14601   0.98329   0.71408   0.01267  Uiso   1.00
O19    O     0.94082   0.64634   0.93624   0.01267  Uiso   1.00
O20    O     0.87007   0.54015   0.94501   0.01267  Uiso   1.00
O21    O     0.59070   0.84340   0.25414   0.01267  Uiso   1.00
O22    O     0.13563   0.96569   0.30776   0.01267  Uiso   1.00
O23    O     0.15012   0.96642   0.20302   0.01267  Uiso   1.00
O24    O     0.95813   0.64509   0.06449   0.01267  Uiso   1.00
O25    O     0.89176   0.53664   0.07136   0.01267  Uiso   1.00
O26    O     0.89810   0.57032   0.28593   0.01267  Uiso   1.00
O27    O     0.95352   0.12918   0.31813   0.01267  Uiso   1.00
O28    O     0.98329   0.14601   0.21408   0.01267  Uiso   1.00
O29    O     0.64634   0.94082   0.43624   0.01267  Uiso   1.00
O30    O     0.54015   0.87007   0.44501   0.01267  Uiso   1.00
O31    O     0.15660   0.40930   0.24586   0.01267  Uiso   1.00
O32    O     0.03431   0.86437   0.19224   0.01267  Uiso   1.00
O33    O     0.03358   0.84988   0.29698   0.01267  Uiso   1.00
O34    O     0.35491   0.04187   0.43551   0.01267  Uiso   1.00
O35    O     0.46336   0.10824   0.42864   0.01267  Uiso   1.00
O36    O     0.42968   0.10190   0.21407   0.01267  Uiso   1.00
O37    O     0.87082   0.04648   0.18187   0.01267  Uiso   1.00
O38    O     0.85399   0.01671   0.28592   0.01267  Uiso   1.00
O39    O     0.05918   0.35366   0.06376   0.01267  Uiso   1.00
O40    O     0.12993   0.45985   0.05499   0.01267  Uiso   1.00
