data_image0
_cell_length_a       15.4556
_cell_length_b       18.3812
_cell_length_c       31.0901
_cell_angle_alpha    90
_cell_angle_beta     90
_cell_angle_gamma    90

_symmetry_space_group_name_H-M    "P 1"
_symmetry_int_tables_number       1

loop_
  _symmetry_equiv_pos_as_xyz
  'x, y, z'

loop_
  _atom_site_label
  _atom_site_occupancy
  _atom_site_fract_x
  _atom_site_fract_y
  _atom_site_fract_z
  _atom_site_thermal_displace_type
  _atom_site_B_iso_or_equiv
  _atom_site_type_symbol
  C1       1.0000 0.68300  0.25757  0.18784  Biso   1.000  C
  C2       1.0000 0.74860  0.25823  0.22390  Biso   1.000  C
  C3       1.0000 0.77980  0.19310  0.24084  Biso   1.000  C
  H1       1.0000 0.75790  0.14910  0.23080  Biso   1.000  H
  C4       1.0000 0.84290  0.19323  0.27234  Biso   1.000  C
  H2       1.0000 0.86310  0.14940  0.28330  Biso   1.000  H
  C5       1.0000 0.87622  0.25854  0.28771  Biso   1.000  C
  C6       1.0000 0.84390  0.32353  0.27144  Biso   1.000  C
  H3       1.0000 0.86490  0.36750  0.28190  Biso   1.000  H
  C7       1.0000 0.78070  0.32337  0.23988  Biso   1.000  C
  H4       1.0000 0.75970  0.36730  0.22930  Biso   1.000  H
  C8       1.0000 0.94770  0.25880  0.32039  Biso   1.000  C
  C9       1.0000 0.69760  0.25250  0.06930  Biso   1.000  C
  C10      1.0000 0.76620  0.25174  0.03516  Biso   1.000  C
  C11      1.0000 0.80270  0.31600  0.02098  Biso   1.000  C
  H5       1.0000 0.78480  0.36000  0.03280  Biso   1.000  H
  C12      1.0000 0.86560  0.31537  0.98936  Biso   1.000  C
  H6       1.0000 0.89000  0.35890  0.98020  Biso   1.000  H
  C13      1.0000 0.89260  0.25016  0.97124  Biso   1.000  C
  C14      1.0000 0.85560  0.18569  0.98558  Biso   1.000  C
  H7       1.0000 0.87320  0.14160  0.97380  Biso   1.000  H
  C15      1.0000 0.79300  0.18661  0.01716  Biso   1.000  C
  H8       1.0000 0.76850  0.14310  0.02640  Biso   1.000  H
  C16      1.0000 0.96010  0.24936  0.93647  Biso   1.000  C
  C17      1.0000 0.59190  0.48620  0.15239  Biso   1.000  C
  H9       1.0000 0.60360  0.46410  0.17870  Biso   1.000  H
  C18      1.0000 0.59090  0.56073  0.15048  Biso   1.000  C
  H10      1.0000 0.60130  0.58810  0.17510  Biso   1.000  H
  C19      1.0000 0.57390  0.59558  0.11108  Biso   1.000  C
  C20      1.0000 0.55980  0.55142  0.07573  Biso   1.000  C
  H11      1.0000 0.54880  0.57190  0.04890  Biso   1.000  H
  C21      1.0000 0.56220  0.47646  0.08059  Biso   1.000  C
  H12      1.0000 0.55320  0.44750  0.05650  Biso   1.000  H
  C22      1.0000 0.57200  0.67570  0.10921  Biso   1.000  C
  C23      1.0000 0.51620  0.71523  0.08122  Biso   1.000  C
  C24      1.0000 0.51480  0.79377  0.08200  Biso   1.000  C
  C25      1.0000 0.57100  0.83333  0.10969  Biso   1.000  C
  C26      1.0000 0.62520  0.79256  0.13494  Biso   1.000  C
  H13      1.0000 0.66360  0.81650  0.15310  Biso   1.000  H
  C27      1.0000 0.62510  0.71624  0.13466  Biso   1.000  C
  H14      1.0000 0.66330  0.69210  0.15280  Biso   1.000  H
  C28      1.0000 0.57230  0.91334  0.11254  Biso   1.000  C
  C29      1.0000 0.64940  0.95130  0.11952  Biso   1.000  C
  H15      1.0000 0.70170  0.92640  0.12060  Biso   1.000  H
  C30      1.0000 0.64750  0.02530  0.12473  Biso   1.000  C
  H16      1.0000 0.69950  0.04950  0.12920  Biso   1.000  H
  C31      1.0000 0.50130  0.02874  0.11733  Biso   1.000  C
  H17      1.0000 0.45000  0.05520  0.11710  Biso   1.000  H
  C32      1.0000 0.49710  0.95447  0.11110  Biso   1.000  C
  H18      1.0000 0.44410  0.93210  0.10600  Biso   1.000  H
  N1       1.0000 0.57689  0.44389  0.11832  Biso   1.000  N
  N2       1.0000 0.57518  0.06428  0.12372  Biso   1.000  N
  N3       1.0000 0.46063  0.68690  0.05220  Biso   1.000  N
  N4       1.0000 0.45811  0.82250  0.05369  Biso   1.000  N
  O1       1.0000 0.65621  0.31784  0.17487  Biso   1.000  O
  O2       1.0000 0.66241  0.19668  0.17289  Biso   1.000  O
  O3       1.0000 0.97271  0.31909  0.33387  Biso   1.000  O
  O4       1.0000 0.97839  0.19777  0.33034  Biso   1.000  O
  O5       1.0000 0.67358  0.31319  0.08324  Biso   1.000  O
  O6       1.0000 0.66778  0.19234  0.08122  Biso   1.000  O
  O7       1.0000 0.98301  0.30988  0.92195  Biso   1.000  O
  O8       1.0000 0.98962  0.18874  0.92560  Biso   1.000  O
  S1       1.0000 0.41370  0.75477  0.02929  Biso   1.000  S
  Zn1      1.0000 0.57349  0.33355  0.12421  Biso   1.000  Zn
  Zn2      1.0000 0.57366  0.17462  0.12595  Biso   1.000  Zn
  C33      1.0000 0.18300  0.24243  0.81216  Biso   1.000  C
  C34      1.0000 0.24860  0.24177  0.77610  Biso   1.000  C
  C35      1.0000 0.27980  0.30690  0.75916  Biso   1.000  C
  H19      1.0000 0.25790  0.35090  0.76920  Biso   1.000  H
  C36      1.0000 0.34290  0.30677  0.72766  Biso   1.000  C
  H20      1.0000 0.36310  0.35060  0.71670  Biso   1.000  H
  C37      1.0000 0.37622  0.24146  0.71229  Biso   1.000  C
  C38      1.0000 0.34390  0.17647  0.72856  Biso   1.000  C
  H21      1.0000 0.36490  0.13250  0.71810  Biso   1.000  H
  C39      1.0000 0.28070  0.17663  0.76012  Biso   1.000  C
  H22      1.0000 0.25970  0.13270  0.77070  Biso   1.000  H
  C40      1.0000 0.44770  0.24120  0.67961  Biso   1.000  C
  C41      1.0000 0.19760  0.24750  0.93070  Biso   1.000  C
  C42      1.0000 0.26620  0.24826  0.96484  Biso   1.000  C
  C43      1.0000 0.30270  0.18400  0.97902  Biso   1.000  C
  H23      1.0000 0.28480  0.14000  0.96720  Biso   1.000  H
  C44      1.0000 0.36560  0.18463  0.01064  Biso   1.000  C
  H24      1.0000 0.39000  0.14110  0.01980  Biso   1.000  H
  C45      1.0000 0.39260  0.24984  0.02876  Biso   1.000  C
  C46      1.0000 0.35560  0.31431  0.01442  Biso   1.000  C
  H25      1.0000 0.37320  0.35840  0.02620  Biso   1.000  H
  C47      1.0000 0.29300  0.31339  0.98284  Biso   1.000  C
  H26      1.0000 0.26850  0.35690  0.97360  Biso   1.000  H
  C48      1.0000 0.46010  0.25064  0.06353  Biso   1.000  C
  C49      1.0000 0.09190  0.01380  0.84761  Biso   1.000  C
  H27      1.0000 0.10360  0.03590  0.82130  Biso   1.000  H
  C50      1.0000 0.09090  0.93927  0.84952  Biso   1.000  C
  H28      1.0000 0.10130  0.91190  0.82490  Biso   1.000  H
  C51      1.0000 0.07390  0.90442  0.88892  Biso   1.000  C
  C52      1.0000 0.05980  0.94858  0.92427  Biso   1.000  C
  H29      1.0000 0.04880  0.92810  0.95110  Biso   1.000  H
  C53      1.0000 0.06220  0.02354  0.91941  Biso   1.000  C
  H30      1.0000 0.05320  0.05250  0.94350  Biso   1.000  H
  C54      1.0000 0.07200  0.82430  0.89079  Biso   1.000  C
  C55      1.0000 0.01620  0.78477  0.91878  Biso   1.000  C
  C56      1.0000 0.01480  0.70623  0.91800  Biso   1.000  C
  C57      1.0000 0.07100  0.66667  0.89031  Biso   1.000  C
  C58      1.0000 0.12520  0.70744  0.86506  Biso   1.000  C
  H31      1.0000 0.16360  0.68350  0.84690  Biso   1.000  H
  C59      1.0000 0.12510  0.78376  0.86534  Biso   1.000  C
  H32      1.0000 0.16330  0.80790  0.84720  Biso   1.000  H
  C60      1.0000 0.07230  0.58666  0.88746  Biso   1.000  C
  C61      1.0000 0.14940  0.54870  0.88048  Biso   1.000  C
  H33      1.0000 0.20170  0.57360  0.87940  Biso   1.000  H
  C62      1.0000 0.14750  0.47470  0.87527  Biso   1.000  C
  H34      1.0000 0.19950  0.45050  0.87080  Biso   1.000  H
  C63      1.0000 0.00130  0.47126  0.88267  Biso   1.000  C
  H35      1.0000 0.95000  0.44480  0.88290  Biso   1.000  H
  C64      1.0000 0.99710  0.54553  0.88890  Biso   1.000  C
  H36      1.0000 0.94410  0.56790  0.89400  Biso   1.000  H
  N5       1.0000 0.07689  0.05611  0.88168  Biso   1.000  N
  N6       1.0000 0.07518  0.43572  0.87628  Biso   1.000  N
  N7       1.0000 0.96063  0.81310  0.94780  Biso   1.000  N
  N8       1.0000 0.95811  0.67750  0.94631  Biso   1.000  N
  O9       1.0000 0.15621  0.18216  0.82513  Biso   1.000  O
  O10      1.0000 0.16241  0.30332  0.82711  Biso   1.000  O
  O11      1.0000 0.47271  0.18091  0.66613  Biso   1.000  O
  O12      1.0000 0.47839  0.30223  0.66966  Biso   1.000  O
  O13      1.0000 0.17358  0.18681  0.91676  Biso   1.000  O
  O14      1.0000 0.16778  0.30766  0.91878  Biso   1.000  O
  O15      1.0000 0.48301  0.19012  0.07805  Biso   1.000  O
  O16      1.0000 0.48962  0.31126  0.07440  Biso   1.000  O
  S2       1.0000 0.91370  0.74523  0.97071  Biso   1.000  S
  Zn3      1.0000 0.07349  0.16645  0.87579  Biso   1.000  Zn
  Zn4      1.0000 0.07366  0.32538  0.87405  Biso   1.000  Zn
  C65      1.0000 0.18300  0.25757  0.31216  Biso   1.000  C
  C66      1.0000 0.24860  0.25823  0.27610  Biso   1.000  C
  C67      1.0000 0.27980  0.19310  0.25916  Biso   1.000  C
  H37      1.0000 0.25790  0.14910  0.26920  Biso   1.000  H
  C68      1.0000 0.34290  0.19323  0.22766  Biso   1.000  C
  H38      1.0000 0.36310  0.14940  0.21670  Biso   1.000  H
  C69      1.0000 0.37622  0.25854  0.21229  Biso   1.000  C
  C70      1.0000 0.34390  0.32353  0.22856  Biso   1.000  C
  H39      1.0000 0.36490  0.36750  0.21810  Biso   1.000  H
  C71      1.0000 0.28070  0.32337  0.26012  Biso   1.000  C
  H40      1.0000 0.25970  0.36730  0.27070  Biso   1.000  H
  C72      1.0000 0.44770  0.25880  0.17961  Biso   1.000  C
  C73      1.0000 0.19760  0.25250  0.43070  Biso   1.000  C
  C74      1.0000 0.26620  0.25174  0.46484  Biso   1.000  C
  C75      1.0000 0.30270  0.31600  0.47902  Biso   1.000  C
  H41      1.0000 0.28480  0.36000  0.46720  Biso   1.000  H
  C76      1.0000 0.36560  0.31537  0.51064  Biso   1.000  C
  H42      1.0000 0.39000  0.35890  0.51980  Biso   1.000  H
  C77      1.0000 0.39260  0.25016  0.52876  Biso   1.000  C
  C78      1.0000 0.35560  0.18569  0.51442  Biso   1.000  C
  H43      1.0000 0.37320  0.14160  0.52620  Biso   1.000  H
  C79      1.0000 0.29300  0.18661  0.48284  Biso   1.000  C
  H44      1.0000 0.26850  0.14310  0.47360  Biso   1.000  H
  C80      1.0000 0.46010  0.24936  0.56353  Biso   1.000  C
  C81      1.0000 0.09190  0.48620  0.34761  Biso   1.000  C
  H45      1.0000 0.10360  0.46410  0.32130  Biso   1.000  H
  C82      1.0000 0.09090  0.56073  0.34952  Biso   1.000  C
  H46      1.0000 0.10130  0.58810  0.32490  Biso   1.000  H
  C83      1.0000 0.07390  0.59558  0.38892  Biso   1.000  C
  C84      1.0000 0.05980  0.55142  0.42427  Biso   1.000  C
  H47      1.0000 0.04880  0.57190  0.45110  Biso   1.000  H
  C85      1.0000 0.06220  0.47646  0.41941  Biso   1.000  C
  H48      1.0000 0.05320  0.44750  0.44350  Biso   1.000  H
  C86      1.0000 0.07200  0.67570  0.39079  Biso   1.000  C
  C87      1.0000 0.01620  0.71523  0.41878  Biso   1.000  C
  C88      1.0000 0.01480  0.79377  0.41800  Biso   1.000  C
  C89      1.0000 0.07100  0.83333  0.39031  Biso   1.000  C
  C90      1.0000 0.12520  0.79256  0.36506  Biso   1.000  C
  H49      1.0000 0.16360  0.81650  0.34690  Biso   1.000  H
  C91      1.0000 0.12510  0.71624  0.36534  Biso   1.000  C
  H50      1.0000 0.16330  0.69210  0.34720  Biso   1.000  H
  C92      1.0000 0.07230  0.91334  0.38746  Biso   1.000  C
  C93      1.0000 0.14940  0.95130  0.38048  Biso   1.000  C
  H51      1.0000 0.20170  0.92640  0.37940  Biso   1.000  H
  C94      1.0000 0.14750  0.02530  0.37527  Biso   1.000  C
  H52      1.0000 0.19950  0.04950  0.37080  Biso   1.000  H
  C95      1.0000 0.00130  0.02874  0.38267  Biso   1.000  C
  H53      1.0000 0.95000  0.05520  0.38290  Biso   1.000  H
  C96      1.0000 0.99710  0.95447  0.38890  Biso   1.000  C
  H54      1.0000 0.94410  0.93210  0.39400  Biso   1.000  H
  N9       1.0000 0.07689  0.44389  0.38168  Biso   1.000  N
  N10      1.0000 0.07518  0.06428  0.37628  Biso   1.000  N
  N11      1.0000 0.96063  0.68690  0.44780  Biso   1.000  N
  N12      1.0000 0.95811  0.82250  0.44631  Biso   1.000  N
  O17      1.0000 0.15621  0.31784  0.32513  Biso   1.000  O
  O18      1.0000 0.16241  0.19668  0.32711  Biso   1.000  O
  O19      1.0000 0.47271  0.31909  0.16613  Biso   1.000  O
  O20      1.0000 0.47839  0.19777  0.16966  Biso   1.000  O
  O21      1.0000 0.17358  0.31319  0.41676  Biso   1.000  O
  O22      1.0000 0.16778  0.19234  0.41878  Biso   1.000  O
  O23      1.0000 0.48301  0.30988  0.57805  Biso   1.000  O
  O24      1.0000 0.48962  0.18874  0.57440  Biso   1.000  O
  S3       1.0000 0.91370  0.75477  0.47071  Biso   1.000  S
  Zn5      1.0000 0.07349  0.33355  0.37579  Biso   1.000  Zn
  Zn6      1.0000 0.07366  0.17462  0.37405  Biso   1.000  Zn
  C97      1.0000 0.68300  0.24243  0.68784  Biso   1.000  C
  C98      1.0000 0.74860  0.24177  0.72390  Biso   1.000  C
  C99      1.0000 0.77980  0.30690  0.74084  Biso   1.000  C
  H55      1.0000 0.75790  0.35090  0.73080  Biso   1.000  H
  C100     1.0000 0.84290  0.30677  0.77234  Biso   1.000  C
  H56      1.0000 0.86310  0.35060  0.78330  Biso   1.000  H
  C101     1.0000 0.87622  0.24146  0.78771  Biso   1.000  C
  C102     1.0000 0.84390  0.17647  0.77144  Biso   1.000  C
  H57      1.0000 0.86490  0.13250  0.78190  Biso   1.000  H
  C103     1.0000 0.78070  0.17663  0.73988  Biso   1.000  C
  H58      1.0000 0.75970  0.13270  0.72930  Biso   1.000  H
  C104     1.0000 0.94770  0.24120  0.82039  Biso   1.000  C
  C105     1.0000 0.69760  0.24750  0.56930  Biso   1.000  C
  C106     1.0000 0.76620  0.24826  0.53516  Biso   1.000  C
  C107     1.0000 0.80270  0.18400  0.52098  Biso   1.000  C
  H59      1.0000 0.78480  0.14000  0.53280  Biso   1.000  H
  C108     1.0000 0.86560  0.18463  0.48936  Biso   1.000  C
  H60      1.0000 0.89000  0.14110  0.48020  Biso   1.000  H
  C109     1.0000 0.89260  0.24984  0.47124  Biso   1.000  C
  C110     1.0000 0.85560  0.31431  0.48558  Biso   1.000  C
  H61      1.0000 0.87320  0.35840  0.47380  Biso   1.000  H
  C111     1.0000 0.79300  0.31339  0.51716  Biso   1.000  C
  H62      1.0000 0.76850  0.35690  0.52640  Biso   1.000  H
  C112     1.0000 0.96010  0.25064  0.43647  Biso   1.000  C
  C113     1.0000 0.59190  0.01380  0.65239  Biso   1.000  C
  H63      1.0000 0.60360  0.03590  0.67870  Biso   1.000  H
  C114     1.0000 0.59090  0.93927  0.65048  Biso   1.000  C
  H64      1.0000 0.60130  0.91190  0.67510  Biso   1.000  H
  C115     1.0000 0.57390  0.90442  0.61108  Biso   1.000  C
  C116     1.0000 0.55980  0.94858  0.57573  Biso   1.000  C
  H65      1.0000 0.54880  0.92810  0.54890  Biso   1.000  H
  C117     1.0000 0.56220  0.02354  0.58059  Biso   1.000  C
  H66      1.0000 0.55320  0.05250  0.55650  Biso   1.000  H
  C118     1.0000 0.57200  0.82430  0.60921  Biso   1.000  C
  C119     1.0000 0.51620  0.78477  0.58122  Biso   1.000  C
  C120     1.0000 0.51480  0.70623  0.58200  Biso   1.000  C
  C121     1.0000 0.57100  0.66667  0.60969  Biso   1.000  C
  C122     1.0000 0.62520  0.70744  0.63494  Biso   1.000  C
  H67      1.0000 0.66360  0.68350  0.65310  Biso   1.000  H
  C123     1.0000 0.62510  0.78376  0.63466  Biso   1.000  C
  H68      1.0000 0.66330  0.80790  0.65280  Biso   1.000  H
  C124     1.0000 0.57230  0.58666  0.61254  Biso   1.000  C
  C125     1.0000 0.64940  0.54870  0.61952  Biso   1.000  C
  H69      1.0000 0.70170  0.57360  0.62060  Biso   1.000  H
  C126     1.0000 0.64750  0.47470  0.62473  Biso   1.000  C
  H70      1.0000 0.69950  0.45050  0.62920  Biso   1.000  H
  C127     1.0000 0.50130  0.47126  0.61733  Biso   1.000  C
  H71      1.0000 0.45000  0.44480  0.61710  Biso   1.000  H
  C128     1.0000 0.49710  0.54553  0.61110  Biso   1.000  C
  H72      1.0000 0.44410  0.56790  0.60600  Biso   1.000  H
  N13      1.0000 0.57689  0.05611  0.61832  Biso   1.000  N
  N14      1.0000 0.57518  0.43572  0.62372  Biso   1.000  N
  N15      1.0000 0.46063  0.81310  0.55220  Biso   1.000  N
  N16      1.0000 0.45811  0.67750  0.55369  Biso   1.000  N
  O25      1.0000 0.65621  0.18216  0.67487  Biso   1.000  O
  O26      1.0000 0.66241  0.30332  0.67289  Biso   1.000  O
  O27      1.0000 0.97271  0.18091  0.83387  Biso   1.000  O
  O28      1.0000 0.97839  0.30223  0.83034  Biso   1.000  O
  O29      1.0000 0.67358  0.18681  0.58324  Biso   1.000  O
  O30      1.0000 0.66778  0.30766  0.58122  Biso   1.000  O
  O31      1.0000 0.98301  0.19012  0.42195  Biso   1.000  O
  O32      1.0000 0.98962  0.31126  0.42560  Biso   1.000  O
  S4       1.0000 0.41370  0.74523  0.52929  Biso   1.000  S
  Zn7      1.0000 0.57349  0.16645  0.62421  Biso   1.000  Zn
  Zn8      1.0000 0.57366  0.32538  0.62595  Biso   1.000  Zn
  C129     1.0000 0.81700  0.74243  0.68784  Biso   1.000  C
  C130     1.0000 0.75140  0.74177  0.72390  Biso   1.000  C
  C131     1.0000 0.72020  0.80690  0.74084  Biso   1.000  C
  H73      1.0000 0.74210  0.85090  0.73080  Biso   1.000  H
  C132     1.0000 0.65710  0.80677  0.77234  Biso   1.000  C
  H74      1.0000 0.63690  0.85060  0.78330  Biso   1.000  H
  C133     1.0000 0.62378  0.74146  0.78771  Biso   1.000  C
  C134     1.0000 0.65610  0.67647  0.77144  Biso   1.000  C
  H75      1.0000 0.63510  0.63250  0.78190  Biso   1.000  H
  C135     1.0000 0.71930  0.67663  0.73988  Biso   1.000  C
  H76      1.0000 0.74030  0.63270  0.72930  Biso   1.000  H
  C136     1.0000 0.55230  0.74120  0.82039  Biso   1.000  C
  C137     1.0000 0.80240  0.74750  0.56930  Biso   1.000  C
  C138     1.0000 0.73380  0.74826  0.53516  Biso   1.000  C
  C139     1.0000 0.69730  0.68400  0.52098  Biso   1.000  C
  H77      1.0000 0.71520  0.64000  0.53280  Biso   1.000  H
  C140     1.0000 0.63440  0.68463  0.48936  Biso   1.000  C
  H78      1.0000 0.61000  0.64110  0.48020  Biso   1.000  H
  C141     1.0000 0.60740  0.74984  0.47124  Biso   1.000  C
  C142     1.0000 0.64440  0.81431  0.48558  Biso   1.000  C
  H79      1.0000 0.62680  0.85840  0.47380  Biso   1.000  H
  C143     1.0000 0.70700  0.81339  0.51716  Biso   1.000  C
  H80      1.0000 0.73150  0.85690  0.52640  Biso   1.000  H
  C144     1.0000 0.53990  0.75064  0.43647  Biso   1.000  C
  C145     1.0000 0.90810  0.51380  0.65239  Biso   1.000  C
  H81      1.0000 0.89640  0.53590  0.67870  Biso   1.000  H
  C146     1.0000 0.90910  0.43927  0.65048  Biso   1.000  C
  H82      1.0000 0.89870  0.41190  0.67510  Biso   1.000  H
  C147     1.0000 0.92610  0.40442  0.61108  Biso   1.000  C
  C148     1.0000 0.94020  0.44858  0.57573  Biso   1.000  C
  H83      1.0000 0.95120  0.42810  0.54890  Biso   1.000  H
  C149     1.0000 0.93780  0.52354  0.58059  Biso   1.000  C
  H84      1.0000 0.94680  0.55250  0.55650  Biso   1.000  H
  C150     1.0000 0.92800  0.32430  0.60921  Biso   1.000  C
  C151     1.0000 0.98380  0.28477  0.58122  Biso   1.000  C
  C152     1.0000 0.98520  0.20623  0.58200  Biso   1.000  C
  C153     1.0000 0.92900  0.16667  0.60969  Biso   1.000  C
  C154     1.0000 0.87480  0.20744  0.63494  Biso   1.000  C
  H85      1.0000 0.83640  0.18350  0.65310  Biso   1.000  H
  C155     1.0000 0.87490  0.28376  0.63466  Biso   1.000  C
  H86      1.0000 0.83670  0.30790  0.65280  Biso   1.000  H
  C156     1.0000 0.92770  0.08666  0.61254  Biso   1.000  C
  C157     1.0000 0.85060  0.04870  0.61952  Biso   1.000  C
  H87      1.0000 0.79830  0.07360  0.62060  Biso   1.000  H
  C158     1.0000 0.85250  0.97470  0.62473  Biso   1.000  C
  H88      1.0000 0.80050  0.95050  0.62920  Biso   1.000  H
  C159     1.0000 0.99870  0.97126  0.61733  Biso   1.000  C
  H89      1.0000 0.05000  0.94480  0.61710  Biso   1.000  H
  C160     1.0000 0.00290  0.04553  0.61110  Biso   1.000  C
  H90      1.0000 0.05590  0.06790  0.60600  Biso   1.000  H
  N17      1.0000 0.92311  0.55611  0.61832  Biso   1.000  N
  N18      1.0000 0.92482  0.93572  0.62372  Biso   1.000  N
  N19      1.0000 0.03937  0.31310  0.55220  Biso   1.000  N
  N20      1.0000 0.04189  0.17750  0.55369  Biso   1.000  N
  O33      1.0000 0.84379  0.68216  0.67487  Biso   1.000  O
  O34      1.0000 0.83759  0.80332  0.67289  Biso   1.000  O
  O35      1.0000 0.52729  0.68091  0.83387  Biso   1.000  O
  O36      1.0000 0.52161  0.80223  0.83034  Biso   1.000  O
  O37      1.0000 0.82642  0.68681  0.58324  Biso   1.000  O
  O38      1.0000 0.83222  0.80766  0.58122  Biso   1.000  O
  O39      1.0000 0.51699  0.69012  0.42195  Biso   1.000  O
  O40      1.0000 0.51038  0.81126  0.42560  Biso   1.000  O
  S5       1.0000 0.08630  0.24523  0.52929  Biso   1.000  S
  Zn9      1.0000 0.92651  0.66645  0.62421  Biso   1.000  Zn
  Zn10     1.0000 0.92634  0.82538  0.62595  Biso   1.000  Zn
  C161     1.0000 0.31700  0.75757  0.31216  Biso   1.000  C
  C162     1.0000 0.25140  0.75823  0.27610  Biso   1.000  C
  C163     1.0000 0.22020  0.69310  0.25916  Biso   1.000  C
  H91      1.0000 0.24210  0.64910  0.26920  Biso   1.000  H
  C164     1.0000 0.15710  0.69323  0.22766  Biso   1.000  C
  H92      1.0000 0.13690  0.64940  0.21670  Biso   1.000  H
  C165     1.0000 0.12378  0.75854  0.21229  Biso   1.000  C
  C166     1.0000 0.15610  0.82353  0.22856  Biso   1.000  C
  H93      1.0000 0.13510  0.86750  0.21810  Biso   1.000  H
  C167     1.0000 0.21930  0.82337  0.26012  Biso   1.000  C
  H94      1.0000 0.24030  0.86730  0.27070  Biso   1.000  H
  C168     1.0000 0.05230  0.75880  0.17961  Biso   1.000  C
  C169     1.0000 0.30240  0.75250  0.43070  Biso   1.000  C
  C170     1.0000 0.23380  0.75174  0.46484  Biso   1.000  C
  C171     1.0000 0.19730  0.81600  0.47902  Biso   1.000  C
  H95      1.0000 0.21520  0.86000  0.46720  Biso   1.000  H
  C172     1.0000 0.13440  0.81537  0.51064  Biso   1.000  C
  H96      1.0000 0.11000  0.85890  0.51980  Biso   1.000  H
  C173     1.0000 0.10740  0.75016  0.52876  Biso   1.000  C
  C174     1.0000 0.14440  0.68569  0.51442  Biso   1.000  C
  H97      1.0000 0.12680  0.64160  0.52620  Biso   1.000  H
  C175     1.0000 0.20700  0.68661  0.48284  Biso   1.000  C
  H98      1.0000 0.23150  0.64310  0.47360  Biso   1.000  H
  C176     1.0000 0.03990  0.74936  0.56353  Biso   1.000  C
  C177     1.0000 0.40810  0.98620  0.34761  Biso   1.000  C
  H99      1.0000 0.39640  0.96410  0.32130  Biso   1.000  H
  C178     1.0000 0.40910  0.06073  0.34952  Biso   1.000  C
  H100     1.0000 0.39870  0.08810  0.32490  Biso   1.000  H
  C179     1.0000 0.42610  0.09558  0.38892  Biso   1.000  C
  C180     1.0000 0.44020  0.05142  0.42427  Biso   1.000  C
  H101     1.0000 0.45120  0.07190  0.45110  Biso   1.000  H
  C181     1.0000 0.43780  0.97646  0.41941  Biso   1.000  C
  H102     1.0000 0.44680  0.94750  0.44350  Biso   1.000  H
  C182     1.0000 0.42800  0.17570  0.39079  Biso   1.000  C
  C183     1.0000 0.48380  0.21523  0.41878  Biso   1.000  C
  C184     1.0000 0.48520  0.29377  0.41800  Biso   1.000  C
  C185     1.0000 0.42900  0.33333  0.39031  Biso   1.000  C
  C186     1.0000 0.37480  0.29256  0.36506  Biso   1.000  C
  H103     1.0000 0.33640  0.31650  0.34690  Biso   1.000  H
  C187     1.0000 0.37490  0.21624  0.36534  Biso   1.000  C
  H104     1.0000 0.33670  0.19210  0.34720  Biso   1.000  H
  C188     1.0000 0.42770  0.41334  0.38746  Biso   1.000  C
  C189     1.0000 0.35060  0.45130  0.38048  Biso   1.000  C
  H105     1.0000 0.29830  0.42640  0.37940  Biso   1.000  H
  C190     1.0000 0.35250  0.52530  0.37527  Biso   1.000  C
  H106     1.0000 0.30050  0.54950  0.37080  Biso   1.000  H
  C191     1.0000 0.49870  0.52874  0.38267  Biso   1.000  C
  H107     1.0000 0.55000  0.55520  0.38290  Biso   1.000  H
  C192     1.0000 0.50290  0.45447  0.38890  Biso   1.000  C
  H108     1.0000 0.55590  0.43210  0.39400  Biso   1.000  H
  N21      1.0000 0.42311  0.94389  0.38168  Biso   1.000  N
  N22      1.0000 0.42482  0.56428  0.37628  Biso   1.000  N
  N23      1.0000 0.53937  0.18690  0.44780  Biso   1.000  N
  N24      1.0000 0.54189  0.32250  0.44631  Biso   1.000  N
  O41      1.0000 0.34379  0.81784  0.32513  Biso   1.000  O
  O42      1.0000 0.33759  0.69668  0.32711  Biso   1.000  O
  O43      1.0000 0.02729  0.81909  0.16613  Biso   1.000  O
  O44      1.0000 0.02161  0.69777  0.16966  Biso   1.000  O
  O45      1.0000 0.32642  0.81319  0.41676  Biso   1.000  O
  O46      1.0000 0.33222  0.69234  0.41878  Biso   1.000  O
  O47      1.0000 0.01699  0.80988  0.57805  Biso   1.000  O
  O48      1.0000 0.01038  0.68874  0.57440  Biso   1.000  O
  S6       1.0000 0.58630  0.25477  0.47071  Biso   1.000  S
  Zn11     1.0000 0.42651  0.83355  0.37579  Biso   1.000  Zn
  Zn12     1.0000 0.42634  0.67462  0.37405  Biso   1.000  Zn
  C193     1.0000 0.31700  0.74243  0.81216  Biso   1.000  C
  C194     1.0000 0.25140  0.74177  0.77610  Biso   1.000  C
  C195     1.0000 0.22020  0.80690  0.75916  Biso   1.000  C
  H109     1.0000 0.24210  0.85090  0.76920  Biso   1.000  H
  C196     1.0000 0.15710  0.80677  0.72766  Biso   1.000  C
  H110     1.0000 0.13690  0.85060  0.71670  Biso   1.000  H
  C197     1.0000 0.12378  0.74146  0.71229  Biso   1.000  C
  C198     1.0000 0.15610  0.67647  0.72856  Biso   1.000  C
  H111     1.0000 0.13510  0.63250  0.71810  Biso   1.000  H
  C199     1.0000 0.21930  0.67663  0.76012  Biso   1.000  C
  H112     1.0000 0.24030  0.63270  0.77070  Biso   1.000  H
  C200     1.0000 0.05230  0.74120  0.67961  Biso   1.000  C
  C201     1.0000 0.30240  0.74750  0.93070  Biso   1.000  C
  C202     1.0000 0.23380  0.74826  0.96484  Biso   1.000  C
  C203     1.0000 0.19730  0.68400  0.97902  Biso   1.000  C
  H113     1.0000 0.21520  0.64000  0.96720  Biso   1.000  H
  C204     1.0000 0.13440  0.68463  0.01064  Biso   1.000  C
  H114     1.0000 0.11000  0.64110  0.01980  Biso   1.000  H
  C205     1.0000 0.10740  0.74984  0.02876  Biso   1.000  C
  C206     1.0000 0.14440  0.81431  0.01442  Biso   1.000  C
  H115     1.0000 0.12680  0.85840  0.02620  Biso   1.000  H
  C207     1.0000 0.20700  0.81339  0.98284  Biso   1.000  C
  H116     1.0000 0.23150  0.85690  0.97360  Biso   1.000  H
  C208     1.0000 0.03990  0.75064  0.06353  Biso   1.000  C
  C209     1.0000 0.40810  0.51380  0.84761  Biso   1.000  C
  H117     1.0000 0.39640  0.53590  0.82130  Biso   1.000  H
  C210     1.0000 0.40910  0.43927  0.84952  Biso   1.000  C
  H118     1.0000 0.39870  0.41190  0.82490  Biso   1.000  H
  C211     1.0000 0.42610  0.40442  0.88892  Biso   1.000  C
  C212     1.0000 0.44020  0.44858  0.92427  Biso   1.000  C
  H119     1.0000 0.45120  0.42810  0.95110  Biso   1.000  H
  C213     1.0000 0.43780  0.52354  0.91941  Biso   1.000  C
  H120     1.0000 0.44680  0.55250  0.94350  Biso   1.000  H
  C214     1.0000 0.42800  0.32430  0.89079  Biso   1.000  C
  C215     1.0000 0.48380  0.28477  0.91878  Biso   1.000  C
  C216     1.0000 0.48520  0.20623  0.91800  Biso   1.000  C
  C217     1.0000 0.42900  0.16667  0.89031  Biso   1.000  C
  C218     1.0000 0.37480  0.20744  0.86506  Biso   1.000  C
  H121     1.0000 0.33640  0.18350  0.84690  Biso   1.000  H
  C219     1.0000 0.37490  0.28376  0.86534  Biso   1.000  C
  H122     1.0000 0.33670  0.30790  0.84720  Biso   1.000  H
  C220     1.0000 0.42770  0.08666  0.88746  Biso   1.000  C
  C221     1.0000 0.35060  0.04870  0.88048  Biso   1.000  C
  H123     1.0000 0.29830  0.07360  0.87940  Biso   1.000  H
  C222     1.0000 0.35250  0.97470  0.87527  Biso   1.000  C
  H124     1.0000 0.30050  0.95050  0.87080  Biso   1.000  H
  C223     1.0000 0.49870  0.97126  0.88267  Biso   1.000  C
  H125     1.0000 0.55000  0.94480  0.88290  Biso   1.000  H
  C224     1.0000 0.50290  0.04553  0.88890  Biso   1.000  C
  H126     1.0000 0.55590  0.06790  0.89400  Biso   1.000  H
  N25      1.0000 0.42311  0.55611  0.88168  Biso   1.000  N
  N26      1.0000 0.42482  0.93572  0.87628  Biso   1.000  N
  N27      1.0000 0.53937  0.31310  0.94780  Biso   1.000  N
  N28      1.0000 0.54189  0.17750  0.94631  Biso   1.000  N
  O49      1.0000 0.34379  0.68216  0.82513  Biso   1.000  O
  O50      1.0000 0.33759  0.80332  0.82711  Biso   1.000  O
  O51      1.0000 0.02729  0.68091  0.66613  Biso   1.000  O
  O52      1.0000 0.02161  0.80223  0.66966  Biso   1.000  O
  O53      1.0000 0.32642  0.68681  0.91676  Biso   1.000  O
  O54      1.0000 0.33222  0.80766  0.91878  Biso   1.000  O
  O55      1.0000 0.01699  0.69012  0.07805  Biso   1.000  O
  O56      1.0000 0.01038  0.81126  0.07440  Biso   1.000  O
  S7       1.0000 0.58630  0.24523  0.97071  Biso   1.000  S
  Zn13     1.0000 0.42651  0.66645  0.87579  Biso   1.000  Zn
  Zn14     1.0000 0.42634  0.82538  0.87405  Biso   1.000  Zn
  C225     1.0000 0.81700  0.75757  0.18784  Biso   1.000  C
  C226     1.0000 0.75140  0.75823  0.22390  Biso   1.000  C
  C227     1.0000 0.72020  0.69310  0.24084  Biso   1.000  C
  H127     1.0000 0.74210  0.64910  0.23080  Biso   1.000  H
  C228     1.0000 0.65710  0.69323  0.27234  Biso   1.000  C
  H128     1.0000 0.63690  0.64940  0.28330  Biso   1.000  H
  C229     1.0000 0.62378  0.75854  0.28771  Biso   1.000  C
  C230     1.0000 0.65610  0.82353  0.27144  Biso   1.000  C
  H129     1.0000 0.63510  0.86750  0.28190  Biso   1.000  H
  C231     1.0000 0.71930  0.82337  0.23988  Biso   1.000  C
  H130     1.0000 0.74030  0.86730  0.22930  Biso   1.000  H
  C232     1.0000 0.55230  0.75880  0.32039  Biso   1.000  C
  C233     1.0000 0.80240  0.75250  0.06930  Biso   1.000  C
  C234     1.0000 0.73380  0.75174  0.03516  Biso   1.000  C
  C235     1.0000 0.69730  0.81600  0.02098  Biso   1.000  C
  H131     1.0000 0.71520  0.86000  0.03280  Biso   1.000  H
  C236     1.0000 0.63440  0.81537  0.98936  Biso   1.000  C
  H132     1.0000 0.61000  0.85890  0.98020  Biso   1.000  H
  C237     1.0000 0.60740  0.75016  0.97124  Biso   1.000  C
  C238     1.0000 0.64440  0.68569  0.98558  Biso   1.000  C
  H133     1.0000 0.62680  0.64160  0.97380  Biso   1.000  H
  C239     1.0000 0.70700  0.68661  0.01716  Biso   1.000  C
  H134     1.0000 0.73150  0.64310  0.02640  Biso   1.000  H
  C240     1.0000 0.53990  0.74936  0.93647  Biso   1.000  C
  C241     1.0000 0.90810  0.98620  0.15239  Biso   1.000  C
  H135     1.0000 0.89640  0.96410  0.17870  Biso   1.000  H
  C242     1.0000 0.90910  0.06073  0.15048  Biso   1.000  C
  H136     1.0000 0.89870  0.08810  0.17510  Biso   1.000  H
  C243     1.0000 0.92610  0.09558  0.11108  Biso   1.000  C
  C244     1.0000 0.94020  0.05142  0.07573  Biso   1.000  C
  H137     1.0000 0.95120  0.07190  0.04890  Biso   1.000  H
  C245     1.0000 0.93780  0.97646  0.08059  Biso   1.000  C
  H138     1.0000 0.94680  0.94750  0.05650  Biso   1.000  H
  C246     1.0000 0.92800  0.17570  0.10921  Biso   1.000  C
  C247     1.0000 0.98380  0.21523  0.08122  Biso   1.000  C
  C248     1.0000 0.98520  0.29377  0.08200  Biso   1.000  C
  C249     1.0000 0.92900  0.33333  0.10969  Biso   1.000  C
  C250     1.0000 0.87480  0.29256  0.13494  Biso   1.000  C
  H139     1.0000 0.83640  0.31650  0.15310  Biso   1.000  H
  C251     1.0000 0.87490  0.21624  0.13466  Biso   1.000  C
  H140     1.0000 0.83670  0.19210  0.15280  Biso   1.000  H
  C252     1.0000 0.92770  0.41334  0.11254  Biso   1.000  C
  C253     1.0000 0.85060  0.45130  0.11952  Biso   1.000  C
  H141     1.0000 0.79830  0.42640  0.12060  Biso   1.000  H
  C254     1.0000 0.85250  0.52530  0.12473  Biso   1.000  C
  H142     1.0000 0.80050  0.54950  0.12920  Biso   1.000  H
  C255     1.0000 0.99870  0.52874  0.11733  Biso   1.000  C
  H143     1.0000 0.05000  0.55520  0.11710  Biso   1.000  H
  C256     1.0000 0.00290  0.45447  0.11110  Biso   1.000  C
  H144     1.0000 0.05590  0.43210  0.10600  Biso   1.000  H
  N29      1.0000 0.92311  0.94389  0.11832  Biso   1.000  N
  N30      1.0000 0.92482  0.56428  0.12372  Biso   1.000  N
  N31      1.0000 0.03937  0.18690  0.05220  Biso   1.000  N
  N32      1.0000 0.04189  0.32250  0.05369  Biso   1.000  N
  O57      1.0000 0.84379  0.81784  0.17487  Biso   1.000  O
  O58      1.0000 0.83759  0.69668  0.17289  Biso   1.000  O
  O59      1.0000 0.52729  0.81909  0.33387  Biso   1.000  O
  O60      1.0000 0.52161  0.69777  0.33034  Biso   1.000  O
  O61      1.0000 0.82642  0.81319  0.08324  Biso   1.000  O
  O62      1.0000 0.83222  0.69234  0.08122  Biso   1.000  O
  O63      1.0000 0.51699  0.80988  0.92195  Biso   1.000  O
  O64      1.0000 0.51038  0.68874  0.92560  Biso   1.000  O
  S8       1.0000 0.08630  0.25477  0.02929  Biso   1.000  S
  Zn15     1.0000 0.92651  0.83355  0.12421  Biso   1.000  Zn
  Zn16     1.0000 0.92634  0.67462  0.12595  Biso   1.000  Zn
