data_image0
_cell_length_a       22.4258
_cell_length_b       22.4258
_cell_length_c       10.919
_cell_angle_alpha    90
_cell_angle_beta     90
_cell_angle_gamma    120

_symmetry_space_group_name_H-M    "P 1"
_symmetry_int_tables_number       1

loop_
  _symmetry_equiv_pos_as_xyz
  'x, y, z'

loop_
  _atom_site_label
  _atom_site_occupancy
  _atom_site_fract_x
  _atom_site_fract_y
  _atom_site_fract_z
  _atom_site_thermal_displace_type
  _atom_site_B_iso_or_equiv
  _atom_site_type_symbol
  C1       1.0000 0.44270  0.32600  0.07990  Biso   1.000  C
  C2       1.0000 0.48080  0.28990  0.12310  Biso   1.000  C
  C3       1.0000 0.44410  0.22250  0.16380  Biso   1.000  C
  H1       1.0000 0.39620  0.19930  0.16690  Biso   1.000  H
  C4       1.0000 0.48160  0.18940  0.20110  Biso   1.000  C
  C5       1.0000 0.55050  0.22210  0.18510  Biso   1.000  C
  H2       1.0000 0.57410  0.19950  0.20790  Biso   1.000  H
  C6       1.0000 0.58590  0.28490  0.13840  Biso   1.000  C
  C7       1.0000 0.55150  0.32300  0.11250  Biso   1.000  C
  H3       1.0000 0.57630  0.36900  0.08910  Biso   1.000  H
  C8       1.0000 0.44080  0.11690  0.24610  Biso   1.000  C
  C9       1.0000 0.66290  0.32150  0.11100  Biso   1.000  C
  C10      1.0000 0.70690  0.39150  0.11250  Biso   1.000  C
  H4       1.0000 0.68830  0.41990  0.12460  Biso   1.000  H
  C11      1.0000 0.77150  0.41940  0.09830  Biso   1.000  C
  H5       1.0000 0.79880  0.46720  0.09860  Biso   1.000  H
  C12      1.0000 0.80190  0.37800  0.08190  Biso   1.000  C
  H6       1.0000 0.84930  0.39700  0.07460  Biso   1.000  H
  C13      1.0000 0.75760  0.30780  0.07740  Biso   1.000  C
  C14      1.0000 0.78250  0.25850  0.05000  Biso   1.000  C
  C15      1.0000 0.75380  0.19440  0.10540  Biso   1.000  C
  H7       1.0000 0.71870  0.18200  0.16240  Biso   1.000  H
  C16      1.0000 0.77660  0.14770  0.07740  Biso   1.000  C
  C17      1.0000 0.83400  0.16790  0.00060  Biso   1.000  C
  H8       1.0000 0.85370  0.14020  0.99240  Biso   1.000  H
  C18      1.0000 0.86030  0.22860  0.93820  Biso   1.000  C
  C19      1.0000 0.83630  0.27690  0.96940  Biso   1.000  C
  H9       1.0000 0.85770  0.32050  0.93420  Biso   1.000  H
  C20      1.0000 0.74820  0.08130  0.14940  Biso   1.000  C
  C21      1.0000 0.91940  0.25150  0.85190  Biso   1.000  C
  O1       1.0000 0.94930  0.31520  0.81980  Biso   1.000  O
  N1       1.0000 0.68930  0.27890  0.09780  Biso   1.000  N
  O2       1.0000 0.37590  0.28960  0.08700  Biso   1.000  O
  O3       1.0000 0.47230  0.38450  0.04270  Biso   1.000  O
  O4       1.0000 0.37600  0.08870  0.24650  Biso   1.000  O
  O5       1.0000 0.47140  0.08600  0.28190  Biso   1.000  O
  O6       1.0000 0.68700  0.05350  0.18320  Biso   1.000  O
  O7       1.0000 0.78670  0.05850  0.18020  Biso   1.000  O
  O8       1.0000 0.93520  0.20840  0.81820  Biso   1.000  O
  C22      1.0000 0.67400  0.11670  0.41323  Biso   1.000  C
  C23      1.0000 0.71010  0.19090  0.45643  Biso   1.000  C
  C24      1.0000 0.77750  0.22160  0.49713  Biso   1.000  C
  H10      1.0000 0.80070  0.19690  0.50023  Biso   1.000  H
  C25      1.0000 0.81060  0.29220  0.53443  Biso   1.000  C
  C26      1.0000 0.77790  0.32840  0.51843  Biso   1.000  C
  H11      1.0000 0.80050  0.37460  0.54123  Biso   1.000  H
  C27      1.0000 0.71510  0.30100  0.47173  Biso   1.000  C
  C28      1.0000 0.67700  0.22850  0.44583  Biso   1.000  C
  H12      1.0000 0.63100  0.20730  0.42243  Biso   1.000  H
  C29      1.0000 0.88310  0.32390  0.57943  Biso   1.000  C
  C30      1.0000 0.67850  0.34140  0.44433  Biso   1.000  C
  C31      1.0000 0.60850  0.31540  0.44583  Biso   1.000  C
  H13      1.0000 0.58010  0.26840  0.45793  Biso   1.000  H
  C32      1.0000 0.58060  0.35210  0.43163  Biso   1.000  C
  H14      1.0000 0.53280  0.33160  0.43193  Biso   1.000  H
  C33      1.0000 0.62200  0.42390  0.41523  Biso   1.000  C
  H15      1.0000 0.60300  0.45230  0.40793  Biso   1.000  H
  C34      1.0000 0.69220  0.44980  0.41073  Biso   1.000  C
  C35      1.0000 0.74150  0.52400  0.38333  Biso   1.000  C
  C36      1.0000 0.80560  0.55940  0.43873  Biso   1.000  C
  H16      1.0000 0.81800  0.53670  0.49573  Biso   1.000  H
  C37      1.0000 0.85230  0.62890  0.41073  Biso   1.000  C
  C38      1.0000 0.83210  0.66610  0.33393  Biso   1.000  C
  H17      1.0000 0.85980  0.71350  0.32573  Biso   1.000  H
  C39      1.0000 0.77140  0.63170  0.27153  Biso   1.000  C
  C40      1.0000 0.72310  0.55940  0.30273  Biso   1.000  C
  H18      1.0000 0.67950  0.53720  0.26753  Biso   1.000  H
  C41      1.0000 0.91870  0.66690  0.48273  Biso   1.000  C
  C42      1.0000 0.74850  0.66790  0.18523  Biso   1.000  C
  O9       1.0000 0.68480  0.63410  0.15313  Biso   1.000  O
  N2       1.0000 0.72110  0.41040  0.43113  Biso   1.000  N
  O10      1.0000 0.71040  0.08630  0.42033  Biso   1.000  O
  O11      1.0000 0.61550  0.08780  0.37603  Biso   1.000  O
  O12      1.0000 0.91130  0.28730  0.57983  Biso   1.000  O
  O13      1.0000 0.91400  0.38540  0.61523  Biso   1.000  O
  O14      1.0000 0.94650  0.63350  0.51653  Biso   1.000  O
  O15      1.0000 0.94150  0.72820  0.51353  Biso   1.000  O
  O16      1.0000 0.79160  0.72680  0.15153  Biso   1.000  O
  C43      1.0000 0.88330  0.55730  0.74657  Biso   1.000  C
  C44      1.0000 0.80910  0.51920  0.78977  Biso   1.000  C
  C45      1.0000 0.77840  0.55590  0.83047  Biso   1.000  C
  H19      1.0000 0.80310  0.60380  0.83357  Biso   1.000  H
  C46      1.0000 0.70780  0.51840  0.86777  Biso   1.000  C
  C47      1.0000 0.67160  0.44950  0.85177  Biso   1.000  C
  H20      1.0000 0.62540  0.42590  0.87457  Biso   1.000  H
  C48      1.0000 0.69900  0.41410  0.80507  Biso   1.000  C
  C49      1.0000 0.77150  0.44850  0.77917  Biso   1.000  C
  H21      1.0000 0.79270  0.42370  0.75577  Biso   1.000  H
  C50      1.0000 0.67610  0.55920  0.91277  Biso   1.000  C
  C51      1.0000 0.65860  0.33710  0.77767  Biso   1.000  C
  C52      1.0000 0.68460  0.29310  0.77917  Biso   1.000  C
  H22      1.0000 0.73160  0.31170  0.79127  Biso   1.000  H
  C53      1.0000 0.64790  0.22850  0.76497  Biso   1.000  C
  H23      1.0000 0.66840  0.20120  0.76527  Biso   1.000  H
  C54      1.0000 0.57610  0.19810  0.74857  Biso   1.000  C
  H24      1.0000 0.54770  0.15070  0.74127  Biso   1.000  H
  C55      1.0000 0.55020  0.24240  0.74407  Biso   1.000  C
  C56      1.0000 0.47600  0.21750  0.71667  Biso   1.000  C
  C57      1.0000 0.44060  0.24620  0.77207  Biso   1.000  C
  H25      1.0000 0.46330  0.28130  0.82907  Biso   1.000  H
  C58      1.0000 0.37110  0.22340  0.74407  Biso   1.000  C
  C59      1.0000 0.33390  0.16600  0.66727  Biso   1.000  C
  H26      1.0000 0.28650  0.14630  0.65907  Biso   1.000  H
  C60      1.0000 0.36830  0.13970  0.60487  Biso   1.000  C
  C61      1.0000 0.44060  0.16370  0.63607  Biso   1.000  C
  H27      1.0000 0.46280  0.14230  0.60087  Biso   1.000  H
  C62      1.0000 0.33310  0.25180  0.81607  Biso   1.000  C
  C63      1.0000 0.33210  0.08060  0.51857  Biso   1.000  C
  O17      1.0000 0.36590  0.05070  0.48647  Biso   1.000  O
  N3       1.0000 0.58960  0.31070  0.76447  Biso   1.000  N
  O18      1.0000 0.91370  0.62410  0.75367  Biso   1.000  O
  O19      1.0000 0.91220  0.52770  0.70937  Biso   1.000  O
  O20      1.0000 0.71270  0.62400  0.91317  Biso   1.000  O
  O21      1.0000 0.61460  0.52860  0.94857  Biso   1.000  O
  O22      1.0000 0.36650  0.31300  0.84987  Biso   1.000  O
  O23      1.0000 0.27180  0.21330  0.84687  Biso   1.000  O
  O24      1.0000 0.27320  0.06480  0.48487  Biso   1.000  O
  C64      1.0000 0.32600  0.44270  0.92010  Biso   1.000  C
  C65      1.0000 0.28990  0.48080  0.87690  Biso   1.000  C
  C66      1.0000 0.22250  0.44410  0.83620  Biso   1.000  C
  H28      1.0000 0.19930  0.39620  0.83310  Biso   1.000  H
  C67      1.0000 0.18940  0.48160  0.79890  Biso   1.000  C
  C68      1.0000 0.22210  0.55050  0.81490  Biso   1.000  C
  H29      1.0000 0.19950  0.57410  0.79210  Biso   1.000  H
  C69      1.0000 0.28490  0.58590  0.86160  Biso   1.000  C
  C70      1.0000 0.32300  0.55150  0.88750  Biso   1.000  C
  H30      1.0000 0.36900  0.57630  0.91090  Biso   1.000  H
  C71      1.0000 0.11690  0.44080  0.75390  Biso   1.000  C
  C72      1.0000 0.32150  0.66290  0.88900  Biso   1.000  C
  C73      1.0000 0.39150  0.70690  0.88750  Biso   1.000  C
  H31      1.0000 0.41990  0.68830  0.87540  Biso   1.000  H
  C74      1.0000 0.41940  0.77150  0.90170  Biso   1.000  C
  H32      1.0000 0.46720  0.79880  0.90140  Biso   1.000  H
  C75      1.0000 0.37800  0.80190  0.91810  Biso   1.000  C
  H33      1.0000 0.39700  0.84930  0.92540  Biso   1.000  H
  C76      1.0000 0.30780  0.75760  0.92260  Biso   1.000  C
  C77      1.0000 0.25850  0.78250  0.95000  Biso   1.000  C
  C78      1.0000 0.19440  0.75380  0.89460  Biso   1.000  C
  H34      1.0000 0.18200  0.71870  0.83760  Biso   1.000  H
  C79      1.0000 0.14770  0.77660  0.92260  Biso   1.000  C
  C80      1.0000 0.16790  0.83400  0.99940  Biso   1.000  C
  H35      1.0000 0.14020  0.85370  0.00760  Biso   1.000  H
  C81      1.0000 0.22860  0.86030  0.06180  Biso   1.000  C
  C82      1.0000 0.27690  0.83630  0.03060  Biso   1.000  C
  H36      1.0000 0.32050  0.85770  0.06580  Biso   1.000  H
  C83      1.0000 0.08130  0.74820  0.85060  Biso   1.000  C
  C84      1.0000 0.25150  0.91940  0.14810  Biso   1.000  C
  O25      1.0000 0.31520  0.94930  0.18020  Biso   1.000  O
  N4       1.0000 0.27890  0.68930  0.90220  Biso   1.000  N
  O26      1.0000 0.28960  0.37590  0.91300  Biso   1.000  O
  O27      1.0000 0.38450  0.47230  0.95730  Biso   1.000  O
  O28      1.0000 0.08870  0.37600  0.75350  Biso   1.000  O
  O29      1.0000 0.08600  0.47140  0.71810  Biso   1.000  O
  O30      1.0000 0.05350  0.68700  0.81680  Biso   1.000  O
  O31      1.0000 0.05850  0.78670  0.81980  Biso   1.000  O
  O32      1.0000 0.20840  0.93520  0.18180  Biso   1.000  O
  C85      1.0000 0.11670  0.67400  0.58677  Biso   1.000  C
  C86      1.0000 0.19090  0.71010  0.54357  Biso   1.000  C
  C87      1.0000 0.22160  0.77750  0.50287  Biso   1.000  C
  H37      1.0000 0.19690  0.80070  0.49977  Biso   1.000  H
  C88      1.0000 0.29220  0.81060  0.46557  Biso   1.000  C
  C89      1.0000 0.32840  0.77790  0.48157  Biso   1.000  C
  H38      1.0000 0.37460  0.80050  0.45877  Biso   1.000  H
  C90      1.0000 0.30100  0.71510  0.52827  Biso   1.000  C
  C91      1.0000 0.22850  0.67700  0.55417  Biso   1.000  C
  H39      1.0000 0.20730  0.63100  0.57757  Biso   1.000  H
  C92      1.0000 0.32390  0.88310  0.42057  Biso   1.000  C
  C93      1.0000 0.34140  0.67850  0.55567  Biso   1.000  C
  C94      1.0000 0.31540  0.60850  0.55417  Biso   1.000  C
  H40      1.0000 0.26840  0.58010  0.54207  Biso   1.000  H
  C95      1.0000 0.35210  0.58060  0.56837  Biso   1.000  C
  H41      1.0000 0.33160  0.53280  0.56807  Biso   1.000  H
  C96      1.0000 0.42390  0.62200  0.58477  Biso   1.000  C
  H42      1.0000 0.45230  0.60300  0.59207  Biso   1.000  H
  C97      1.0000 0.44980  0.69220  0.58927  Biso   1.000  C
  C98      1.0000 0.52400  0.74150  0.61667  Biso   1.000  C
  C99      1.0000 0.55940  0.80560  0.56127  Biso   1.000  C
  H43      1.0000 0.53670  0.81800  0.50427  Biso   1.000  H
  C100     1.0000 0.62890  0.85230  0.58927  Biso   1.000  C
  C101     1.0000 0.66610  0.83210  0.66607  Biso   1.000  C
  H44      1.0000 0.71350  0.85980  0.67427  Biso   1.000  H
  C102     1.0000 0.63170  0.77140  0.72847  Biso   1.000  C
  C103     1.0000 0.55940  0.72310  0.69727  Biso   1.000  C
  H45      1.0000 0.53720  0.67950  0.73247  Biso   1.000  H
  C104     1.0000 0.66690  0.91870  0.51727  Biso   1.000  C
  C105     1.0000 0.66790  0.74850  0.81477  Biso   1.000  C
  O33      1.0000 0.63410  0.68480  0.84687  Biso   1.000  O
  N5       1.0000 0.41040  0.72110  0.56887  Biso   1.000  N
  O34      1.0000 0.08630  0.71040  0.57967  Biso   1.000  O
  O35      1.0000 0.08780  0.61550  0.62397  Biso   1.000  O
  O36      1.0000 0.28730  0.91130  0.42017  Biso   1.000  O
  O37      1.0000 0.38540  0.91400  0.38477  Biso   1.000  O
  O38      1.0000 0.63350  0.94650  0.48347  Biso   1.000  O
  O39      1.0000 0.72820  0.94150  0.48647  Biso   1.000  O
  O40      1.0000 0.72680  0.79160  0.84847  Biso   1.000  O
  C106     1.0000 0.55730  0.88330  0.25343  Biso   1.000  C
  C107     1.0000 0.51920  0.80910  0.21023  Biso   1.000  C
  C108     1.0000 0.55590  0.77840  0.16953  Biso   1.000  C
  H46      1.0000 0.60380  0.80310  0.16643  Biso   1.000  H
  C109     1.0000 0.51840  0.70780  0.13223  Biso   1.000  C
  C110     1.0000 0.44950  0.67160  0.14823  Biso   1.000  C
  H47      1.0000 0.42590  0.62540  0.12543  Biso   1.000  H
  C111     1.0000 0.41410  0.69900  0.19493  Biso   1.000  C
  C112     1.0000 0.44850  0.77150  0.22083  Biso   1.000  C
  H48      1.0000 0.42370  0.79270  0.24423  Biso   1.000  H
  C113     1.0000 0.55920  0.67610  0.08723  Biso   1.000  C
  C114     1.0000 0.33710  0.65860  0.22233  Biso   1.000  C
  C115     1.0000 0.29310  0.68460  0.22083  Biso   1.000  C
  H49      1.0000 0.31170  0.73160  0.20873  Biso   1.000  H
  C116     1.0000 0.22850  0.64790  0.23503  Biso   1.000  C
  H50      1.0000 0.20120  0.66840  0.23473  Biso   1.000  H
  C117     1.0000 0.19810  0.57610  0.25143  Biso   1.000  C
  H51      1.0000 0.15070  0.54770  0.25873  Biso   1.000  H
  C118     1.0000 0.24240  0.55020  0.25593  Biso   1.000  C
  C119     1.0000 0.21750  0.47600  0.28333  Biso   1.000  C
  C120     1.0000 0.24620  0.44060  0.22793  Biso   1.000  C
  H52      1.0000 0.28130  0.46330  0.17093  Biso   1.000  H
  C121     1.0000 0.22340  0.37110  0.25593  Biso   1.000  C
  C122     1.0000 0.16600  0.33390  0.33273  Biso   1.000  C
  H53      1.0000 0.14630  0.28650  0.34093  Biso   1.000  H
  C123     1.0000 0.13970  0.36830  0.39513  Biso   1.000  C
  C124     1.0000 0.16370  0.44060  0.36393  Biso   1.000  C
  H54      1.0000 0.14230  0.46280  0.39913  Biso   1.000  H
  C125     1.0000 0.25180  0.33310  0.18393  Biso   1.000  C
  C126     1.0000 0.08060  0.33210  0.48143  Biso   1.000  C
  O41      1.0000 0.05070  0.36590  0.51353  Biso   1.000  O
  N6       1.0000 0.31070  0.58960  0.23553  Biso   1.000  N
  O42      1.0000 0.62410  0.91370  0.24633  Biso   1.000  O
  O43      1.0000 0.52770  0.91220  0.29063  Biso   1.000  O
  O44      1.0000 0.62400  0.71270  0.08683  Biso   1.000  O
  O45      1.0000 0.52860  0.61460  0.05143  Biso   1.000  O
  O46      1.0000 0.31300  0.36650  0.15013  Biso   1.000  O
  O47      1.0000 0.21330  0.27180  0.15313  Biso   1.000  O
  O48      1.0000 0.06480  0.27320  0.51513  Biso   1.000  O
  Cu1      1.0000 0.33696  0.00000  0.33333  Biso   1.000  Cu
  Cu2      1.0000 0.00000  0.33696  0.66667  Biso   1.000  Cu
  Cu3      1.0000 0.66304  0.66304  0.00000  Biso   1.000  Cu
  Cu4      1.0000 0.33679  0.33679  0.00000  Biso   1.000  Cu
  Cu5      1.0000 0.66321  0.00000  0.33333  Biso   1.000  Cu
  Cu6      1.0000 0.00000  0.66321  0.66667  Biso   1.000  Cu
