data_image0
_cell_length_a       28.0134
_cell_length_b       17.8914
_cell_length_c       12.7629
_cell_angle_alpha    90
_cell_angle_beta     90
_cell_angle_gamma    90

_symmetry_space_group_name_H-M    "P 1"
_symmetry_int_tables_number       1

loop_
  _symmetry_equiv_pos_as_xyz
  'x, y, z'

loop_
  _atom_site_label
  _atom_site_occupancy
  _atom_site_fract_x
  _atom_site_fract_y
  _atom_site_fract_z
  _atom_site_thermal_displace_type
  _atom_site_B_iso_or_equiv
  _atom_site_type_symbol
  C1       1.0000 0.95610  0.30270  0.26050  Biso   1.000  C
  H1       1.0000 0.93090  0.31480  0.21130  Biso   1.000  H
  H2       1.0000 0.96230  0.34700  0.30230  Biso   1.000  H
  C2       1.0000 0.93910  0.24010  0.33230  Biso   1.000  C
  H3       1.0000 0.97220  0.29270  0.05690  Biso   1.000  H
  C3       1.0000 0.79530  0.01230  0.90710  Biso   1.000  C
  H4       1.0000 0.77890  0.02250  0.84530  Biso   1.000  H
  C4       1.0000 0.87190  0.01250  0.80490  Biso   1.000  C
  C5       1.0000 0.84460  0.00950  0.90720  Biso   1.000  C
  Mg1      1.0000 0.94600  0.05775  0.33951  Biso   1.000  Mg
  Mg2      1.0000 0.87712  0.05914  0.58191  Biso   1.000  Mg
  O1       1.0000 0.94741  0.17360  0.30040  Biso   1.000  O
  O2       1.0000 0.91690  0.25650  0.41330  Biso   1.000  O
  O3       1.0000 0.88711  0.05530  0.42510  Biso   1.000  O
  O4       1.0000 0.04575  0.44490  0.11660  Biso   1.000  O
  O5       1.0000 0.69634  0.04720  0.94180  Biso   1.000  O
  O6       1.0000 0.90468  0.96560  0.79320  Biso   1.000  O
  O7       1.0000 0.86018  0.06200  0.73880  Biso   1.000  O
  Ni1      1.0000 0.94600  0.94225  0.66049  Biso   1.000  Ni
  C6       1.0000 0.45610  0.80270  0.26050  Biso   1.000  C
  H5       1.0000 0.43090  0.81480  0.21130  Biso   1.000  H
  H6       1.0000 0.46230  0.84700  0.30230  Biso   1.000  H
  C7       1.0000 0.43910  0.74010  0.33230  Biso   1.000  C
  H7       1.0000 0.47220  0.79270  0.05690  Biso   1.000  H
  C8       1.0000 0.29530  0.51230  0.90710  Biso   1.000  C
  H8       1.0000 0.27890  0.52250  0.84530  Biso   1.000  H
  C9       1.0000 0.37190  0.51250  0.80490  Biso   1.000  C
  C10      1.0000 0.34460  0.50950  0.90720  Biso   1.000  C
  Mg3      1.0000 0.44600  0.55775  0.33951  Biso   1.000  Mg
  Mg4      1.0000 0.37712  0.55914  0.58191  Biso   1.000  Mg
  O8       1.0000 0.44741  0.67360  0.30040  Biso   1.000  O
  O9       1.0000 0.41690  0.75650  0.41330  Biso   1.000  O
  O10      1.0000 0.38711  0.55530  0.42510  Biso   1.000  O
  O11      1.0000 0.54575  0.94490  0.11660  Biso   1.000  O
  O12      1.0000 0.19634  0.54720  0.94180  Biso   1.000  O
  O13      1.0000 0.40468  0.46560  0.79320  Biso   1.000  O
  O14      1.0000 0.36018  0.56200  0.73880  Biso   1.000  O
  Ni2      1.0000 0.44600  0.44225  0.66049  Biso   1.000  Ni
  C11      1.0000 0.04390  0.19730  0.76050  Biso   1.000  C
  H9       1.0000 0.06910  0.18520  0.71130  Biso   1.000  H
  H10      1.0000 0.03770  0.15300  0.80230  Biso   1.000  H
  C12      1.0000 0.06090  0.25990  0.83230  Biso   1.000  C
  H11      1.0000 0.02780  0.20730  0.55690  Biso   1.000  H
  C13      1.0000 0.20470  0.48770  0.40710  Biso   1.000  C
  H12      1.0000 0.22110  0.47750  0.34530  Biso   1.000  H
  C14      1.0000 0.12810  0.48750  0.30490  Biso   1.000  C
  C15      1.0000 0.15540  0.49050  0.40720  Biso   1.000  C
  Mg5      1.0000 0.05400  0.44225  0.83951  Biso   1.000  Mg
  Mg6      1.0000 0.12288  0.44086  0.08191  Biso   1.000  Mg
  O15      1.0000 0.05259  0.32640  0.80040  Biso   1.000  O
  O16      1.0000 0.08310  0.24350  0.91330  Biso   1.000  O
  O17      1.0000 0.11289  0.44470  0.92510  Biso   1.000  O
  O18      1.0000 0.95425  0.05510  0.61660  Biso   1.000  O
  O19      1.0000 0.30366  0.45280  0.44180  Biso   1.000  O
  O20      1.0000 0.09532  0.53440  0.29320  Biso   1.000  O
  O21      1.0000 0.13982  0.43800  0.23880  Biso   1.000  O
  Ni3      1.0000 0.05400  0.55775  0.16049  Biso   1.000  Ni
  C16      1.0000 0.54390  0.69730  0.76050  Biso   1.000  C
  H13      1.0000 0.56910  0.68520  0.71130  Biso   1.000  H
  H14      1.0000 0.53770  0.65300  0.80230  Biso   1.000  H
  C17      1.0000 0.56090  0.75990  0.83230  Biso   1.000  C
  H15      1.0000 0.52780  0.70730  0.55690  Biso   1.000  H
  C18      1.0000 0.70470  0.98770  0.40710  Biso   1.000  C
  H16      1.0000 0.72110  0.97750  0.34530  Biso   1.000  H
  C19      1.0000 0.62810  0.98750  0.30490  Biso   1.000  C
  C20      1.0000 0.65540  0.99050  0.40720  Biso   1.000  C
  Mg7      1.0000 0.55400  0.94225  0.83951  Biso   1.000  Mg
  Mg8      1.0000 0.62288  0.94086  0.08191  Biso   1.000  Mg
  O22      1.0000 0.55259  0.82640  0.80040  Biso   1.000  O
  O23      1.0000 0.58310  0.74350  0.91330  Biso   1.000  O
  O24      1.0000 0.61289  0.94470  0.92510  Biso   1.000  O
  O25      1.0000 0.45425  0.55510  0.61660  Biso   1.000  O
  O26      1.0000 0.80366  0.95280  0.44180  Biso   1.000  O
  O27      1.0000 0.59532  0.03440  0.29320  Biso   1.000  O
  O28      1.0000 0.63982  0.93800  0.23880  Biso   1.000  O
  Ni4      1.0000 0.55400  0.05775  0.16049  Biso   1.000  Ni
  C21      1.0000 0.04390  0.80270  0.23950  Biso   1.000  C
  H17      1.0000 0.06910  0.81480  0.28870  Biso   1.000  H
  H18      1.0000 0.03770  0.84700  0.19770  Biso   1.000  H
  C22      1.0000 0.06090  0.74010  0.16770  Biso   1.000  C
  H19      1.0000 0.02780  0.79270  0.44310  Biso   1.000  H
  C23      1.0000 0.20470  0.51230  0.59290  Biso   1.000  C
  H20      1.0000 0.22110  0.52250  0.65470  Biso   1.000  H
  C24      1.0000 0.12810  0.51250  0.69510  Biso   1.000  C
  C25      1.0000 0.15540  0.50950  0.59280  Biso   1.000  C
  Mg9      1.0000 0.12288  0.55914  0.91809  Biso   1.000  Mg
  O29      1.0000 0.05259  0.67360  0.19960  Biso   1.000  O
  O30      1.0000 0.08310  0.75650  0.08670  Biso   1.000  O
  O31      1.0000 0.11289  0.55530  0.07490  Biso   1.000  O
  O32      1.0000 0.95425  0.94490  0.38340  Biso   1.000  O
  O33      1.0000 0.30366  0.54720  0.55820  Biso   1.000  O
  O34      1.0000 0.09532  0.46560  0.70680  Biso   1.000  O
  O35      1.0000 0.13982  0.56200  0.76120  Biso   1.000  O
  C26      1.0000 0.54390  0.30270  0.23950  Biso   1.000  C
  H21      1.0000 0.56910  0.31480  0.28870  Biso   1.000  H
  H22      1.0000 0.53770  0.34700  0.19770  Biso   1.000  H
  C27      1.0000 0.56090  0.24010  0.16770  Biso   1.000  C
  H23      1.0000 0.52780  0.29270  0.44310  Biso   1.000  H
  C28      1.0000 0.70470  0.01230  0.59290  Biso   1.000  C
  H24      1.0000 0.72110  0.02250  0.65470  Biso   1.000  H
  C29      1.0000 0.62810  0.01250  0.69510  Biso   1.000  C
  C30      1.0000 0.65540  0.00950  0.59280  Biso   1.000  C
  Mg10     1.0000 0.62288  0.05914  0.91809  Biso   1.000  Mg
  O36      1.0000 0.55259  0.17360  0.19960  Biso   1.000  O
  O37      1.0000 0.58310  0.25650  0.08670  Biso   1.000  O
  O38      1.0000 0.61289  0.05530  0.07490  Biso   1.000  O
  O39      1.0000 0.45425  0.44490  0.38340  Biso   1.000  O
  O40      1.0000 0.80366  0.04720  0.55820  Biso   1.000  O
  O41      1.0000 0.59532  0.96560  0.70680  Biso   1.000  O
  O42      1.0000 0.63982  0.06200  0.76120  Biso   1.000  O
  C31      1.0000 0.95610  0.69730  0.73950  Biso   1.000  C
  H25      1.0000 0.93090  0.68520  0.78870  Biso   1.000  H
  H26      1.0000 0.96230  0.65300  0.69770  Biso   1.000  H
  C32      1.0000 0.93910  0.75990  0.66770  Biso   1.000  C
  H27      1.0000 0.97220  0.70730  0.94310  Biso   1.000  H
  C33      1.0000 0.79530  0.98770  0.09290  Biso   1.000  C
  H28      1.0000 0.77890  0.97750  0.15470  Biso   1.000  H
  C34      1.0000 0.87190  0.98750  0.19510  Biso   1.000  C
  C35      1.0000 0.84460  0.99050  0.09280  Biso   1.000  C
  Mg11     1.0000 0.87712  0.94086  0.41809  Biso   1.000  Mg
  O43      1.0000 0.94741  0.82640  0.69960  Biso   1.000  O
  O44      1.0000 0.91690  0.74350  0.58670  Biso   1.000  O
  O45      1.0000 0.88711  0.94470  0.57490  Biso   1.000  O
  O46      1.0000 0.04575  0.55510  0.88340  Biso   1.000  O
  O47      1.0000 0.69634  0.95280  0.05820  Biso   1.000  O
  O48      1.0000 0.90468  0.03440  0.20680  Biso   1.000  O
  O49      1.0000 0.86018  0.93800  0.26120  Biso   1.000  O
  C36      1.0000 0.45610  0.19730  0.73950  Biso   1.000  C
  H29      1.0000 0.43090  0.18520  0.78870  Biso   1.000  H
  H30      1.0000 0.46230  0.15300  0.69770  Biso   1.000  H
  C37      1.0000 0.43910  0.25990  0.66770  Biso   1.000  C
  H31      1.0000 0.47220  0.20730  0.94310  Biso   1.000  H
  C38      1.0000 0.29530  0.48770  0.09290  Biso   1.000  C
  H32      1.0000 0.27890  0.47750  0.15470  Biso   1.000  H
  C39      1.0000 0.37190  0.48750  0.19510  Biso   1.000  C
  C40      1.0000 0.34460  0.49050  0.09280  Biso   1.000  C
  Mg12     1.0000 0.37712  0.44086  0.41809  Biso   1.000  Mg
  O50      1.0000 0.44741  0.32640  0.69960  Biso   1.000  O
  O51      1.0000 0.41690  0.24350  0.58670  Biso   1.000  O
  O52      1.0000 0.38711  0.44470  0.57490  Biso   1.000  O
  O53      1.0000 0.54575  0.05510  0.88340  Biso   1.000  O
  O54      1.0000 0.19634  0.45280  0.05820  Biso   1.000  O
  O55      1.0000 0.40468  0.53440  0.20680  Biso   1.000  O
  O56      1.0000 0.36018  0.43800  0.26120  Biso   1.000  O
  C41      1.0000 0.04390  0.69730  0.73950  Biso   1.000  C
  H33      1.0000 0.06910  0.68520  0.78870  Biso   1.000  H
  H34      1.0000 0.03770  0.65300  0.69770  Biso   1.000  H
  C42      1.0000 0.06090  0.75990  0.66770  Biso   1.000  C
  H35      1.0000 0.02780  0.70730  0.94310  Biso   1.000  H
  C43      1.0000 0.20470  0.98770  0.09290  Biso   1.000  C
  H36      1.0000 0.22110  0.97750  0.15470  Biso   1.000  H
  C44      1.0000 0.12810  0.98750  0.19510  Biso   1.000  C
  C45      1.0000 0.15540  0.99050  0.09280  Biso   1.000  C
  Mg13     1.0000 0.05400  0.94225  0.66049  Biso   1.000  Mg
  Mg14     1.0000 0.12288  0.94086  0.41809  Biso   1.000  Mg
  O57      1.0000 0.05259  0.82640  0.69960  Biso   1.000  O
  O58      1.0000 0.08310  0.74350  0.58670  Biso   1.000  O
  O59      1.0000 0.11289  0.94470  0.57490  Biso   1.000  O
  O60      1.0000 0.95425  0.55510  0.88340  Biso   1.000  O
  O61      1.0000 0.30366  0.95280  0.05820  Biso   1.000  O
  O62      1.0000 0.09532  0.03440  0.20680  Biso   1.000  O
  O63      1.0000 0.13982  0.93800  0.26120  Biso   1.000  O
  Ni5      1.0000 0.05400  0.05775  0.33951  Biso   1.000  Ni
  C46      1.0000 0.54390  0.19730  0.73950  Biso   1.000  C
  H37      1.0000 0.56910  0.18520  0.78870  Biso   1.000  H
  H38      1.0000 0.53770  0.15300  0.69770  Biso   1.000  H
  C47      1.0000 0.56090  0.25990  0.66770  Biso   1.000  C
  H39      1.0000 0.52780  0.20730  0.94310  Biso   1.000  H
  C48      1.0000 0.70470  0.48770  0.09290  Biso   1.000  C
  H40      1.0000 0.72110  0.47750  0.15470  Biso   1.000  H
  C49      1.0000 0.62810  0.48750  0.19510  Biso   1.000  C
  C50      1.0000 0.65540  0.49050  0.09280  Biso   1.000  C
  Mg15     1.0000 0.55400  0.44225  0.66049  Biso   1.000  Mg
  Mg16     1.0000 0.62288  0.44086  0.41809  Biso   1.000  Mg
  O64      1.0000 0.55259  0.32640  0.69960  Biso   1.000  O
  O65      1.0000 0.58310  0.24350  0.58670  Biso   1.000  O
  O66      1.0000 0.61289  0.44470  0.57490  Biso   1.000  O
  O67      1.0000 0.45425  0.05510  0.88340  Biso   1.000  O
  O68      1.0000 0.80366  0.45280  0.05820  Biso   1.000  O
  O69      1.0000 0.59532  0.53440  0.20680  Biso   1.000  O
  O70      1.0000 0.63982  0.43800  0.26120  Biso   1.000  O
  Ni6      1.0000 0.55400  0.55775  0.33951  Biso   1.000  Ni
  C51      1.0000 0.95610  0.80270  0.23950  Biso   1.000  C
  H41      1.0000 0.93090  0.81480  0.28870  Biso   1.000  H
  H42      1.0000 0.96230  0.84700  0.19770  Biso   1.000  H
  C52      1.0000 0.93910  0.74010  0.16770  Biso   1.000  C
  H43      1.0000 0.97220  0.79270  0.44310  Biso   1.000  H
  C53      1.0000 0.79530  0.51230  0.59290  Biso   1.000  C
  H44      1.0000 0.77890  0.52250  0.65470  Biso   1.000  H
  C54      1.0000 0.87190  0.51250  0.69510  Biso   1.000  C
  C55      1.0000 0.84460  0.50950  0.59280  Biso   1.000  C
  Mg17     1.0000 0.94600  0.55775  0.16049  Biso   1.000  Mg
  Mg18     1.0000 0.87712  0.55914  0.91809  Biso   1.000  Mg
  O71      1.0000 0.94741  0.67360  0.19960  Biso   1.000  O
  O72      1.0000 0.91690  0.75650  0.08670  Biso   1.000  O
  O73      1.0000 0.88711  0.55530  0.07490  Biso   1.000  O
  O74      1.0000 0.04575  0.94490  0.38340  Biso   1.000  O
  O75      1.0000 0.69634  0.54720  0.55820  Biso   1.000  O
  O76      1.0000 0.90468  0.46560  0.70680  Biso   1.000  O
  O77      1.0000 0.86018  0.56200  0.76120  Biso   1.000  O
  Ni7      1.0000 0.94600  0.44225  0.83951  Biso   1.000  Ni
  C56      1.0000 0.45610  0.30270  0.23950  Biso   1.000  C
  H45      1.0000 0.43090  0.31480  0.28870  Biso   1.000  H
  H46      1.0000 0.46230  0.34700  0.19770  Biso   1.000  H
  C57      1.0000 0.43910  0.24010  0.16770  Biso   1.000  C
  H47      1.0000 0.47220  0.29270  0.44310  Biso   1.000  H
  C58      1.0000 0.29530  0.01230  0.59290  Biso   1.000  C
  H48      1.0000 0.27890  0.02250  0.65470  Biso   1.000  H
  C59      1.0000 0.37190  0.01250  0.69510  Biso   1.000  C
  C60      1.0000 0.34460  0.00950  0.59280  Biso   1.000  C
  Mg19     1.0000 0.44600  0.05775  0.16049  Biso   1.000  Mg
  Mg20     1.0000 0.37712  0.05914  0.91809  Biso   1.000  Mg
  O78      1.0000 0.44741  0.17360  0.19960  Biso   1.000  O
  O79      1.0000 0.41690  0.25650  0.08670  Biso   1.000  O
  O80      1.0000 0.38711  0.05530  0.07490  Biso   1.000  O
  O81      1.0000 0.54575  0.44490  0.38340  Biso   1.000  O
  O82      1.0000 0.19634  0.04720  0.55820  Biso   1.000  O
  O83      1.0000 0.40468  0.96560  0.70680  Biso   1.000  O
  O84      1.0000 0.36018  0.06200  0.76120  Biso   1.000  O
  Ni8      1.0000 0.44600  0.94225  0.83951  Biso   1.000  Ni
  C61      1.0000 0.95610  0.19730  0.76050  Biso   1.000  C
  H49      1.0000 0.93090  0.18520  0.71130  Biso   1.000  H
  H50      1.0000 0.96230  0.15300  0.80230  Biso   1.000  H
  C62      1.0000 0.93910  0.25990  0.83230  Biso   1.000  C
  H51      1.0000 0.97220  0.20730  0.55690  Biso   1.000  H
  C63      1.0000 0.79530  0.48770  0.40710  Biso   1.000  C
  H52      1.0000 0.77890  0.47750  0.34530  Biso   1.000  H
  C64      1.0000 0.87190  0.48750  0.30490  Biso   1.000  C
  C65      1.0000 0.84460  0.49050  0.40720  Biso   1.000  C
  Mg21     1.0000 0.87712  0.44086  0.08191  Biso   1.000  Mg
  O85      1.0000 0.94741  0.32640  0.80040  Biso   1.000  O
  O86      1.0000 0.91690  0.24350  0.91330  Biso   1.000  O
  O87      1.0000 0.88711  0.44470  0.92510  Biso   1.000  O
  O88      1.0000 0.04575  0.05510  0.61660  Biso   1.000  O
  O89      1.0000 0.69634  0.45280  0.44180  Biso   1.000  O
  O90      1.0000 0.90468  0.53440  0.29320  Biso   1.000  O
  O91      1.0000 0.86018  0.43800  0.23880  Biso   1.000  O
  C66      1.0000 0.45610  0.69730  0.76050  Biso   1.000  C
  H53      1.0000 0.43090  0.68520  0.71130  Biso   1.000  H
  H54      1.0000 0.46230  0.65300  0.80230  Biso   1.000  H
  C67      1.0000 0.43910  0.75990  0.83230  Biso   1.000  C
  H55      1.0000 0.47220  0.70730  0.55690  Biso   1.000  H
  C68      1.0000 0.29530  0.98770  0.40710  Biso   1.000  C
  H56      1.0000 0.27890  0.97750  0.34530  Biso   1.000  H
  C69      1.0000 0.37190  0.98750  0.30490  Biso   1.000  C
  C70      1.0000 0.34460  0.99050  0.40720  Biso   1.000  C
  Mg22     1.0000 0.37712  0.94086  0.08191  Biso   1.000  Mg
  O92      1.0000 0.44741  0.82640  0.80040  Biso   1.000  O
  O93      1.0000 0.41690  0.74350  0.91330  Biso   1.000  O
  O94      1.0000 0.38711  0.94470  0.92510  Biso   1.000  O
  O95      1.0000 0.54575  0.55510  0.61660  Biso   1.000  O
  O96      1.0000 0.19634  0.95280  0.44180  Biso   1.000  O
  O97      1.0000 0.40468  0.03440  0.29320  Biso   1.000  O
  O98      1.0000 0.36018  0.93800  0.23880  Biso   1.000  O
  C71      1.0000 0.04390  0.30270  0.26050  Biso   1.000  C
  H57      1.0000 0.06910  0.31480  0.21130  Biso   1.000  H
  H58      1.0000 0.03770  0.34700  0.30230  Biso   1.000  H
  C72      1.0000 0.06090  0.24010  0.33230  Biso   1.000  C
  H59      1.0000 0.02780  0.29270  0.05690  Biso   1.000  H
  C73      1.0000 0.20470  0.01230  0.90710  Biso   1.000  C
  H60      1.0000 0.22110  0.02250  0.84530  Biso   1.000  H
  C74      1.0000 0.12810  0.01250  0.80490  Biso   1.000  C
  C75      1.0000 0.15540  0.00950  0.90720  Biso   1.000  C
  Mg23     1.0000 0.12288  0.05914  0.58191  Biso   1.000  Mg
  O99      1.0000 0.05259  0.17360  0.30040  Biso   1.000  O
  O100     1.0000 0.08310  0.25650  0.41330  Biso   1.000  O
  O101     1.0000 0.11289  0.05530  0.42510  Biso   1.000  O
  O102     1.0000 0.95425  0.44490  0.11660  Biso   1.000  O
  O103     1.0000 0.30366  0.04720  0.94180  Biso   1.000  O
  O104     1.0000 0.09532  0.96560  0.79320  Biso   1.000  O
  O105     1.0000 0.13982  0.06200  0.73880  Biso   1.000  O
  C76      1.0000 0.54390  0.80270  0.26050  Biso   1.000  C
  H61      1.0000 0.56910  0.81480  0.21130  Biso   1.000  H
  H62      1.0000 0.53770  0.84700  0.30230  Biso   1.000  H
  C77      1.0000 0.56090  0.74010  0.33230  Biso   1.000  C
  H63      1.0000 0.52780  0.79270  0.05690  Biso   1.000  H
  C78      1.0000 0.70470  0.51230  0.90710  Biso   1.000  C
  H64      1.0000 0.72110  0.52250  0.84530  Biso   1.000  H
  C79      1.0000 0.62810  0.51250  0.80490  Biso   1.000  C
  C80      1.0000 0.65540  0.50950  0.90720  Biso   1.000  C
  Mg24     1.0000 0.62288  0.55914  0.58191  Biso   1.000  Mg
  O106     1.0000 0.55259  0.67360  0.30040  Biso   1.000  O
  O107     1.0000 0.58310  0.75650  0.41330  Biso   1.000  O
  O108     1.0000 0.61289  0.55530  0.42510  Biso   1.000  O
  O109     1.0000 0.45425  0.94490  0.11660  Biso   1.000  O
  O110     1.0000 0.80366  0.54720  0.94180  Biso   1.000  O
  O111     1.0000 0.59532  0.46560  0.79320  Biso   1.000  O
  O112     1.0000 0.63982  0.56200  0.73880  Biso   1.000  O
  P1       1.0000 0.00000  0.41305  0.06898  Biso   1.000  P
  N1       1.0000 0.00000  0.28280  0.20130  Biso   1.000  N
  C81      1.0000 0.00000  0.31310  0.09210  Biso   1.000  C
  Ni9      1.0000 0.00000  0.16508  0.18850  Biso   1.000  Ni
  O113     1.0000 0.00000  0.05830  0.23620  Biso   1.000  O
  O114     1.0000 0.00000  0.41840  0.94960  Biso   1.000  O
  P2       1.0000 0.50000  0.91305  0.06898  Biso   1.000  P
  N2       1.0000 0.50000  0.78280  0.20130  Biso   1.000  N
  C82      1.0000 0.50000  0.81310  0.09210  Biso   1.000  C
  Ni10     1.0000 0.50000  0.66508  0.18850  Biso   1.000  Ni
  O115     1.0000 0.50000  0.55830  0.23620  Biso   1.000  O
  O116     1.0000 0.50000  0.91840  0.94960  Biso   1.000  O
  P3       1.0000 0.00000  0.08695  0.56898  Biso   1.000  P
  N3       1.0000 0.00000  0.21720  0.70130  Biso   1.000  N
  C83      1.0000 0.00000  0.18690  0.59210  Biso   1.000  C
  Ni11     1.0000 0.00000  0.33492  0.68850  Biso   1.000  Ni
  O117     1.0000 0.00000  0.44170  0.73620  Biso   1.000  O
  O118     1.0000 0.00000  0.08160  0.44960  Biso   1.000  O
  P4       1.0000 0.50000  0.58695  0.56898  Biso   1.000  P
  N4       1.0000 0.50000  0.71720  0.70130  Biso   1.000  N
  C84      1.0000 0.50000  0.68690  0.59210  Biso   1.000  C
  Ni12     1.0000 0.50000  0.83492  0.68850  Biso   1.000  Ni
  O119     1.0000 0.50000  0.94170  0.73620  Biso   1.000  O
  O120     1.0000 0.50000  0.58160  0.44960  Biso   1.000  O
  P5       1.0000 0.00000  0.91305  0.43102  Biso   1.000  P
  N5       1.0000 0.00000  0.78280  0.29870  Biso   1.000  N
  C85      1.0000 0.00000  0.81310  0.40790  Biso   1.000  C
  Ni13     1.0000 0.00000  0.66508  0.31150  Biso   1.000  Ni
  O121     1.0000 0.00000  0.55830  0.26380  Biso   1.000  O
  O122     1.0000 0.00000  0.91840  0.55040  Biso   1.000  O
  P6       1.0000 0.50000  0.41305  0.43102  Biso   1.000  P
  N6       1.0000 0.50000  0.28280  0.29870  Biso   1.000  N
  C86      1.0000 0.50000  0.31310  0.40790  Biso   1.000  C
  Ni14     1.0000 0.50000  0.16508  0.31150  Biso   1.000  Ni
  O123     1.0000 0.50000  0.05830  0.26380  Biso   1.000  O
  O124     1.0000 0.50000  0.41840  0.55040  Biso   1.000  O
  P7       1.0000 0.00000  0.58695  0.93102  Biso   1.000  P
  N7       1.0000 0.00000  0.71720  0.79870  Biso   1.000  N
  C87      1.0000 0.00000  0.68690  0.90790  Biso   1.000  C
  Ni15     1.0000 0.00000  0.83492  0.81150  Biso   1.000  Ni
  O125     1.0000 0.00000  0.94170  0.76380  Biso   1.000  O
  O126     1.0000 0.00000  0.58160  0.05040  Biso   1.000  O
  P8       1.0000 0.50000  0.08695  0.93102  Biso   1.000  P
  N8       1.0000 0.50000  0.21720  0.79870  Biso   1.000  N
  C88      1.0000 0.50000  0.18690  0.90790  Biso   1.000  C
  Ni16     1.0000 0.50000  0.33492  0.81150  Biso   1.000  Ni
  O127     1.0000 0.50000  0.44170  0.76380  Biso   1.000  O
  O128     1.0000 0.50000  0.08160  0.05040  Biso   1.000  O
  C89      1.0000 0.71670  0.00000  0.00000  Biso   1.000  C
  C90      1.0000 0.77000  0.00000  0.00000  Biso   1.000  C
  C91      1.0000 0.86880  0.00000  0.00000  Biso   1.000  C
  H65      1.0000 0.90200  0.00000  0.00000  Biso   1.000  H
  C92      1.0000 0.21670  0.50000  0.00000  Biso   1.000  C
  C93      1.0000 0.27000  0.50000  0.00000  Biso   1.000  C
  C94      1.0000 0.36880  0.50000  0.00000  Biso   1.000  C
  H66      1.0000 0.40200  0.50000  0.00000  Biso   1.000  H
  C95      1.0000 0.28330  0.50000  0.50000  Biso   1.000  C
  C96      1.0000 0.23000  0.50000  0.50000  Biso   1.000  C
  C97      1.0000 0.13120  0.50000  0.50000  Biso   1.000  C
  H67      1.0000 0.09800  0.50000  0.50000  Biso   1.000  H
  C98      1.0000 0.78330  0.00000  0.50000  Biso   1.000  C
  C99      1.0000 0.73000  0.00000  0.50000  Biso   1.000  C
  C100     1.0000 0.63120  0.00000  0.50000  Biso   1.000  C
  H68      1.0000 0.59800  0.00000  0.50000  Biso   1.000  H
  C101     1.0000 0.28330  0.00000  0.00000  Biso   1.000  C
  C102     1.0000 0.23000  0.00000  0.00000  Biso   1.000  C
  C103     1.0000 0.13120  0.00000  0.00000  Biso   1.000  C
  H69      1.0000 0.09800  0.00000  0.00000  Biso   1.000  H
  C104     1.0000 0.78330  0.50000  0.00000  Biso   1.000  C
  C105     1.0000 0.73000  0.50000  0.00000  Biso   1.000  C
  C106     1.0000 0.63120  0.50000  0.00000  Biso   1.000  C
  H70      1.0000 0.59800  0.50000  0.00000  Biso   1.000  H
  C107     1.0000 0.71670  0.50000  0.50000  Biso   1.000  C
  C108     1.0000 0.77000  0.50000  0.50000  Biso   1.000  C
  C109     1.0000 0.86880  0.50000  0.50000  Biso   1.000  C
  H71      1.0000 0.90200  0.50000  0.50000  Biso   1.000  H
  C110     1.0000 0.21670  0.00000  0.50000  Biso   1.000  C
  C111     1.0000 0.27000  0.00000  0.50000  Biso   1.000  C
  C112     1.0000 0.36880  0.00000  0.50000  Biso   1.000  C
  H72      1.0000 0.40200  0.00000  0.50000  Biso   1.000  H
