data_UWOWAF_clean
_audit_creation_date              2014-07-02
_audit_creation_method            'Materials Studio'
_symmetry_space_group_name_H-M    'P1'
_symmetry_Int_Tables_number       1
_symmetry_cell_setting            triclinic
loop_
_symmetry_equiv_pos_as_xyz
  x,y,z
_cell_length_a                    12.0178
_cell_length_b                    12.0178
_cell_length_c                    19.4250
_cell_angle_alpha                 77.4186
_cell_angle_beta                  77.4186
_cell_angle_gamma                 77.6894
loop_
_atom_site_label
_atom_site_type_symbol
_atom_site_fract_x
_atom_site_fract_y
_atom_site_fract_z
_atom_site_U_iso_or_equiv
_atom_site_adp_type
_atom_site_occupancy
Mn1    Mn    0.67570   0.01804   0.32219   0.01267  Uiso   1.00
Mn2    Mn    0.98196   0.32430   0.17781   0.01267  Uiso   1.00
Mn3    Mn    0.32430   0.98196   0.67781   0.01267  Uiso   1.00
Mn4    Mn    0.01804   0.67570   0.82219   0.01267  Uiso   1.00
Mn5    Mn    0.50000   0.00000   0.50000   0.01267  Uiso   1.00
Mn6    Mn    0.00000   0.50000   0.00000   0.01267  Uiso   1.00
H1     H     0.78950   0.34230   0.40550   0.01267  Uiso   1.00
H2     H     0.69790   0.51430   0.45750   0.01267  Uiso   1.00
H3     H     0.29850   0.76630   0.43750   0.01267  Uiso   1.00
H4     H     0.20400   0.67260   0.37300   0.01267  Uiso   1.00
H5     H     0.75170   0.71490   0.58950   0.01267  Uiso   1.00
H6     H     0.89310   0.53570   0.60920   0.01267  Uiso   1.00
H7     H     0.65770   0.21050   0.09450   0.01267  Uiso   1.00
H8     H     0.48570   0.30210   0.04250   0.01267  Uiso   1.00
H9     H     0.23370   0.70150   0.06250   0.01267  Uiso   1.00
H10    H     0.32740   0.79600   0.12700   0.01267  Uiso   1.00
H11    H     0.28510   0.24830   0.91050   0.01267  Uiso   1.00
H12    H     0.46430   0.10690   0.89080   0.01267  Uiso   1.00
H13    H     0.21050   0.65770   0.59450   0.01267  Uiso   1.00
H14    H     0.30210   0.48570   0.54250   0.01267  Uiso   1.00
H15    H     0.70150   0.23370   0.56250   0.01267  Uiso   1.00
H16    H     0.79600   0.32740   0.62700   0.01267  Uiso   1.00
H17    H     0.24830   0.28510   0.41050   0.01267  Uiso   1.00
H18    H     0.10690   0.46430   0.39080   0.01267  Uiso   1.00
H19    H     0.34230   0.78950   0.90550   0.01267  Uiso   1.00
H20    H     0.51430   0.69790   0.95750   0.01267  Uiso   1.00
H21    H     0.76630   0.29850   0.93750   0.01267  Uiso   1.00
H22    H     0.67260   0.20400   0.87300   0.01267  Uiso   1.00
H23    H     0.71490   0.75170   0.08950   0.01267  Uiso   1.00
H24    H     0.53570   0.89310   0.10920   0.01267  Uiso   1.00
C1     C     0.65940   0.17900   0.39570   0.01267  Uiso   1.00
C2     C     0.63330   0.28810   0.42670   0.01267  Uiso   1.00
C3     C     0.71100   0.35820   0.42480   0.01267  Uiso   1.00
C4     C     0.65840   0.45700   0.45520   0.01267  Uiso   1.00
C5     C     0.54060   0.45920   0.48150   0.01267  Uiso   1.00
C6     C     0.46220   0.90420   0.36580   0.01267  Uiso   1.00
C7     C     0.38540   0.84120   0.34490   0.01267  Uiso   1.00
C8     C     0.31180   0.77560   0.38780   0.01267  Uiso   1.00
C9     C     0.25610   0.72210   0.35040   0.01267  Uiso   1.00
C10    C     0.28650   0.75030   0.27840   0.01267  Uiso   1.00
C11    C     0.73930   0.83790   0.44950   0.01267  Uiso   1.00
C12    C     0.81170   0.72950   0.48120   0.01267  Uiso   1.00
C13    C     0.80390   0.68310   0.55300   0.01267  Uiso   1.00
C14    C     0.88690   0.57910   0.56380   0.01267  Uiso   1.00
C15    C     0.95540   0.54860   0.50400   0.01267  Uiso   1.00
C16    C     0.82100   0.34060   0.10430   0.01267  Uiso   1.00
C17    C     0.71190   0.36670   0.07330   0.01267  Uiso   1.00
C18    C     0.64180   0.28900   0.07520   0.01267  Uiso   1.00
C19    C     0.54300   0.34160   0.04480   0.01267  Uiso   1.00
C20    C     0.54080   0.45940   0.01850   0.01267  Uiso   1.00
C21    C     0.09580   0.53780   0.13420   0.01267  Uiso   1.00
C22    C     0.15880   0.61460   0.15510   0.01267  Uiso   1.00
C23    C     0.22440   0.68820   0.11220   0.01267  Uiso   1.00
C24    C     0.27790   0.74390   0.14960   0.01267  Uiso   1.00
C25    C     0.24970   0.71350   0.22160   0.01267  Uiso   1.00
C26    C     0.16210   0.26070   0.05050   0.01267  Uiso   1.00
C27    C     0.27050   0.18830   0.01880   0.01267  Uiso   1.00
C28    C     0.31690   0.19610   0.94700   0.01267  Uiso   1.00
C29    C     0.42090   0.11310   0.93620   0.01267  Uiso   1.00
C30    C     0.45140   0.04460   0.99600   0.01267  Uiso   1.00
C31    C     0.34060   0.82100   0.60430   0.01267  Uiso   1.00
C32    C     0.36670   0.71190   0.57330   0.01267  Uiso   1.00
C33    C     0.28900   0.64180   0.57520   0.01267  Uiso   1.00
C34    C     0.34160   0.54300   0.54480   0.01267  Uiso   1.00
C35    C     0.45940   0.54080   0.51850   0.01267  Uiso   1.00
C36    C     0.53780   0.09580   0.63420   0.01267  Uiso   1.00
C37    C     0.61460   0.15880   0.65510   0.01267  Uiso   1.00
C38    C     0.68820   0.22440   0.61220   0.01267  Uiso   1.00
C39    C     0.74390   0.27790   0.64960   0.01267  Uiso   1.00
C40    C     0.71350   0.24970   0.72160   0.01267  Uiso   1.00
C41    C     0.26070   0.16210   0.55050   0.01267  Uiso   1.00
C42    C     0.18830   0.27050   0.51880   0.01267  Uiso   1.00
C43    C     0.19610   0.31690   0.44700   0.01267  Uiso   1.00
C44    C     0.11310   0.42090   0.43620   0.01267  Uiso   1.00
C45    C     0.04460   0.45140   0.49600   0.01267  Uiso   1.00
C46    C     0.17900   0.65940   0.89570   0.01267  Uiso   1.00
C47    C     0.28810   0.63330   0.92670   0.01267  Uiso   1.00
C48    C     0.35820   0.71100   0.92480   0.01267  Uiso   1.00
C49    C     0.45700   0.65840   0.95520   0.01267  Uiso   1.00
C50    C     0.45920   0.54060   0.98150   0.01267  Uiso   1.00
C51    C     0.90420   0.46220   0.86580   0.01267  Uiso   1.00
C52    C     0.84120   0.38540   0.84490   0.01267  Uiso   1.00
C53    C     0.77560   0.31180   0.88780   0.01267  Uiso   1.00
C54    C     0.72210   0.25610   0.85040   0.01267  Uiso   1.00
C55    C     0.75030   0.28650   0.77840   0.01267  Uiso   1.00
C56    C     0.83790   0.73930   0.94950   0.01267  Uiso   1.00
C57    C     0.72950   0.81170   0.98120   0.01267  Uiso   1.00
C58    C     0.68310   0.80390   0.05300   0.01267  Uiso   1.00
C59    C     0.57910   0.88690   0.06380   0.01267  Uiso   1.00
C60    C     0.54860   0.95540   0.00400   0.01267  Uiso   1.00
S1     S     0.49809   0.33953   0.46582   0.01267  Uiso   1.00
S2     S     0.38793   0.83895   0.25749   0.01267  Uiso   1.00
S3     S     0.91740   0.64886   0.42996   0.01267  Uiso   1.00
S4     S     0.66047   0.50191   0.03418   0.01267  Uiso   1.00
S5     S     0.16105   0.61207   0.24251   0.01267  Uiso   1.00
S6     S     0.35114   0.08260   0.07004   0.01267  Uiso   1.00
S7     S     0.50191   0.66047   0.53418   0.01267  Uiso   1.00
S8     S     0.61207   0.16105   0.74251   0.01267  Uiso   1.00
S9     S     0.08260   0.35114   0.57004   0.01267  Uiso   1.00
S10    S     0.33953   0.49809   0.96582   0.01267  Uiso   1.00
S11    S     0.83895   0.38793   0.75749   0.01267  Uiso   1.00
S12    S     0.64886   0.91740   0.92996   0.01267  Uiso   1.00
O1     O     0.57720   0.12280   0.40820   0.01267  Uiso   1.00
O2     O     0.75320   0.15100   0.35800   0.01267  Uiso   1.00
O3     O     0.53920   0.93960   0.31740   0.01267  Uiso   1.00
O4     O     0.44380   0.91940   0.42870   0.01267  Uiso   1.00
O5     O     0.76110   0.86750   0.38430   0.01267  Uiso   1.00
O6     O     0.66200   0.88600   0.49390   0.01267  Uiso   1.00
O7     O     0.87720   0.42280   0.09180   0.01267  Uiso   1.00
O8     O     0.84900   0.24680   0.14200   0.01267  Uiso   1.00
O9     O     0.06040   0.46080   0.18260   0.01267  Uiso   1.00
O10    O     0.08060   0.55620   0.07130   0.01267  Uiso   1.00
O11    O     0.13250   0.23890   0.11570   0.01267  Uiso   1.00
O12    O     0.11400   0.33800   0.00610   0.01267  Uiso   1.00
O13    O     0.42280   0.87720   0.59180   0.01267  Uiso   1.00
O14    O     0.24680   0.84900   0.64200   0.01267  Uiso   1.00
O15    O     0.46080   0.06040   0.68260   0.01267  Uiso   1.00
O16    O     0.55620   0.08060   0.57130   0.01267  Uiso   1.00
O17    O     0.23890   0.13250   0.61570   0.01267  Uiso   1.00
O18    O     0.33800   0.11400   0.50610   0.01267  Uiso   1.00
O19    O     0.12280   0.57720   0.90820   0.01267  Uiso   1.00
O20    O     0.15100   0.75320   0.85800   0.01267  Uiso   1.00
O21    O     0.93960   0.53920   0.81740   0.01267  Uiso   1.00
O22    O     0.91940   0.44380   0.92870   0.01267  Uiso   1.00
O23    O     0.86750   0.76110   0.88430   0.01267  Uiso   1.00
O24    O     0.88600   0.66200   0.99390   0.01267  Uiso   1.00
