data_UXABUR_clean
_audit_creation_date              2014-07-02
_audit_creation_method            'Materials Studio'
_symmetry_space_group_name_H-M    'P1'
_symmetry_Int_Tables_number       1
_symmetry_cell_setting            triclinic
loop_
_symmetry_equiv_pos_as_xyz
  x,y,z
_cell_length_a                    6.7260
_cell_length_b                    11.2980
_cell_length_c                    19.8076
_cell_angle_alpha                 106.5700
_cell_angle_beta                  91.1214
_cell_angle_gamma                 90.0000
loop_
_atom_site_label
_atom_site_type_symbol
_atom_site_fract_x
_atom_site_fract_y
_atom_site_fract_z
_atom_site_U_iso_or_equiv
_atom_site_adp_type
_atom_site_occupancy
Y1     Y     0.81776   0.41895   0.25722   0.01267  Uiso   1.00
Y2     Y     0.68224   0.16173   0.74278   0.01267  Uiso   1.00
Y3     Y     0.18224   0.58105   0.74278   0.01267  Uiso   1.00
Y4     Y     0.31776   0.83827   0.25722   0.01267  Uiso   1.00
H1     H     0.81730   0.50980   0.53120   0.01267  Uiso   1.00
H2     H     0.62110   0.72830   0.54480   0.01267  Uiso   1.00
H3     H     0.64070   0.51850   0.42420   0.01267  Uiso   1.00
H4     H     0.48890   0.74700   0.43020   0.01267  Uiso   1.00
H5     H     0.47430   0.33410   0.03580   0.01267  Uiso   1.00
H6     H     0.59350   0.57380   0.06460   0.01267  Uiso   1.00
H7     H     0.96900   0.25990   0.16980   0.01267  Uiso   1.00
H8     H     0.89400   0.15000   0.18400   0.01267  Uiso   1.00
H9     H     0.68270   0.97860   0.46880   0.01267  Uiso   1.00
H10    H     0.87890   0.18350   0.45520   0.01267  Uiso   1.00
H11    H     0.85930   0.09430   0.57580   0.01267  Uiso   1.00
H12    H     0.01110   0.31680   0.56980   0.01267  Uiso   1.00
H13    H     0.02570   0.29830   0.96420   0.01267  Uiso   1.00
H14    H     0.90650   0.50920   0.93540   0.01267  Uiso   1.00
H15    H     0.53100   0.09010   0.83020   0.01267  Uiso   1.00
H16    H     0.60600   0.96600   0.81600   0.01267  Uiso   1.00
H17    H     0.18270   0.49020   0.46880   0.01267  Uiso   1.00
H18    H     0.37890   0.27170   0.45520   0.01267  Uiso   1.00
H19    H     0.35930   0.48150   0.57580   0.01267  Uiso   1.00
H20    H     0.51110   0.25300   0.56980   0.01267  Uiso   1.00
H21    H     0.52570   0.66590   0.96420   0.01267  Uiso   1.00
H22    H     0.40650   0.42620   0.93540   0.01267  Uiso   1.00
H23    H     0.03100   0.74010   0.83020   0.01267  Uiso   1.00
H24    H     0.10600   0.85000   0.81600   0.01267  Uiso   1.00
H25    H     0.31730   0.02140   0.53120   0.01267  Uiso   1.00
H26    H     0.12110   0.81650   0.54480   0.01267  Uiso   1.00
H27    H     0.14070   0.90570   0.42420   0.01267  Uiso   1.00
H28    H     0.98890   0.68320   0.43020   0.01267  Uiso   1.00
H29    H     0.97430   0.70170   0.03580   0.01267  Uiso   1.00
H30    H     0.09350   0.49080   0.06460   0.01267  Uiso   1.00
H31    H     0.46900   0.90990   0.16980   0.01267  Uiso   1.00
H32    H     0.39400   0.03400   0.18400   0.01267  Uiso   1.00
C1     C     0.83690   0.63840   0.63040   0.01267  Uiso   1.00
C2     C     0.77580   0.58880   0.55540   0.01267  Uiso   1.00
C3     C     0.66560   0.65010   0.52060   0.01267  Uiso   1.00
C4     C     0.61090   0.60060   0.44640   0.01267  Uiso   1.00
C5     C     0.52130   0.66510   0.40840   0.01267  Uiso   1.00
C6     C     0.47110   0.61250   0.33340   0.01267  Uiso   1.00
C7     C     0.63010   0.41080   0.12960   0.01267  Uiso   1.00
C8     C     0.53720   0.40660   0.06160   0.01267  Uiso   1.00
C9     C     0.53930   0.50020   0.03620   0.01267  Uiso   1.00
C10    C     0.66310   0.00800   0.36960   0.01267  Uiso   1.00
C11    C     0.72420   0.03340   0.44460   0.01267  Uiso   1.00
C12    C     0.83440   0.12950   0.47940   0.01267  Uiso   1.00
C13    C     0.88910   0.15420   0.55360   0.01267  Uiso   1.00
C14    C     0.97870   0.25670   0.59160   0.01267  Uiso   1.00
C15    C     0.02890   0.27910   0.66660   0.01267  Uiso   1.00
C16    C     0.86990   0.28120   0.87040   0.01267  Uiso   1.00
C17    C     0.96280   0.34500   0.93840   0.01267  Uiso   1.00
C18    C     0.96070   0.46400   0.96380   0.01267  Uiso   1.00
C19    C     0.16310   0.36160   0.36960   0.01267  Uiso   1.00
C20    C     0.22420   0.41120   0.44460   0.01267  Uiso   1.00
C21    C     0.33440   0.34990   0.47940   0.01267  Uiso   1.00
C22    C     0.38910   0.39940   0.55360   0.01267  Uiso   1.00
C23    C     0.47870   0.33490   0.59160   0.01267  Uiso   1.00
C24    C     0.52890   0.38750   0.66660   0.01267  Uiso   1.00
C25    C     0.36990   0.58920   0.87040   0.01267  Uiso   1.00
C26    C     0.46280   0.59340   0.93840   0.01267  Uiso   1.00
C27    C     0.46070   0.49980   0.96380   0.01267  Uiso   1.00
C28    C     0.33690   0.99200   0.63040   0.01267  Uiso   1.00
C29    C     0.27580   0.96660   0.55540   0.01267  Uiso   1.00
C30    C     0.16560   0.87050   0.52060   0.01267  Uiso   1.00
C31    C     0.11090   0.84580   0.44640   0.01267  Uiso   1.00
C32    C     0.02130   0.74330   0.40840   0.01267  Uiso   1.00
C33    C     0.97110   0.72090   0.33340   0.01267  Uiso   1.00
C34    C     0.13010   0.71880   0.12960   0.01267  Uiso   1.00
C35    C     0.03720   0.65500   0.06160   0.01267  Uiso   1.00
C36    C     0.03930   0.53600   0.03620   0.01267  Uiso   1.00
O1     O     0.75210   0.72937   0.66894   0.01267  Uiso   1.00
O2     O     0.98010   0.58242   0.64984   0.01267  Uiso   1.00
O3     O     0.51780   0.50157   0.30234   0.01267  Uiso   1.00
O4     O     0.87750   0.62429   0.30318   0.01267  Uiso   1.00
O5     O     0.72640   0.50424   0.16368   0.01267  Uiso   1.00
O6     O     0.61860   0.31898   0.15336   0.01267  Uiso   1.00
O7     O     0.96980   0.22520   0.21120   0.01267  Uiso   1.00
O8     O     0.74790   0.06043   0.33106   0.01267  Uiso   1.00
O9     O     0.51990   0.93258   0.35016   0.01267  Uiso   1.00
O10    O     0.98220   0.19923   0.69766   0.01267  Uiso   1.00
O11    O     0.62250   0.32111   0.69682   0.01267  Uiso   1.00
O12    O     0.77360   0.34056   0.83632   0.01267  Uiso   1.00
O13    O     0.88140   0.16562   0.84664   0.01267  Uiso   1.00
O14    O     0.53020   0.01400   0.78880   0.01267  Uiso   1.00
O15    O     0.24790   0.27063   0.33106   0.01267  Uiso   1.00
O16    O     0.01990   0.41758   0.35016   0.01267  Uiso   1.00
O17    O     0.48220   0.49843   0.69766   0.01267  Uiso   1.00
O18    O     0.12250   0.37571   0.69682   0.01267  Uiso   1.00
O19    O     0.27360   0.49576   0.83632   0.01267  Uiso   1.00
O20    O     0.38140   0.68102   0.84664   0.01267  Uiso   1.00
O21    O     0.03020   0.77480   0.78880   0.01267  Uiso   1.00
O22    O     0.25210   0.93957   0.66894   0.01267  Uiso   1.00
O23    O     0.48010   0.06742   0.64984   0.01267  Uiso   1.00
O24    O     0.01780   0.80077   0.30234   0.01267  Uiso   1.00
O25    O     0.37750   0.67889   0.30318   0.01267  Uiso   1.00
O26    O     0.22640   0.65944   0.16368   0.01267  Uiso   1.00
O27    O     0.11860   0.83438   0.15336   0.01267  Uiso   1.00
O28    O     0.46980   0.98600   0.21120   0.01267  Uiso   1.00
