data_image0
_cell_length_a       12.608
_cell_length_b       12.769
_cell_length_c       21.876
_cell_angle_alpha    98.05
_cell_angle_beta     96.84
_cell_angle_gamma    118.109

_symmetry_space_group_name_H-M    "P 1"
_symmetry_int_tables_number       1

loop_
  _symmetry_equiv_pos_as_xyz
  'x, y, z'

loop_
  _atom_site_label
  _atom_site_occupancy
  _atom_site_fract_x
  _atom_site_fract_y
  _atom_site_fract_z
  _atom_site_thermal_displace_type
  _atom_site_B_iso_or_equiv
  _atom_site_type_symbol
  Er1      1.0000 0.06169  0.54521  0.09497  Biso   1.000  Er
  Er2      1.0000 0.93109  0.95843  0.40296  Biso   1.000  Er
  S1       1.0000 0.26109  0.98173  0.98692  Biso   1.000  S
  S2       1.0000 0.50720  0.29960  0.25286  Biso   1.000  S
  S3       1.0000 0.50697  0.73810  0.47699  Biso   1.000  S
  O1       1.0000 0.05290  0.37020  0.04510  Biso   1.000  O
  O2       1.0000 0.02170  0.34340  0.94010  Biso   1.000  O
  O3       1.0000 0.22280  0.90520  0.92460  Biso   1.000  O
  O4       1.0000 0.24040  0.92830  0.04090  Biso   1.000  O
  O5       1.0000 0.85550  0.41180  0.08820  Biso   1.000  O
  O6       1.0000 0.84540  0.39540  0.98540  Biso   1.000  O
  O7       1.0000 0.25870  0.62080  0.14220  Biso   1.000  O
  O8       1.0000 0.30310  0.69980  0.24620  Biso   1.000  O
  O9       1.0000 0.54660  0.26050  0.19910  Biso   1.000  O
  O10      1.0000 0.58960  0.35050  0.31370  Biso   1.000  O
  O11      1.0000 0.95740  0.91730  0.30590  Biso   1.000  O
  O12      1.0000 0.96840  0.78910  0.22990  Biso   1.000  O
  O13      1.0000 0.09130  0.91640  0.41500  Biso   1.000  O
  O14      1.0000 0.14370  0.98100  0.51950  Biso   1.000  O
  O15      1.0000 0.60000  0.79900  0.53400  Biso   1.000  O
  O16      1.0000 0.54240  0.73070  0.41690  Biso   1.000  O
  O17      1.0000 0.09520  0.14620  0.44460  Biso   1.000  O
  O18      1.0000 0.14220  0.20550  0.55010  Biso   1.000  O
  O19      1.0000 0.72530  0.83640  0.35030  Biso   1.000  O
  H1       1.0000 0.67660  0.82150  0.37710  Biso   1.000  H
  H2       1.0000 0.74370  0.78970  0.35020  Biso   1.000  H
  C1       1.0000 0.05100  0.32040  0.99130  Biso   1.000  C
  C2       1.0000 0.09230  0.22580  0.98830  Biso   1.000  C
  C3       1.0000 0.11860  0.18600  0.93290  Biso   1.000  C
  H3       1.0000 0.10230  0.21070  0.89550  Biso   1.000  H
  C4       1.0000 0.16870  0.10990  0.93240  Biso   1.000  C
  H4       1.0000 0.18890  0.08380  0.89480  Biso   1.000  H
  C5       1.0000 0.18890  0.07240  0.98590  Biso   1.000  C
  C6       1.0000 0.15910  0.10840  0.04200  Biso   1.000  C
  H5       1.0000 0.17070  0.08000  0.07870  Biso   1.000  H
  C7       1.0000 0.11220  0.18700  0.04160  Biso   1.000  C
  H6       1.0000 0.09340  0.21470  0.07920  Biso   1.000  H
  C8       1.0000 0.79650  0.36440  0.03130  Biso   1.000  C
  C9       1.0000 0.66380  0.26900  0.01940  Biso   1.000  C
  C10      1.0000 0.61310  0.22600  0.06960  Biso   1.000  C
  H7       1.0000 0.66240  0.25770  0.11120  Biso   1.000  H
  C11      1.0000 0.48910  0.13580  0.05930  Biso   1.000  C
  H8       1.0000 0.45430  0.10590  0.09350  Biso   1.000  H
  C12      1.0000 0.41930  0.09160  0.99950  Biso   1.000  C
  C13      1.0000 0.46960  0.13360  0.94840  Biso   1.000  C
  H9       1.0000 0.42020  0.10220  0.90680  Biso   1.000  H
  C14      1.0000 0.59180  0.22090  0.95920  Biso   1.000  C
  H10      1.0000 0.62710  0.24840  0.92460  Biso   1.000  H
  C15      1.0000 0.30690  0.63340  0.19990  Biso   1.000  C
  C16      1.0000 0.36600  0.55790  0.21130  Biso   1.000  C
  C17      1.0000 0.43700  0.57830  0.27060  Biso   1.000  C
  H11      1.0000 0.45320  0.64510  0.30290  Biso   1.000  H
  C18      1.0000 0.48400  0.50310  0.28320  Biso   1.000  C
  H12      1.0000 0.53220  0.51830  0.32360  Biso   1.000  H
  C19      1.0000 0.45980  0.40440  0.23550  Biso   1.000  C
  C20      1.0000 0.39050  0.38150  0.17650  Biso   1.000  C
  H13      1.0000 0.37340  0.31370  0.14460  Biso   1.000  H
  C21      1.0000 0.34570  0.45970  0.16430  Biso   1.000  C
  H14      1.0000 0.30040  0.44590  0.12330  Biso   1.000  H
  C22      1.0000 0.01190  0.88890  0.26750  Biso   1.000  C
  C23      1.0000 0.13950  0.98850  0.26480  Biso   1.000  C
  C24      1.0000 0.18360  0.98700  0.20960  Biso   1.000  C
  H15      1.0000 0.13580  0.92100  0.17420  Biso   1.000  H
  C25      1.0000 0.29580  0.08020  0.20580  Biso   1.000  C
  H16      1.0000 0.32400  0.07980  0.16740  Biso   1.000  H
  C26      1.0000 0.36810  0.17550  0.25860  Biso   1.000  C
  C27      1.0000 0.32740  0.17660  0.31440  Biso   1.000  C
  H17      1.0000 0.37760  0.23950  0.35090  Biso   1.000  H
  C28      1.0000 0.21080  0.08340  0.31650  Biso   1.000  C
  H18      1.0000 0.18040  0.08550  0.35400  Biso   1.000  H
  C29      1.0000 0.15230  0.22350  0.49580  Biso   1.000  C
  C30      1.0000 0.24300  0.35260  0.49130  Biso   1.000  C
  C31      1.0000 0.26500  0.37810  0.43340  Biso   1.000  C
  H19      1.0000 0.22390  0.31470  0.39640  Biso   1.000  H
  C32      1.0000 0.34640  0.49550  0.42850  Biso   1.000  C
  H20      1.0000 0.36070  0.51250  0.38840  Biso   1.000  H
  C33      1.0000 0.40620  0.58680  0.48260  Biso   1.000  C
  C34      1.0000 0.38560  0.56370  0.54110  Biso   1.000  C
  H21      1.0000 0.42700  0.62760  0.57800  Biso   1.000  H
  C35      1.0000 0.30410  0.44690  0.54570  Biso   1.000  C
  H22      1.0000 0.28950  0.43050  0.58580  Biso   1.000  H
  C36      1.0000 0.15530  0.93500  0.46770  Biso   1.000  C
  C37      1.0000 0.25290  0.89690  0.46990  Biso   1.000  C
  C38      1.0000 0.31590  0.90240  0.52780  Biso   1.000  C
  H23      1.0000 0.30380  0.93700  0.56590  Biso   1.000  H
  C39      1.0000 0.39710  0.85680  0.53000  Biso   1.000  C
  H24      1.0000 0.44090  0.86030  0.56940  Biso   1.000  H
  C40      1.0000 0.41280  0.80670  0.47400  Biso   1.000  C
  C41      1.0000 0.35540  0.80500  0.41570  Biso   1.000  C
  H25      1.0000 0.37080  0.77360  0.37790  Biso   1.000  H
  C42      1.0000 0.27340  0.85090  0.41390  Biso   1.000  C
  H26      1.0000 0.23220  0.85050  0.37440  Biso   1.000  H
  Er3      1.0000 0.93831  0.45479  0.90503  Biso   1.000  Er
  Er4      1.0000 0.06891  0.04157  0.59704  Biso   1.000  Er
  S4       1.0000 0.73891  0.01827  0.01308  Biso   1.000  S
  S5       1.0000 0.49280  0.70040  0.74714  Biso   1.000  S
  S6       1.0000 0.49303  0.26190  0.52301  Biso   1.000  S
  O20      1.0000 0.94710  0.62980  0.95490  Biso   1.000  O
  O21      1.0000 0.97830  0.65660  0.05990  Biso   1.000  O
  O22      1.0000 0.77720  0.09480  0.07540  Biso   1.000  O
  O23      1.0000 0.75960  0.07170  0.95910  Biso   1.000  O
  O24      1.0000 0.14450  0.58820  0.91180  Biso   1.000  O
  O25      1.0000 0.15460  0.60460  0.01460  Biso   1.000  O
  O26      1.0000 0.74130  0.37920  0.85780  Biso   1.000  O
  O27      1.0000 0.69690  0.30020  0.75380  Biso   1.000  O
  O28      1.0000 0.45340  0.73950  0.80090  Biso   1.000  O
  O29      1.0000 0.41040  0.64950  0.68630  Biso   1.000  O
  O30      1.0000 0.04260  0.08270  0.69410  Biso   1.000  O
  O31      1.0000 0.03160  0.21090  0.77010  Biso   1.000  O
  O32      1.0000 0.90870  0.08360  0.58500  Biso   1.000  O
  O33      1.0000 0.85630  0.01900  0.48050  Biso   1.000  O
  O34      1.0000 0.40000  0.20100  0.46600  Biso   1.000  O
  O35      1.0000 0.45760  0.26930  0.58310  Biso   1.000  O
  O36      1.0000 0.90480  0.85380  0.55540  Biso   1.000  O
  O37      1.0000 0.85780  0.79450  0.44990  Biso   1.000  O
  O38      1.0000 0.27470  0.16360  0.64970  Biso   1.000  O
  H27      1.0000 0.32340  0.17850  0.62290  Biso   1.000  H
  H28      1.0000 0.25630  0.21030  0.64980  Biso   1.000  H
  C43      1.0000 0.94900  0.67960  0.00870  Biso   1.000  C
  C44      1.0000 0.90770  0.77420  0.01170  Biso   1.000  C
  C45      1.0000 0.88140  0.81400  0.06710  Biso   1.000  C
  H29      1.0000 0.89770  0.78930  0.10450  Biso   1.000  H
  C46      1.0000 0.83130  0.89010  0.06760  Biso   1.000  C
  H30      1.0000 0.81110  0.91620  0.10520  Biso   1.000  H
  C47      1.0000 0.81110  0.92760  0.01410  Biso   1.000  C
  C48      1.0000 0.84090  0.89160  0.95800  Biso   1.000  C
  H31      1.0000 0.82930  0.92000  0.92130  Biso   1.000  H
  C49      1.0000 0.88780  0.81300  0.95840  Biso   1.000  C
  H32      1.0000 0.90660  0.78530  0.92080  Biso   1.000  H
  C50      1.0000 0.20350  0.63560  0.96870  Biso   1.000  C
  C51      1.0000 0.33620  0.73100  0.98060  Biso   1.000  C
  C52      1.0000 0.38690  0.77400  0.93040  Biso   1.000  C
  H33      1.0000 0.33760  0.74230  0.88880  Biso   1.000  H
  C53      1.0000 0.51090  0.86420  0.94070  Biso   1.000  C
  H34      1.0000 0.54570  0.89410  0.90650  Biso   1.000  H
  C54      1.0000 0.58070  0.90840  0.00050  Biso   1.000  C
  C55      1.0000 0.53040  0.86640  0.05160  Biso   1.000  C
  H35      1.0000 0.57980  0.89780  0.09320  Biso   1.000  H
  C56      1.0000 0.40820  0.77910  0.04080  Biso   1.000  C
  H36      1.0000 0.37290  0.75160  0.07540  Biso   1.000  H
  C57      1.0000 0.69310  0.36660  0.80010  Biso   1.000  C
  C58      1.0000 0.63400  0.44210  0.78870  Biso   1.000  C
  C59      1.0000 0.56300  0.42170  0.72940  Biso   1.000  C
  H37      1.0000 0.54680  0.35490  0.69710  Biso   1.000  H
  C60      1.0000 0.51600  0.49690  0.71680  Biso   1.000  C
  H38      1.0000 0.46780  0.48170  0.67640  Biso   1.000  H
  C61      1.0000 0.54020  0.59560  0.76450  Biso   1.000  C
  C62      1.0000 0.60950  0.61850  0.82350  Biso   1.000  C
  H39      1.0000 0.62660  0.68630  0.85540  Biso   1.000  H
  C63      1.0000 0.65430  0.54030  0.83570  Biso   1.000  C
  H40      1.0000 0.69960  0.55410  0.87670  Biso   1.000  H
  C64      1.0000 0.98810  0.11110  0.73250  Biso   1.000  C
  C65      1.0000 0.86050  0.01150  0.73520  Biso   1.000  C
  C66      1.0000 0.81640  0.01300  0.79040  Biso   1.000  C
  H41      1.0000 0.86420  0.07900  0.82580  Biso   1.000  H
  C67      1.0000 0.70420  0.91980  0.79420  Biso   1.000  C
  H42      1.0000 0.67600  0.92020  0.83260  Biso   1.000  H
  C68      1.0000 0.63190  0.82450  0.74140  Biso   1.000  C
  C69      1.0000 0.67260  0.82340  0.68560  Biso   1.000  C
  H43      1.0000 0.62240  0.76050  0.64910  Biso   1.000  H
  C70      1.0000 0.78920  0.91660  0.68350  Biso   1.000  C
  H44      1.0000 0.81960  0.91450  0.64600  Biso   1.000  H
  C71      1.0000 0.84770  0.77650  0.50420  Biso   1.000  C
  C72      1.0000 0.75700  0.64740  0.50870  Biso   1.000  C
  C73      1.0000 0.73500  0.62190  0.56660  Biso   1.000  C
  H45      1.0000 0.77610  0.68530  0.60360  Biso   1.000  H
  C74      1.0000 0.65360  0.50450  0.57150  Biso   1.000  C
  H46      1.0000 0.63930  0.48750  0.61160  Biso   1.000  H
  C75      1.0000 0.59380  0.41320  0.51740  Biso   1.000  C
  C76      1.0000 0.61440  0.43630  0.45890  Biso   1.000  C
  H47      1.0000 0.57300  0.37240  0.42200  Biso   1.000  H
  C77      1.0000 0.69590  0.55310  0.45430  Biso   1.000  C
  H48      1.0000 0.71050  0.56950  0.41420  Biso   1.000  H
  C78      1.0000 0.84470  0.06500  0.53230  Biso   1.000  C
  C79      1.0000 0.74710  0.10310  0.53010  Biso   1.000  C
  C80      1.0000 0.68410  0.09760  0.47220  Biso   1.000  C
  H49      1.0000 0.69620  0.06300  0.43410  Biso   1.000  H
  C81      1.0000 0.60290  0.14320  0.47000  Biso   1.000  C
  H50      1.0000 0.55910  0.13970  0.43060  Biso   1.000  H
  C82      1.0000 0.58720  0.19330  0.52600  Biso   1.000  C
  C83      1.0000 0.64460  0.19500  0.58430  Biso   1.000  C
  H51      1.0000 0.62920  0.22640  0.62210  Biso   1.000  H
  C84      1.0000 0.72660  0.14910  0.58610  Biso   1.000  C
  H52      1.0000 0.76780  0.14950  0.62560  Biso   1.000  H
