data_image0
_cell_length_a       6.6118
_cell_length_b       7.5662
_cell_length_c       9.2756
_cell_angle_alpha    90
_cell_angle_beta     99.8267
_cell_angle_gamma    90

_symmetry_space_group_name_H-M    "P 1"
_symmetry_int_tables_number       1

loop_
  _symmetry_equiv_pos_as_xyz
  'x, y, z'

loop_
  _atom_site_label
  _atom_site_occupancy
  _atom_site_fract_x
  _atom_site_fract_y
  _atom_site_fract_z
  _atom_site_thermal_displace_type
  _atom_site_B_iso_or_equiv
  _atom_site_type_symbol
  Er1      1.0000 0.16154  0.27135  0.29299  Biso   1.000  Er
  O1       1.0000 0.38760  0.34980  0.52020  Biso   1.000  O
  O2       1.0000 0.62470  0.52190  0.65360  Biso   1.000  O
  O3       1.0000 0.47350  0.33790  0.22420  Biso   1.000  O
  O4       1.0000 0.80860  0.36310  0.23800  Biso   1.000  O
  O5       1.0000 0.11500  0.36970  0.04270  Biso   1.000  O
  O6       1.0000 0.00190  0.53330  0.84710  Biso   1.000  O
  O7       1.0000 0.13460  0.57330  0.33430  Biso   1.000  O
  O8       1.0000 0.98250  0.63310  0.52510  Biso   1.000  O
  C1       1.0000 0.52830  0.46610  0.53630  Biso   1.000  C
  H1       1.0000 0.56230  0.51420  0.45130  Biso   1.000  H
  C2       1.0000 0.65170  0.27680  0.24220  Biso   1.000  C
  H2       1.0000 0.66720  0.15620  0.26020  Biso   1.000  H
  C3       1.0000 0.01260  0.49220  0.97920  Biso   1.000  C
  H3       1.0000 0.93660  0.56000  0.03430  Biso   1.000  H
  C4       1.0000 0.07000  0.67540  0.42160  Biso   1.000  C
  H4       1.0000 0.08920  0.79560  0.40790  Biso   1.000  H
  Er2      1.0000 0.83846  0.77135  0.70701  Biso   1.000  Er
  O9       1.0000 0.61240  0.84980  0.47980  Biso   1.000  O
  O10      1.0000 0.37530  0.02190  0.34640  Biso   1.000  O
  O11      1.0000 0.52650  0.83790  0.77580  Biso   1.000  O
  O12      1.0000 0.19140  0.86310  0.76200  Biso   1.000  O
  O13      1.0000 0.88500  0.86970  0.95730  Biso   1.000  O
  O14      1.0000 0.99810  0.03330  0.15290  Biso   1.000  O
  O15      1.0000 0.86540  0.07330  0.66570  Biso   1.000  O
  O16      1.0000 0.01750  0.13310  0.47490  Biso   1.000  O
  C5       1.0000 0.47170  0.96610  0.46370  Biso   1.000  C
  H5       1.0000 0.43770  0.01420  0.54870  Biso   1.000  H
  C6       1.0000 0.34830  0.77680  0.75780  Biso   1.000  C
  H6       1.0000 0.33280  0.65620  0.73980  Biso   1.000  H
  C7       1.0000 0.98740  0.99220  0.02080  Biso   1.000  C
  H7       1.0000 0.06340  0.06000  0.96570  Biso   1.000  H
  C8       1.0000 0.93000  0.17540  0.57840  Biso   1.000  C
  H8       1.0000 0.91080  0.29560  0.59210  Biso   1.000  H
