data_image0
_cell_length_a       6.6514
_cell_length_b       18.347
_cell_length_c       8.4311
_cell_angle_alpha    90
_cell_angle_beta     90
_cell_angle_gamma    90

_symmetry_space_group_name_H-M    "P 1"
_symmetry_int_tables_number       1

loop_
  _symmetry_equiv_pos_as_xyz
  'x, y, z'

loop_
  _atom_site_label
  _atom_site_occupancy
  _atom_site_fract_x
  _atom_site_fract_y
  _atom_site_fract_z
  _atom_site_thermal_displace_type
  _atom_site_B_iso_or_equiv
  _atom_site_type_symbol
  O1       1.0000 0.98730  0.05010  0.43040  Biso   1.000  O
  O2       1.0000 0.66470  0.09510  0.22860  Biso   1.000  O
  O3       1.0000 0.31940  0.25790  0.84720  Biso   1.000  O
  C1       1.0000 0.23700  0.24400  0.97490  Biso   1.000  C
  H1       1.0000 0.21970  0.28260  0.04510  Biso   1.000  H
  O4       1.0000 0.17510  0.18360  0.01820  Biso   1.000  O
  O5       1.0000 0.48730  0.55010  0.43040  Biso   1.000  O
  O6       1.0000 0.16470  0.59510  0.22860  Biso   1.000  O
  O7       1.0000 0.81940  0.75790  0.84720  Biso   1.000  O
  C2       1.0000 0.73700  0.74400  0.97490  Biso   1.000  C
  H2       1.0000 0.71970  0.78260  0.04510  Biso   1.000  H
  O8       1.0000 0.67510  0.68360  0.01820  Biso   1.000  O
  O9       1.0000 0.01270  0.94990  0.93040  Biso   1.000  O
  O10      1.0000 0.33530  0.90490  0.72860  Biso   1.000  O
  O11      1.0000 0.68060  0.74210  0.34720  Biso   1.000  O
  C3       1.0000 0.76300  0.75600  0.47490  Biso   1.000  C
  H3       1.0000 0.78030  0.71740  0.54510  Biso   1.000  H
  O12      1.0000 0.82490  0.81640  0.51820  Biso   1.000  O
  O13      1.0000 0.51270  0.44990  0.93040  Biso   1.000  O
  O14      1.0000 0.83530  0.40490  0.72860  Biso   1.000  O
  O15      1.0000 0.18060  0.24210  0.34720  Biso   1.000  O
  C4       1.0000 0.26300  0.25600  0.47490  Biso   1.000  C
  H4       1.0000 0.28030  0.21740  0.54510  Biso   1.000  H
  O16      1.0000 0.32490  0.31640  0.51820  Biso   1.000  O
  O17      1.0000 0.01270  0.05010  0.06960  Biso   1.000  O
  O18      1.0000 0.33530  0.09510  0.27140  Biso   1.000  O
  O19      1.0000 0.68060  0.25790  0.65280  Biso   1.000  O
  C5       1.0000 0.76300  0.24400  0.52510  Biso   1.000  C
  H5       1.0000 0.78030  0.28260  0.45490  Biso   1.000  H
  O20      1.0000 0.82490  0.18360  0.48180  Biso   1.000  O
  O21      1.0000 0.51270  0.55010  0.06960  Biso   1.000  O
  O22      1.0000 0.83530  0.59510  0.27140  Biso   1.000  O
  O23      1.0000 0.18060  0.75790  0.65280  Biso   1.000  O
  C6       1.0000 0.26300  0.74400  0.52510  Biso   1.000  C
  H6       1.0000 0.28030  0.78260  0.45490  Biso   1.000  H
  O24      1.0000 0.32490  0.68360  0.48180  Biso   1.000  O
  O25      1.0000 0.98730  0.94990  0.56960  Biso   1.000  O
  O26      1.0000 0.66470  0.90490  0.77140  Biso   1.000  O
  O27      1.0000 0.31940  0.74210  0.15280  Biso   1.000  O
  C7       1.0000 0.23700  0.75600  0.02510  Biso   1.000  C
  H7       1.0000 0.21970  0.71740  0.95490  Biso   1.000  H
  O28      1.0000 0.17510  0.81640  0.98180  Biso   1.000  O
  O29      1.0000 0.48730  0.44990  0.56960  Biso   1.000  O
  O30      1.0000 0.16470  0.40490  0.77140  Biso   1.000  O
  O31      1.0000 0.81940  0.24210  0.15280  Biso   1.000  O
  C8       1.0000 0.73700  0.25600  0.02510  Biso   1.000  C
  H8       1.0000 0.71970  0.21740  0.95490  Biso   1.000  H
  O32      1.0000 0.67510  0.31640  0.98180  Biso   1.000  O
  Er1      1.0000 0.00000  0.14272  0.25000  Biso   1.000  Er
  Er2      1.0000 0.50000  0.64272  0.25000  Biso   1.000  Er
  Er3      1.0000 0.00000  0.85728  0.75000  Biso   1.000  Er
  Er4      1.0000 0.50000  0.35728  0.75000  Biso   1.000  Er
  C9       1.0000 0.07590  0.00000  0.50000  Biso   1.000  C
  H9       1.0000 0.21570  0.00000  0.50000  Biso   1.000  H
  C10      1.0000 0.57590  0.50000  0.50000  Biso   1.000  C
  H10      1.0000 0.71570  0.50000  0.50000  Biso   1.000  H
  C11      1.0000 0.92410  0.00000  0.00000  Biso   1.000  C
  H11      1.0000 0.78430  0.00000  0.00000  Biso   1.000  H
  C12      1.0000 0.42410  0.50000  0.00000  Biso   1.000  C
  H12      1.0000 0.28430  0.50000  0.00000  Biso   1.000  H
  C13      1.0000 0.50000  0.12630  0.25000  Biso   1.000  C
  H13      1.0000 0.50000  0.17700  0.25000  Biso   1.000  H
  C14      1.0000 0.00000  0.62630  0.25000  Biso   1.000  C
  H14      1.0000 0.00000  0.67700  0.25000  Biso   1.000  H
  C15      1.0000 0.50000  0.87370  0.75000  Biso   1.000  C
  H15      1.0000 0.50000  0.82300  0.75000  Biso   1.000  H
  C16      1.0000 0.00000  0.37370  0.75000  Biso   1.000  C
  H16      1.0000 0.00000  0.32300  0.75000  Biso   1.000  H
