data_image0
_cell_length_a       6.6539
_cell_length_b       18.3606
_cell_length_c       8.433
_cell_angle_alpha    90
_cell_angle_beta     90
_cell_angle_gamma    90

_symmetry_space_group_name_H-M    "P 1"
_symmetry_int_tables_number       1

loop_
  _symmetry_equiv_pos_as_xyz
  'x, y, z'

loop_
  _atom_site_label
  _atom_site_occupancy
  _atom_site_fract_x
  _atom_site_fract_y
  _atom_site_fract_z
  _atom_site_thermal_displace_type
  _atom_site_B_iso_or_equiv
  _atom_site_type_symbol
  O1       1.0000 0.01190  0.45009  0.06960  Biso   1.000  O
  O2       1.0000 0.33540  0.40574  0.27090  Biso   1.000  O
  O3       1.0000 0.32540  0.18343  0.51860  Biso   1.000  O
  O4       1.0000 0.17970  0.25820  0.34700  Biso   1.000  O
  C1       1.0000 0.26400  0.24350  0.47550  Biso   1.000  C
  H1       1.0000 0.28220  0.28190  0.54590  Biso   1.000  H
  O5       1.0000 0.51190  0.95009  0.06960  Biso   1.000  O
  O6       1.0000 0.83540  0.90574  0.27090  Biso   1.000  O
  O7       1.0000 0.82540  0.68343  0.51860  Biso   1.000  O
  O8       1.0000 0.67970  0.75820  0.34700  Biso   1.000  O
  C2       1.0000 0.76400  0.74350  0.47550  Biso   1.000  C
  H2       1.0000 0.78220  0.78190  0.54590  Biso   1.000  H
  O9       1.0000 0.98810  0.54991  0.56960  Biso   1.000  O
  O10      1.0000 0.66460  0.59426  0.77090  Biso   1.000  O
  O11      1.0000 0.67460  0.81657  0.01860  Biso   1.000  O
  O12      1.0000 0.82030  0.74180  0.84700  Biso   1.000  O
  C3       1.0000 0.73600  0.75650  0.97550  Biso   1.000  C
  H3       1.0000 0.71780  0.71810  0.04590  Biso   1.000  H
  O13      1.0000 0.48810  0.04991  0.56960  Biso   1.000  O
  O14      1.0000 0.16460  0.09426  0.77090  Biso   1.000  O
  O15      1.0000 0.17460  0.31657  0.01860  Biso   1.000  O
  O16      1.0000 0.32030  0.24180  0.84700  Biso   1.000  O
  C4       1.0000 0.23600  0.25650  0.97550  Biso   1.000  C
  H4       1.0000 0.21780  0.21810  0.04590  Biso   1.000  H
  O17      1.0000 0.98810  0.45009  0.43040  Biso   1.000  O
  O18      1.0000 0.66460  0.40574  0.22910  Biso   1.000  O
  O19      1.0000 0.67460  0.18343  0.98140  Biso   1.000  O
  O20      1.0000 0.82030  0.25820  0.15300  Biso   1.000  O
  C5       1.0000 0.73600  0.24350  0.02450  Biso   1.000  C
  H5       1.0000 0.71780  0.28190  0.95410  Biso   1.000  H
  O21      1.0000 0.48810  0.95009  0.43040  Biso   1.000  O
  O22      1.0000 0.16460  0.90574  0.22910  Biso   1.000  O
  O23      1.0000 0.17460  0.68343  0.98140  Biso   1.000  O
  O24      1.0000 0.32030  0.75820  0.15300  Biso   1.000  O
  C6       1.0000 0.23600  0.74350  0.02450  Biso   1.000  C
  H6       1.0000 0.21780  0.78190  0.95410  Biso   1.000  H
  O25      1.0000 0.01190  0.54991  0.93040  Biso   1.000  O
  O26      1.0000 0.33540  0.59426  0.72910  Biso   1.000  O
  O27      1.0000 0.32540  0.81657  0.48140  Biso   1.000  O
  O28      1.0000 0.17970  0.74180  0.65300  Biso   1.000  O
  C7       1.0000 0.26400  0.75650  0.52450  Biso   1.000  C
  H7       1.0000 0.28220  0.71810  0.45410  Biso   1.000  H
  O29      1.0000 0.51190  0.04991  0.93040  Biso   1.000  O
  O30      1.0000 0.83540  0.09426  0.72910  Biso   1.000  O
  O31      1.0000 0.82540  0.31657  0.48140  Biso   1.000  O
  O32      1.0000 0.67970  0.24180  0.65300  Biso   1.000  O
  C8       1.0000 0.76400  0.25650  0.52450  Biso   1.000  C
  H8       1.0000 0.78220  0.21810  0.45410  Biso   1.000  H
  Er1      1.0000 0.00000  0.35727  0.25000  Biso   1.000  Er
  Er2      1.0000 0.50000  0.85727  0.25000  Biso   1.000  Er
  Er3      1.0000 0.00000  0.64273  0.75000  Biso   1.000  Er
  Er4      1.0000 0.50000  0.14273  0.75000  Biso   1.000  Er
  C9       1.0000 0.92570  0.50000  0.00000  Biso   1.000  C
  H9       1.0000 0.78600  0.50000  0.00000  Biso   1.000  H
  C10      1.0000 0.42570  0.00000  0.00000  Biso   1.000  C
  H10      1.0000 0.28600  0.00000  0.00000  Biso   1.000  H
  C11      1.0000 0.07430  0.50000  0.50000  Biso   1.000  C
  H11      1.0000 0.21400  0.50000  0.50000  Biso   1.000  H
  C12      1.0000 0.57430  0.00000  0.50000  Biso   1.000  C
  H12      1.0000 0.71400  0.00000  0.50000  Biso   1.000  H
  C13      1.0000 0.50000  0.37420  0.25000  Biso   1.000  C
  H13      1.0000 0.50000  0.32360  0.25000  Biso   1.000  H
  C14      1.0000 0.00000  0.87420  0.25000  Biso   1.000  C
  H14      1.0000 0.00000  0.82360  0.25000  Biso   1.000  H
  C15      1.0000 0.50000  0.62580  0.75000  Biso   1.000  C
  H15      1.0000 0.50000  0.67640  0.75000  Biso   1.000  H
  C16      1.0000 0.00000  0.12580  0.75000  Biso   1.000  C
  H16      1.0000 0.00000  0.17640  0.75000  Biso   1.000  H
