data_image0
_cell_length_a       6.6318
_cell_length_b       18.3719
_cell_length_c       8.4126
_cell_angle_alpha    90
_cell_angle_beta     90
_cell_angle_gamma    90

_symmetry_space_group_name_H-M    "P 1"
_symmetry_int_tables_number       1

loop_
  _symmetry_equiv_pos_as_xyz
  'x, y, z'

loop_
  _atom_site_label
  _atom_site_occupancy
  _atom_site_fract_x
  _atom_site_fract_y
  _atom_site_fract_z
  _atom_site_thermal_displace_type
  _atom_site_B_iso_or_equiv
  _atom_site_type_symbol
  O1       1.0000 0.98560  0.05010  0.43010  Biso   1.000  O
  O2       1.0000 0.66540  0.09510  0.22710  Biso   1.000  O
  O3       1.0000 0.32020  0.25710  0.84530  Biso   1.000  O
  C1       1.0000 0.23440  0.24360  0.97470  Biso   1.000  C
  H1       1.0000 0.21320  0.28300  0.04590  Biso   1.000  H
  O4       1.0000 0.17530  0.18260  0.01660  Biso   1.000  O
  O5       1.0000 0.48560  0.55010  0.43010  Biso   1.000  O
  O6       1.0000 0.16540  0.59510  0.22710  Biso   1.000  O
  O7       1.0000 0.82020  0.75710  0.84530  Biso   1.000  O
  C2       1.0000 0.73440  0.74360  0.97470  Biso   1.000  C
  H2       1.0000 0.71320  0.78300  0.04590  Biso   1.000  H
  O8       1.0000 0.67530  0.68260  0.01660  Biso   1.000  O
  O9       1.0000 0.01440  0.94990  0.93010  Biso   1.000  O
  O10      1.0000 0.33460  0.90490  0.72710  Biso   1.000  O
  O11      1.0000 0.67980  0.74290  0.34530  Biso   1.000  O
  C3       1.0000 0.76560  0.75640  0.47470  Biso   1.000  C
  H3       1.0000 0.78680  0.71700  0.54590  Biso   1.000  H
  O12      1.0000 0.82470  0.81740  0.51660  Biso   1.000  O
  O13      1.0000 0.51440  0.44990  0.93010  Biso   1.000  O
  O14      1.0000 0.83460  0.40490  0.72710  Biso   1.000  O
  O15      1.0000 0.17980  0.24290  0.34530  Biso   1.000  O
  C4       1.0000 0.26560  0.25640  0.47470  Biso   1.000  C
  H4       1.0000 0.28680  0.21700  0.54590  Biso   1.000  H
  O16      1.0000 0.32470  0.31740  0.51660  Biso   1.000  O
  O17      1.0000 0.01440  0.05010  0.06990  Biso   1.000  O
  O18      1.0000 0.33460  0.09510  0.27290  Biso   1.000  O
  O19      1.0000 0.67980  0.25710  0.65470  Biso   1.000  O
  C5       1.0000 0.76560  0.24360  0.52530  Biso   1.000  C
  H5       1.0000 0.78680  0.28300  0.45410  Biso   1.000  H
  O20      1.0000 0.82470  0.18260  0.48340  Biso   1.000  O
  O21      1.0000 0.51440  0.55010  0.06990  Biso   1.000  O
  O22      1.0000 0.83460  0.59510  0.27290  Biso   1.000  O
  O23      1.0000 0.17980  0.75710  0.65470  Biso   1.000  O
  C6       1.0000 0.26560  0.74360  0.52530  Biso   1.000  C
  H6       1.0000 0.28680  0.78300  0.45410  Biso   1.000  H
  O24      1.0000 0.32470  0.68260  0.48340  Biso   1.000  O
  O25      1.0000 0.98560  0.94990  0.56990  Biso   1.000  O
  O26      1.0000 0.66540  0.90490  0.77290  Biso   1.000  O
  O27      1.0000 0.32020  0.74290  0.15470  Biso   1.000  O
  C7       1.0000 0.23440  0.75640  0.02530  Biso   1.000  C
  H7       1.0000 0.21320  0.71700  0.95410  Biso   1.000  H
  O28      1.0000 0.17530  0.81740  0.98340  Biso   1.000  O
  O29      1.0000 0.48560  0.44990  0.56990  Biso   1.000  O
  O30      1.0000 0.16540  0.40490  0.77290  Biso   1.000  O
  O31      1.0000 0.82020  0.24290  0.15470  Biso   1.000  O
  C8       1.0000 0.73440  0.25640  0.02530  Biso   1.000  C
  H8       1.0000 0.71320  0.21700  0.95410  Biso   1.000  H
  O32      1.0000 0.67530  0.31740  0.98340  Biso   1.000  O
  Er1      1.0000 0.00000  0.14293  0.25000  Biso   1.000  Er
  Er2      1.0000 0.50000  0.64293  0.25000  Biso   1.000  Er
  Er3      1.0000 0.00000  0.85707  0.75000  Biso   1.000  Er
  Er4      1.0000 0.50000  0.35707  0.75000  Biso   1.000  Er
  C9       1.0000 0.07560  0.00000  0.50000  Biso   1.000  C
  H9       1.0000 0.21880  0.00000  0.50000  Biso   1.000  H
  C10      1.0000 0.57560  0.50000  0.50000  Biso   1.000  C
  H10      1.0000 0.71880  0.50000  0.50000  Biso   1.000  H
  C11      1.0000 0.92440  0.00000  0.00000  Biso   1.000  C
  H11      1.0000 0.78120  0.00000  0.00000  Biso   1.000  H
  C12      1.0000 0.42440  0.50000  0.00000  Biso   1.000  C
  H12      1.0000 0.28120  0.50000  0.00000  Biso   1.000  H
  C13      1.0000 0.50000  0.12660  0.25000  Biso   1.000  C
  H13      1.0000 0.50000  0.17830  0.25000  Biso   1.000  H
  C14      1.0000 0.00000  0.62660  0.25000  Biso   1.000  C
  H14      1.0000 0.00000  0.67830  0.25000  Biso   1.000  H
  C15      1.0000 0.50000  0.87340  0.75000  Biso   1.000  C
  H15      1.0000 0.50000  0.82170  0.75000  Biso   1.000  H
  C16      1.0000 0.00000  0.37340  0.75000  Biso   1.000  C
  H16      1.0000 0.00000  0.32170  0.75000  Biso   1.000  H
