data_image0
_cell_length_a       6.6349
_cell_length_b       8.6371
_cell_length_c       9.6727
_cell_angle_alpha    90
_cell_angle_beta     102.101
_cell_angle_gamma    90

_symmetry_space_group_name_H-M    "P 1"
_symmetry_int_tables_number       1

loop_
  _symmetry_equiv_pos_as_xyz
  'x, y, z'

loop_
  _atom_site_label
  _atom_site_occupancy
  _atom_site_fract_x
  _atom_site_fract_y
  _atom_site_fract_z
  _atom_site_thermal_displace_type
  _atom_site_B_iso_or_equiv
  _atom_site_type_symbol
  Er1      1.0000 0.10557  0.23094  0.27076  Biso   1.000  Er
  O1       1.0000 0.07340  0.45610  0.12620  Biso   1.000  O
  O2       1.0000 0.00210  0.61790  0.94650  Biso   1.000  O
  O3       1.0000 0.14220  0.42530  0.43230  Biso   1.000  O
  O4       1.0000 0.06340  0.58690  0.58830  Biso   1.000  O
  O5       1.0000 0.42350  0.30070  0.22880  Biso   1.000  O
  O6       1.0000 0.75420  0.30530  0.22080  Biso   1.000  O
  O7       1.0000 0.37410  0.13050  0.47930  Biso   1.000  O
  O8       1.0000 0.28070  0.97990  0.29420  Biso   1.000  O
  C1       1.0000 0.97900  0.49680  0.01020  Biso   1.000  C
  H1       1.0000 0.87850  0.42910  0.96380  Biso   1.000  H
  C2       1.0000 0.04110  0.51410  0.48260  Biso   1.000  C
  H2       1.0000 0.91230  0.53040  0.42440  Biso   1.000  H
  C3       1.0000 0.59900  0.25090  0.23960  Biso   1.000  C
  H3       1.0000 0.61280  0.14810  0.26870  Biso   1.000  H
  C4       1.0000 0.38310  0.00430  0.41650  Biso   1.000  C
  H4       1.0000 0.46860  0.92650  0.46230  Biso   1.000  H
  Er2      1.0000 0.89443  0.73094  0.72924  Biso   1.000  Er
  O9       1.0000 0.92660  0.95610  0.87380  Biso   1.000  O
  O10      1.0000 0.99790  0.11790  0.05350  Biso   1.000  O
  O11      1.0000 0.85780  0.92530  0.56770  Biso   1.000  O
  O12      1.0000 0.93660  0.08690  0.41170  Biso   1.000  O
  O13      1.0000 0.57650  0.80070  0.77120  Biso   1.000  O
  O14      1.0000 0.24580  0.80530  0.77920  Biso   1.000  O
  O15      1.0000 0.62590  0.63050  0.52070  Biso   1.000  O
  O16      1.0000 0.71930  0.47990  0.70580  Biso   1.000  O
  C5       1.0000 0.02100  0.99680  0.98980  Biso   1.000  C
  H5       1.0000 0.12150  0.92910  0.03620  Biso   1.000  H
  C6       1.0000 0.95890  0.01410  0.51740  Biso   1.000  C
  H6       1.0000 0.08770  0.03040  0.57560  Biso   1.000  H
  C7       1.0000 0.40100  0.75090  0.76040  Biso   1.000  C
  H7       1.0000 0.38720  0.64810  0.73130  Biso   1.000  H
  C8       1.0000 0.61690  0.50430  0.58350  Biso   1.000  C
  H8       1.0000 0.53140  0.42650  0.53770  Biso   1.000  H
