data_image0
_cell_length_a       18.8613
_cell_length_b       9.0856
_cell_length_c       24.9485
_cell_angle_alpha    90
_cell_angle_beta     107.211
_cell_angle_gamma    90

_symmetry_space_group_name_H-M    "P 1"
_symmetry_int_tables_number       1

loop_
  _symmetry_equiv_pos_as_xyz
  'x, y, z'

loop_
  _atom_site_label
  _atom_site_occupancy
  _atom_site_fract_x
  _atom_site_fract_y
  _atom_site_fract_z
  _atom_site_thermal_displace_type
  _atom_site_B_iso_or_equiv
  _atom_site_type_symbol
  Zn1      1.0000 0.08595  0.71637  0.27756  Biso   1.000  Zn
  Zn2      1.0000 0.76804  0.70060  0.17503  Biso   1.000  Zn
  Zn3      1.0000 0.24183  0.47090  0.50109  Biso   1.000  Zn
  Zn4      1.0000 0.26333  0.95152  0.49397  Biso   1.000  Zn
  Zn5      1.0000 0.27996  0.32420  0.17994  Biso   1.000  Zn
  Zn6      1.0000 0.40620  0.71242  0.72133  Biso   1.000  Zn
  P1       1.0000 0.92391  0.55999  0.24751  Biso   1.000  P
  H1       1.0000 0.91470  0.63200  0.28500  Biso   1.000  H
  P2       1.0000 0.17763  0.46737  0.23952  Biso   1.000  P
  H2       1.0000 0.11700  0.40700  0.22910  Biso   1.000  H
  P3       1.0000 0.15344  0.72775  0.41622  Biso   1.000  P
  H3       1.0000 0.11400  0.76600  0.44700  Biso   1.000  H
  P4       1.0000 0.68007  0.73951  0.04953  Biso   1.000  P
  H4       1.0000 0.62600  0.75050  0.07500  Biso   1.000  H
  P5       1.0000 0.19024  0.18629  0.55246  Biso   1.000  P
  H5       1.0000 0.13700  0.17940  0.57630  Biso   1.000  H
  P6       1.0000 0.33993  0.70829  0.58622  Biso   1.000  P
  H6       1.0000 0.40100  0.64000  0.58833  Biso   1.000  H
  P7       1.0000 0.43121  0.45306  0.25893  Biso   1.000  P
  H7       1.0000 0.40800  0.38700  0.29600  Biso   1.000  H
  P8       1.0000 0.66630  0.55947  0.23450  Biso   1.000  P
  H8       1.0000 0.60200  0.61600  0.22900  Biso   1.000  H
  O1       1.0000 0.99920  0.59770  0.24390  Biso   1.000  O
  O2       1.0000 0.86460  0.60830  0.19450  Biso   1.000  O
  O3       1.0000 0.91510  0.40060  0.26210  Biso   1.000  O
  O4       1.0000 0.16770  0.62840  0.25390  Biso   1.000  O
  O5       1.0000 0.20300  0.45810  0.18730  Biso   1.000  O
  O6       1.0000 0.22990  0.38930  0.28900  Biso   1.000  O
  O7       1.0000 0.10400  0.72930  0.35760  Biso   1.000  O
  O8       1.0000 0.21430  0.84450  0.42530  Biso   1.000  O
  O9       1.0000 0.18170  0.57690  0.43550  Biso   1.000  O
  O10      1.0000 0.67360  0.87470  0.01260  Biso   1.000  O
  O11      1.0000 0.75330  0.73260  0.09540  Biso   1.000  O
  O12      1.0000 0.66480  0.59860  0.01460  Biso   1.000  O
  O13      1.0000 0.18490  0.04580  0.51840  Biso   1.000  O
  O14      1.0000 0.17400  0.32040  0.51450  Biso   1.000  O
  O15      1.0000 0.26170  0.20170  0.59970  Biso   1.000  O
  O16      1.0000 0.27860  0.60020  0.56500  Biso   1.000  O
  O17      1.0000 0.34450  0.75000  0.64630  Biso   1.000  O
  O18      1.0000 0.33610  0.83950  0.54970  Biso   1.000  O
  O19      1.0000 0.50890  0.40730  0.27020  Biso   1.000  O
  O20      1.0000 0.42040  0.61350  0.26790  Biso   1.000  O
  O21      1.0000 0.38140  0.39610  0.20320  Biso   1.000  O
  O22      1.0000 0.68520  0.58230  0.18020  Biso   1.000  O
  O23      1.0000 0.66160  0.39310  0.24540  Biso   1.000  O
  O24      1.0000 0.72220  0.63360  0.28400  Biso   1.000  O
  Zn7      1.0000 0.91405  0.21637  0.22244  Biso   1.000  Zn
  Zn8      1.0000 0.23196  0.20060  0.32497  Biso   1.000  Zn
  Zn9      1.0000 0.75817  0.97090  0.99891  Biso   1.000  Zn
  Zn10     1.0000 0.73667  0.45152  0.00603  Biso   1.000  Zn
  Zn11     1.0000 0.72004  0.82420  0.32006  Biso   1.000  Zn
  Zn12     1.0000 0.59380  0.21242  0.77867  Biso   1.000  Zn
  P9       1.0000 0.07609  0.05999  0.25249  Biso   1.000  P
  H9       1.0000 0.08530  0.13200  0.21500  Biso   1.000  H
  P10      1.0000 0.82237  0.96737  0.26048  Biso   1.000  P
  H10      1.0000 0.88300  0.90700  0.27090  Biso   1.000  H
  P11      1.0000 0.84656  0.22775  0.08378  Biso   1.000  P
  H11      1.0000 0.88600  0.26600  0.05300  Biso   1.000  H
  P12      1.0000 0.31993  0.23951  0.45047  Biso   1.000  P
  H12      1.0000 0.37400  0.25050  0.42500  Biso   1.000  H
  P13      1.0000 0.80976  0.68629  0.94754  Biso   1.000  P
  H13      1.0000 0.86300  0.67940  0.92370  Biso   1.000  H
  P14      1.0000 0.66007  0.20829  0.91378  Biso   1.000  P
  H14      1.0000 0.59900  0.14000  0.91167  Biso   1.000  H
  P15      1.0000 0.56879  0.95306  0.24107  Biso   1.000  P
  H15      1.0000 0.59200  0.88700  0.20400  Biso   1.000  H
  P16      1.0000 0.33370  0.05947  0.26550  Biso   1.000  P
  H16      1.0000 0.39800  0.11600  0.27100  Biso   1.000  H
  O25      1.0000 0.00080  0.09770  0.25610  Biso   1.000  O
  O26      1.0000 0.13540  0.10830  0.30550  Biso   1.000  O
  O27      1.0000 0.08490  0.90060  0.23790  Biso   1.000  O
  O28      1.0000 0.83230  0.12840  0.24610  Biso   1.000  O
  O29      1.0000 0.79700  0.95810  0.31270  Biso   1.000  O
  O30      1.0000 0.77010  0.88930  0.21100  Biso   1.000  O
  O31      1.0000 0.89600  0.22930  0.14240  Biso   1.000  O
  O32      1.0000 0.78570  0.34450  0.07470  Biso   1.000  O
  O33      1.0000 0.81830  0.07690  0.06450  Biso   1.000  O
  O34      1.0000 0.32640  0.37470  0.48740  Biso   1.000  O
  O35      1.0000 0.24670  0.23260  0.40460  Biso   1.000  O
  O36      1.0000 0.33520  0.09860  0.48540  Biso   1.000  O
  O37      1.0000 0.81510  0.54580  0.98160  Biso   1.000  O
  O38      1.0000 0.82600  0.82040  0.98550  Biso   1.000  O
  O39      1.0000 0.73830  0.70170  0.90030  Biso   1.000  O
  O40      1.0000 0.72140  0.10020  0.93500  Biso   1.000  O
  O41      1.0000 0.65550  0.25000  0.85370  Biso   1.000  O
  O42      1.0000 0.66390  0.33950  0.95030  Biso   1.000  O
  O43      1.0000 0.49110  0.90730  0.22980  Biso   1.000  O
  O44      1.0000 0.57960  0.11350  0.23210  Biso   1.000  O
  O45      1.0000 0.61860  0.89610  0.29680  Biso   1.000  O
  O46      1.0000 0.31480  0.08230  0.31980  Biso   1.000  O
  O47      1.0000 0.33840  0.89310  0.25460  Biso   1.000  O
  O48      1.0000 0.27780  0.13360  0.21600  Biso   1.000  O
  Zn13     1.0000 0.91405  0.28363  0.72244  Biso   1.000  Zn
  Zn14     1.0000 0.23196  0.29940  0.82497  Biso   1.000  Zn
  Zn15     1.0000 0.75817  0.52910  0.49891  Biso   1.000  Zn
  Zn16     1.0000 0.73667  0.04848  0.50603  Biso   1.000  Zn
  Zn17     1.0000 0.72004  0.67580  0.82006  Biso   1.000  Zn
  Zn18     1.0000 0.59380  0.28758  0.27867  Biso   1.000  Zn
  P17      1.0000 0.07609  0.44001  0.75249  Biso   1.000  P
  H17      1.0000 0.08530  0.36800  0.71500  Biso   1.000  H
  P18      1.0000 0.82237  0.53263  0.76048  Biso   1.000  P
  H18      1.0000 0.88300  0.59300  0.77090  Biso   1.000  H
  P19      1.0000 0.84656  0.27225  0.58378  Biso   1.000  P
  H19      1.0000 0.88600  0.23400  0.55300  Biso   1.000  H
  P20      1.0000 0.31993  0.26049  0.95047  Biso   1.000  P
  H20      1.0000 0.37400  0.24950  0.92500  Biso   1.000  H
  P21      1.0000 0.80976  0.81371  0.44754  Biso   1.000  P
  H21      1.0000 0.86300  0.82060  0.42370  Biso   1.000  H
  P22      1.0000 0.66007  0.29171  0.41378  Biso   1.000  P
  H22      1.0000 0.59900  0.36000  0.41167  Biso   1.000  H
  P23      1.0000 0.56879  0.54694  0.74107  Biso   1.000  P
  H23      1.0000 0.59200  0.61300  0.70400  Biso   1.000  H
  P24      1.0000 0.33370  0.44053  0.76550  Biso   1.000  P
  H24      1.0000 0.39800  0.38400  0.77100  Biso   1.000  H
  O49      1.0000 0.00080  0.40230  0.75610  Biso   1.000  O
  O50      1.0000 0.13540  0.39170  0.80550  Biso   1.000  O
  O51      1.0000 0.08490  0.59940  0.73790  Biso   1.000  O
  O52      1.0000 0.83230  0.37160  0.74610  Biso   1.000  O
  O53      1.0000 0.79700  0.54190  0.81270  Biso   1.000  O
  O54      1.0000 0.77010  0.61070  0.71100  Biso   1.000  O
  O55      1.0000 0.89600  0.27070  0.64240  Biso   1.000  O
  O56      1.0000 0.78570  0.15550  0.57470  Biso   1.000  O
  O57      1.0000 0.81830  0.42310  0.56450  Biso   1.000  O
  O58      1.0000 0.32640  0.12530  0.98740  Biso   1.000  O
  O59      1.0000 0.24670  0.26740  0.90460  Biso   1.000  O
  O60      1.0000 0.33520  0.40140  0.98540  Biso   1.000  O
  O61      1.0000 0.81510  0.95420  0.48160  Biso   1.000  O
  O62      1.0000 0.82600  0.67960  0.48550  Biso   1.000  O
  O63      1.0000 0.73830  0.79830  0.40030  Biso   1.000  O
  O64      1.0000 0.72140  0.39980  0.43500  Biso   1.000  O
  O65      1.0000 0.65550  0.25000  0.35370  Biso   1.000  O
  O66      1.0000 0.66390  0.16050  0.45030  Biso   1.000  O
  O67      1.0000 0.49110  0.59270  0.72980  Biso   1.000  O
  O68      1.0000 0.57960  0.38650  0.73210  Biso   1.000  O
  O69      1.0000 0.61860  0.60390  0.79680  Biso   1.000  O
  O70      1.0000 0.31480  0.41770  0.81980  Biso   1.000  O
  O71      1.0000 0.33840  0.60690  0.75460  Biso   1.000  O
  O72      1.0000 0.27780  0.36640  0.71600  Biso   1.000  O
  Zn19     1.0000 0.08595  0.78363  0.77756  Biso   1.000  Zn
  Zn20     1.0000 0.76804  0.79940  0.67503  Biso   1.000  Zn
  Zn21     1.0000 0.24183  0.02910  0.00109  Biso   1.000  Zn
  Zn22     1.0000 0.26333  0.54848  0.99397  Biso   1.000  Zn
  Zn23     1.0000 0.27996  0.17580  0.67994  Biso   1.000  Zn
  Zn24     1.0000 0.40620  0.78758  0.22133  Biso   1.000  Zn
  P25      1.0000 0.92391  0.94001  0.74751  Biso   1.000  P
  H25      1.0000 0.91470  0.86800  0.78500  Biso   1.000  H
  P26      1.0000 0.17763  0.03263  0.73952  Biso   1.000  P
  H26      1.0000 0.11700  0.09300  0.72910  Biso   1.000  H
  P27      1.0000 0.15344  0.77225  0.91622  Biso   1.000  P
  H27      1.0000 0.11400  0.73400  0.94700  Biso   1.000  H
  P28      1.0000 0.68007  0.76049  0.54953  Biso   1.000  P
  H28      1.0000 0.62600  0.74950  0.57500  Biso   1.000  H
  P29      1.0000 0.19024  0.31371  0.05246  Biso   1.000  P
  H29      1.0000 0.13700  0.32060  0.07630  Biso   1.000  H
  P30      1.0000 0.33993  0.79171  0.08622  Biso   1.000  P
  H30      1.0000 0.40100  0.86000  0.08833  Biso   1.000  H
  P31      1.0000 0.43121  0.04694  0.75893  Biso   1.000  P
  H31      1.0000 0.40800  0.11300  0.79600  Biso   1.000  H
  P32      1.0000 0.66630  0.94053  0.73450  Biso   1.000  P
  H32      1.0000 0.60200  0.88400  0.72900  Biso   1.000  H
  O73      1.0000 0.99920  0.90230  0.74390  Biso   1.000  O
  O74      1.0000 0.86460  0.89170  0.69450  Biso   1.000  O
  O75      1.0000 0.91510  0.09940  0.76210  Biso   1.000  O
  O76      1.0000 0.16770  0.87160  0.75390  Biso   1.000  O
  O77      1.0000 0.20300  0.04190  0.68730  Biso   1.000  O
  O78      1.0000 0.22990  0.11070  0.78900  Biso   1.000  O
  O79      1.0000 0.10400  0.77070  0.85760  Biso   1.000  O
  O80      1.0000 0.21430  0.65550  0.92530  Biso   1.000  O
  O81      1.0000 0.18170  0.92310  0.93550  Biso   1.000  O
  O82      1.0000 0.67360  0.62530  0.51260  Biso   1.000  O
  O83      1.0000 0.75330  0.76740  0.59540  Biso   1.000  O
  O84      1.0000 0.66480  0.90140  0.51460  Biso   1.000  O
  O85      1.0000 0.18490  0.45420  0.01840  Biso   1.000  O
  O86      1.0000 0.17400  0.17960  0.01450  Biso   1.000  O
  O87      1.0000 0.26170  0.29830  0.09970  Biso   1.000  O
  O88      1.0000 0.27860  0.89980  0.06500  Biso   1.000  O
  O89      1.0000 0.34450  0.75000  0.14630  Biso   1.000  O
  O90      1.0000 0.33610  0.66050  0.04970  Biso   1.000  O
  O91      1.0000 0.50890  0.09270  0.77020  Biso   1.000  O
  O92      1.0000 0.42040  0.88650  0.76790  Biso   1.000  O
  O93      1.0000 0.38140  0.10390  0.70320  Biso   1.000  O
  O94      1.0000 0.68520  0.91770  0.68020  Biso   1.000  O
  O95      1.0000 0.66160  0.10690  0.74540  Biso   1.000  O
  O96      1.0000 0.72220  0.86640  0.78400  Biso   1.000  O
