data_UXUNUX_clean
_audit_creation_date              2014-07-02
_audit_creation_method            'Materials Studio'
_symmetry_space_group_name_H-M    'P1'
_symmetry_Int_Tables_number       1
_symmetry_cell_setting            triclinic
loop_
_symmetry_equiv_pos_as_xyz
  x,y,z
_cell_length_a                    18.0640
_cell_length_b                    22.1137
_cell_length_c                    22.1137
_cell_angle_alpha                 80.3970
_cell_angle_beta                  65.8934
_cell_angle_gamma                 65.8933
loop_
_atom_site_label
_atom_site_type_symbol
_atom_site_fract_x
_atom_site_fract_y
_atom_site_fract_z
_atom_site_U_iso_or_equiv
_atom_site_adp_type
_atom_site_occupancy
Cu1    Cu    0.75996   0.99004   0.49004   0.01267  Uiso   1.00
Cu2    Cu    0.74004   0.50996   0.00996   0.01267  Uiso   1.00
Cu3    Cu    0.25000   0.49004   0.50996   0.01267  Uiso   1.00
Cu4    Cu    0.75000   0.00996   0.99004   0.01267  Uiso   1.00
H1     H     0.72400   0.92230   0.62010   0.01267  Uiso   1.00
H2     H     0.71600   0.93030   0.72490   0.01267  Uiso   1.00
H3     H     0.78940   0.08530   0.66330   0.01267  Uiso   1.00
H4     H     0.78670   0.07680   0.56220   0.01267  Uiso   1.00
H5     H     0.63760   0.99920   0.92840   0.01267  Uiso   1.00
H6     H     0.64030   0.99240   0.82580   0.01267  Uiso   1.00
H7     H     0.85350   0.03960   0.74580   0.01267  Uiso   1.00
H8     H     0.84830   0.04110   0.85190   0.01267  Uiso   1.00
H9     H     0.76640   0.57770   0.87990   0.01267  Uiso   1.00
H10    H     0.87120   0.56970   0.77510   0.01267  Uiso   1.00
H11    H     0.03800   0.41470   0.83670   0.01267  Uiso   1.00
H12    H     0.92570   0.42320   0.93780   0.01267  Uiso   1.00
H13    H     0.06520   0.50080   0.57160   0.01267  Uiso   1.00
H14    H     0.95850   0.50760   0.67420   0.01267  Uiso   1.00
H15    H     0.13890   0.46040   0.75420   0.01267  Uiso   1.00
H16    H     0.24130   0.45890   0.64810   0.01267  Uiso   1.00
H17    H     0.73360   0.12010   0.42230   0.01267  Uiso   1.00
H18    H     0.62880   0.22490   0.43030   0.01267  Uiso   1.00
H19    H     0.46200   0.16330   0.58530   0.01267  Uiso   1.00
H20    H     0.57430   0.06220   0.57680   0.01267  Uiso   1.00
H21    H     0.43480   0.42840   0.49920   0.01267  Uiso   1.00
H22    H     0.54150   0.32580   0.49240   0.01267  Uiso   1.00
H23    H     0.36110   0.24580   0.53960   0.01267  Uiso   1.00
H24    H     0.25870   0.35190   0.54110   0.01267  Uiso   1.00
H25    H     0.77600   0.37990   0.07770   0.01267  Uiso   1.00
H26    H     0.78400   0.27510   0.06970   0.01267  Uiso   1.00
H27    H     0.71060   0.33670   0.91470   0.01267  Uiso   1.00
H28    H     0.71330   0.43780   0.92320   0.01267  Uiso   1.00
H29    H     0.86240   0.07160   0.00080   0.01267  Uiso   1.00
H30    H     0.85970   0.17420   0.00760   0.01267  Uiso   1.00
H31    H     0.64650   0.25420   0.96040   0.01267  Uiso   1.00
H32    H     0.65170   0.14810   0.95890   0.01267  Uiso   1.00
H33    H     0.15590   0.62010   0.57770   0.01267  Uiso   1.00
H34    H     0.05910   0.72490   0.56970   0.01267  Uiso   1.00
H35    H     0.04730   0.66330   0.41470   0.01267  Uiso   1.00
H36    H     0.15110   0.56220   0.42320   0.01267  Uiso   1.00
H37    H     0.93400   0.92840   0.50080   0.01267  Uiso   1.00
H38    H     0.03390   0.82580   0.50760   0.01267  Uiso   1.00
H39    H     0.90070   0.74580   0.46040   0.01267  Uiso   1.00
H40    H     0.79980   0.85190   0.45890   0.01267  Uiso   1.00
H41    H     0.85370   0.87990   0.92230   0.01267  Uiso   1.00
H42    H     0.85370   0.77510   0.93030   0.01267  Uiso   1.00
H43    H     0.62530   0.83670   0.08530   0.01267  Uiso   1.00
H44    H     0.63650   0.93780   0.07680   0.01267  Uiso   1.00
H45    H     0.86320   0.57160   0.99920   0.01267  Uiso   1.00
H46    H     0.86730   0.67420   0.99240   0.01267  Uiso   1.00
H47    H     0.60690   0.75420   0.03960   0.01267  Uiso   1.00
H48    H     0.61060   0.64810   0.04110   0.01267  Uiso   1.00
H49    H     0.64630   0.07770   0.12010   0.01267  Uiso   1.00
H50    H     0.64630   0.06970   0.22490   0.01267  Uiso   1.00
H51    H     0.87470   0.91470   0.16330   0.01267  Uiso   1.00
H52    H     0.86350   0.92320   0.06220   0.01267  Uiso   1.00
H53    H     0.63680   0.00080   0.42840   0.01267  Uiso   1.00
H54    H     0.63270   0.00760   0.32580   0.01267  Uiso   1.00
H55    H     0.89310   0.96040   0.24580   0.01267  Uiso   1.00
H56    H     0.88940   0.95890   0.35190   0.01267  Uiso   1.00
H57    H     0.34410   0.42230   0.37990   0.01267  Uiso   1.00
H58    H     0.44090   0.43030   0.27510   0.01267  Uiso   1.00
H59    H     0.45270   0.58530   0.33670   0.01267  Uiso   1.00
H60    H     0.34890   0.57680   0.43780   0.01267  Uiso   1.00
H61    H     0.56600   0.49920   0.07160   0.01267  Uiso   1.00
H62    H     0.46610   0.49240   0.17420   0.01267  Uiso   1.00
H63    H     0.59930   0.53960   0.25420   0.01267  Uiso   1.00
H64    H     0.70020   0.54110   0.14810   0.01267  Uiso   1.00
C1     C     0.73560   0.95620   0.62960   0.01267  Uiso   1.00
C2     C     0.73140   0.96040   0.69240   0.01267  Uiso   1.00
C3     C     0.75020   0.01030   0.70690   0.01267  Uiso   1.00
C4     C     0.77370   0.05270   0.65630   0.01267  Uiso   1.00
C5     C     0.77360   0.04639   0.59521   0.01267  Uiso   1.00
C6     C     0.68260   0.00570   0.89130   0.01267  Uiso   1.00
C7     C     0.68310   0.00260   0.83000   0.01267  Uiso   1.00
C8     C     0.74760   0.01440   0.77400   0.01267  Uiso   1.00
C9     C     0.81030   0.03010   0.78210   0.01267  Uiso   1.00
C10    C     0.80640   0.03100   0.84620   0.01267  Uiso   1.00
C11    C     0.82140   0.54380   0.87040   0.01267  Uiso   1.00
C12    C     0.88420   0.53960   0.80760   0.01267  Uiso   1.00
C13    C     0.96740   0.48970   0.79310   0.01267  Uiso   1.00
C14    C     0.98270   0.44730   0.84370   0.01267  Uiso   1.00
C15    C     0.91520   0.45361   0.90479   0.01267  Uiso   1.00
C16    C     0.07960   0.49430   0.60870   0.01267  Uiso   1.00
C17    C     0.01570   0.49740   0.67000   0.01267  Uiso   1.00
C18    C     0.03600   0.48560   0.72600   0.01267  Uiso   1.00
C19    C     0.12250   0.46990   0.71790   0.01267  Uiso   1.00
C20    C     0.18360   0.46900   0.65380   0.01267  Uiso   1.00
C21    C     0.67860   0.12960   0.45620   0.01267  Uiso   1.00
C22    C     0.61580   0.19240   0.46040   0.01267  Uiso   1.00
C23    C     0.53260   0.20690   0.51030   0.01267  Uiso   1.00
C24    C     0.51730   0.15630   0.55270   0.01267  Uiso   1.00
C25    C     0.58480   0.09521   0.54639   0.01267  Uiso   1.00
C26    C     0.42040   0.39130   0.50570   0.01267  Uiso   1.00
C27    C     0.48430   0.33000   0.50260   0.01267  Uiso   1.00
C28    C     0.46400   0.27400   0.51440   0.01267  Uiso   1.00
C29    C     0.37750   0.28210   0.53010   0.01267  Uiso   1.00
C30    C     0.31640   0.34620   0.53100   0.01267  Uiso   1.00
C31    C     0.76440   0.37040   0.04380   0.01267  Uiso   1.00
C32    C     0.76860   0.30760   0.03960   0.01267  Uiso   1.00
C33    C     0.74980   0.29310   0.98970   0.01267  Uiso   1.00
C34    C     0.72630   0.34370   0.94730   0.01267  Uiso   1.00
C35    C     0.72640   0.40479   0.95361   0.01267  Uiso   1.00
C36    C     0.81740   0.10870   0.99430   0.01267  Uiso   1.00
C37    C     0.81690   0.17000   0.99740   0.01267  Uiso   1.00
C38    C     0.75240   0.22600   0.98560   0.01267  Uiso   1.00
C39    C     0.68970   0.21790   0.96990   0.01267  Uiso   1.00
C40    C     0.69360   0.15380   0.96900   0.01267  Uiso   1.00
C41    C     0.13480   0.62960   0.54380   0.01267  Uiso   1.00
C42    C     0.07620   0.69240   0.53960   0.01267  Uiso   1.00
C43    C     0.04290   0.70690   0.48970   0.01267  Uiso   1.00
C44    C     0.07000   0.65630   0.44730   0.01267  Uiso   1.00
C45    C     0.13119   0.59521   0.45361   0.01267  Uiso   1.00
C46    C     0.92610   0.89130   0.49430   0.01267  Uiso   1.00
C47    C     0.98690   0.83000   0.49740   0.01267  Uiso   1.00
C48    C     0.97840   0.77400   0.48560   0.01267  Uiso   1.00
C49    C     0.90760   0.78210   0.46990   0.01267  Uiso   1.00
C50    C     0.84740   0.84620   0.46900   0.01267  Uiso   1.00
C51    C     0.80820   0.87040   0.95620   0.01267  Uiso   1.00
C52    C     0.80820   0.80760   0.96040   0.01267  Uiso   1.00
C53    C     0.73950   0.79310   0.01030   0.01267  Uiso   1.00
C54    C     0.67360   0.84370   0.05270   0.01267  Uiso   1.00
C55    C     0.68001   0.90479   0.04639   0.01267  Uiso   1.00
C56    C     0.81170   0.60870   0.00570   0.01267  Uiso   1.00
C57    C     0.81430   0.67000   0.00260   0.01267  Uiso   1.00
C58    C     0.73800   0.72600   0.01440   0.01267  Uiso   1.00
C59    C     0.65960   0.71790   0.03010   0.01267  Uiso   1.00
C60    C     0.66260   0.65380   0.03100   0.01267  Uiso   1.00
C61    C     0.69180   0.04380   0.12960   0.01267  Uiso   1.00
C62    C     0.69180   0.03960   0.19240   0.01267  Uiso   1.00
C63    C     0.76050   0.98970   0.20690   0.01267  Uiso   1.00
C64    C     0.82640   0.94730   0.15630   0.01267  Uiso   1.00
C65    C     0.81999   0.95361   0.09521   0.01267  Uiso   1.00
C66    C     0.68830   0.99430   0.39130   0.01267  Uiso   1.00
C67    C     0.68570   0.99740   0.33000   0.01267  Uiso   1.00
C68    C     0.76200   0.98560   0.27400   0.01267  Uiso   1.00
C69    C     0.84040   0.96990   0.28210   0.01267  Uiso   1.00
C70    C     0.83740   0.96900   0.34620   0.01267  Uiso   1.00
C71    C     0.36520   0.45620   0.37040   0.01267  Uiso   1.00
C72    C     0.42380   0.46040   0.30760   0.01267  Uiso   1.00
C73    C     0.45710   0.51030   0.29310   0.01267  Uiso   1.00
C74    C     0.43000   0.55270   0.34370   0.01267  Uiso   1.00
C75    C     0.36881   0.54639   0.40479   0.01267  Uiso   1.00
C76    C     0.57390   0.50570   0.10870   0.01267  Uiso   1.00
C77    C     0.51310   0.50260   0.17000   0.01267  Uiso   1.00
C78    C     0.52160   0.51440   0.22600   0.01267  Uiso   1.00
C79    C     0.59240   0.53010   0.21790   0.01267  Uiso   1.00
C80    C     0.65260   0.53100   0.15380   0.01267  Uiso   1.00
N1     N     0.75596   0.99922   0.58126   0.01267  Uiso   1.00
N2     N     0.74481   0.01786   0.89992   0.01267  Uiso   1.00
N3     N     0.83644   0.50078   0.91874   0.01267  Uiso   1.00
N4     N     0.16259   0.48214   0.60008   0.01267  Uiso   1.00
N5     N     0.66356   0.08126   0.49922   0.01267  Uiso   1.00
N6     N     0.33741   0.39992   0.51786   0.01267  Uiso   1.00
N7     N     0.74404   0.41874   0.00078   0.01267  Uiso   1.00
N8     N     0.75519   0.10008   0.98214   0.01267  Uiso   1.00
N9     N     0.16278   0.58126   0.50078   0.01267  Uiso   1.00
N10    N     0.85527   0.89992   0.48214   0.01267  Uiso   1.00
N11    N     0.74482   0.91874   0.99922   0.01267  Uiso   1.00
N12    N     0.73733   0.60008   0.01786   0.01267  Uiso   1.00
N13    N     0.75518   0.00078   0.08126   0.01267  Uiso   1.00
N14    N     0.76267   0.98214   0.39992   0.01267  Uiso   1.00
N15    N     0.33722   0.49922   0.41874   0.01267  Uiso   1.00
N16    N     0.64473   0.51786   0.10008   0.01267  Uiso   1.00
Cu5    Cu    0.75000   0.50996   0.49004   0.01267  Uiso   1.00
Cu6    Cu    0.25000   0.99004   0.00996   0.01267  Uiso   1.00
Cu7    Cu    0.24004   0.00996   0.50996   0.01267  Uiso   1.00
Cu8    Cu    0.25996   0.49004   0.99004   0.01267  Uiso   1.00
H65    H     0.84410   0.37990   0.42230   0.01267  Uiso   1.00
H66    H     0.94090   0.27510   0.43030   0.01267  Uiso   1.00
H67    H     0.95270   0.33670   0.58530   0.01267  Uiso   1.00
H68    H     0.84890   0.43780   0.57680   0.01267  Uiso   1.00
H69    H     0.06600   0.07160   0.49920   0.01267  Uiso   1.00
H70    H     0.96610   0.17420   0.49240   0.01267  Uiso   1.00
H71    H     0.09930   0.25420   0.53960   0.01267  Uiso   1.00
H72    H     0.20020   0.14810   0.54110   0.01267  Uiso   1.00
H73    H     0.14630   0.12010   0.07770   0.01267  Uiso   1.00
H74    H     0.14630   0.22490   0.06970   0.01267  Uiso   1.00
H75    H     0.37470   0.16330   0.91470   0.01267  Uiso   1.00
H76    H     0.36350   0.06220   0.92320   0.01267  Uiso   1.00
H77    H     0.13680   0.42840   0.00080   0.01267  Uiso   1.00
H78    H     0.13270   0.32580   0.00760   0.01267  Uiso   1.00
H79    H     0.39310   0.24580   0.96040   0.01267  Uiso   1.00
H80    H     0.38940   0.35190   0.95890   0.01267  Uiso   1.00
H81    H     0.35370   0.92230   0.87990   0.01267  Uiso   1.00
H82    H     0.35370   0.93030   0.77510   0.01267  Uiso   1.00
H83    H     0.12530   0.08530   0.83670   0.01267  Uiso   1.00
H84    H     0.13650   0.07680   0.93780   0.01267  Uiso   1.00
H85    H     0.36320   0.99920   0.57160   0.01267  Uiso   1.00
H86    H     0.36730   0.99240   0.67420   0.01267  Uiso   1.00
H87    H     0.10690   0.03960   0.75420   0.01267  Uiso   1.00
H88    H     0.11060   0.04110   0.64810   0.01267  Uiso   1.00
H89    H     0.65590   0.57770   0.62010   0.01267  Uiso   1.00
H90    H     0.55910   0.56970   0.72490   0.01267  Uiso   1.00
H91    H     0.54730   0.41470   0.66330   0.01267  Uiso   1.00
H92    H     0.65110   0.42320   0.56220   0.01267  Uiso   1.00
H93    H     0.43400   0.50080   0.92840   0.01267  Uiso   1.00
H94    H     0.53390   0.50760   0.82580   0.01267  Uiso   1.00
H95    H     0.40070   0.46040   0.74580   0.01267  Uiso   1.00
H96    H     0.29980   0.45890   0.85190   0.01267  Uiso   1.00
H97    H     0.27600   0.07770   0.37990   0.01267  Uiso   1.00
H98    H     0.28400   0.06970   0.27510   0.01267  Uiso   1.00
H99    H     0.21060   0.91470   0.33670   0.01267  Uiso   1.00
H100   H     0.21330   0.92320   0.43780   0.01267  Uiso   1.00
H101   H     0.36240   0.00080   0.07160   0.01267  Uiso   1.00
H102   H     0.35970   0.00760   0.17420   0.01267  Uiso   1.00
H103   H     0.14650   0.96040   0.25420   0.01267  Uiso   1.00
H104   H     0.15170   0.95890   0.14810   0.01267  Uiso   1.00
H105   H     0.23360   0.42230   0.12010   0.01267  Uiso   1.00
H106   H     0.12880   0.43030   0.22490   0.01267  Uiso   1.00
H107   H     0.96200   0.58530   0.16330   0.01267  Uiso   1.00
H108   H     0.07430   0.57680   0.06220   0.01267  Uiso   1.00
H109   H     0.93480   0.49920   0.42840   0.01267  Uiso   1.00
H110   H     0.04150   0.49240   0.32580   0.01267  Uiso   1.00
H111   H     0.86110   0.53960   0.24580   0.01267  Uiso   1.00
H112   H     0.75870   0.54110   0.35190   0.01267  Uiso   1.00
H113   H     0.26640   0.87990   0.57770   0.01267  Uiso   1.00
H114   H     0.37120   0.77510   0.56970   0.01267  Uiso   1.00
H115   H     0.53800   0.83670   0.41470   0.01267  Uiso   1.00
H116   H     0.42570   0.93780   0.42320   0.01267  Uiso   1.00
H117   H     0.56520   0.57160   0.50080   0.01267  Uiso   1.00
H118   H     0.45850   0.67420   0.50760   0.01267  Uiso   1.00
H119   H     0.63890   0.75420   0.46040   0.01267  Uiso   1.00
H120   H     0.74130   0.64810   0.45890   0.01267  Uiso   1.00
H121   H     0.22400   0.62010   0.92230   0.01267  Uiso   1.00
H122   H     0.21600   0.72490   0.93030   0.01267  Uiso   1.00
H123   H     0.28940   0.66330   0.08530   0.01267  Uiso   1.00
H124   H     0.28670   0.56220   0.07680   0.01267  Uiso   1.00
H125   H     0.13760   0.92840   0.99920   0.01267  Uiso   1.00
H126   H     0.14030   0.82580   0.99240   0.01267  Uiso   1.00
H127   H     0.35350   0.74580   0.03960   0.01267  Uiso   1.00
H128   H     0.34830   0.85190   0.04110   0.01267  Uiso   1.00
C81    C     0.86520   0.37040   0.45620   0.01267  Uiso   1.00
C82    C     0.92380   0.30760   0.46040   0.01267  Uiso   1.00
C83    C     0.95710   0.29310   0.51030   0.01267  Uiso   1.00
C84    C     0.93000   0.34370   0.55270   0.01267  Uiso   1.00
C85    C     0.86881   0.40479   0.54639   0.01267  Uiso   1.00
C86    C     0.07390   0.10870   0.50570   0.01267  Uiso   1.00
C87    C     0.01310   0.17000   0.50260   0.01267  Uiso   1.00
C88    C     0.02160   0.22600   0.51440   0.01267  Uiso   1.00
C89    C     0.09240   0.21790   0.53010   0.01267  Uiso   1.00
C90    C     0.15260   0.15380   0.53100   0.01267  Uiso   1.00
C91    C     0.19180   0.12960   0.04380   0.01267  Uiso   1.00
C92    C     0.19180   0.19240   0.03960   0.01267  Uiso   1.00
C93    C     0.26050   0.20690   0.98970   0.01267  Uiso   1.00
C94    C     0.32640   0.15630   0.94730   0.01267  Uiso   1.00
C95    C     0.31999   0.09521   0.95361   0.01267  Uiso   1.00
C96    C     0.18830   0.39130   0.99430   0.01267  Uiso   1.00
C97    C     0.18570   0.33000   0.99740   0.01267  Uiso   1.00
C98    C     0.26200   0.27400   0.98560   0.01267  Uiso   1.00
C99    C     0.34040   0.28210   0.96990   0.01267  Uiso   1.00
C100   C     0.33740   0.34620   0.96900   0.01267  Uiso   1.00
C101   C     0.30820   0.95620   0.87040   0.01267  Uiso   1.00
C102   C     0.30820   0.96040   0.80760   0.01267  Uiso   1.00
C103   C     0.23950   0.01030   0.79310   0.01267  Uiso   1.00
C104   C     0.17360   0.05270   0.84370   0.01267  Uiso   1.00
C105   C     0.18001   0.04639   0.90479   0.01267  Uiso   1.00
C106   C     0.31170   0.00570   0.60870   0.01267  Uiso   1.00
C107   C     0.31430   0.00260   0.67000   0.01267  Uiso   1.00
C108   C     0.23800   0.01440   0.72600   0.01267  Uiso   1.00
C109   C     0.15960   0.03010   0.71790   0.01267  Uiso   1.00
C110   C     0.16260   0.03100   0.65380   0.01267  Uiso   1.00
C111   C     0.63480   0.54380   0.62960   0.01267  Uiso   1.00
C112   C     0.57620   0.53960   0.69240   0.01267  Uiso   1.00
C113   C     0.54290   0.48970   0.70690   0.01267  Uiso   1.00
C114   C     0.57000   0.44730   0.65630   0.01267  Uiso   1.00
C115   C     0.63119   0.45361   0.59521   0.01267  Uiso   1.00
C116   C     0.42610   0.49430   0.89130   0.01267  Uiso   1.00
C117   C     0.48690   0.49740   0.83000   0.01267  Uiso   1.00
C118   C     0.47840   0.48560   0.77400   0.01267  Uiso   1.00
C119   C     0.40760   0.46990   0.78210   0.01267  Uiso   1.00
C120   C     0.34740   0.46900   0.84620   0.01267  Uiso   1.00
C121   C     0.26440   0.04380   0.37040   0.01267  Uiso   1.00
C122   C     0.26860   0.03960   0.30760   0.01267  Uiso   1.00
C123   C     0.24980   0.98970   0.29310   0.01267  Uiso   1.00
C124   C     0.22630   0.94730   0.34370   0.01267  Uiso   1.00
C125   C     0.22640   0.95361   0.40479   0.01267  Uiso   1.00
C126   C     0.31740   0.99430   0.10870   0.01267  Uiso   1.00
C127   C     0.31690   0.99740   0.17000   0.01267  Uiso   1.00
C128   C     0.25240   0.98560   0.22600   0.01267  Uiso   1.00
C129   C     0.18970   0.96990   0.21790   0.01267  Uiso   1.00
C130   C     0.19360   0.96900   0.15380   0.01267  Uiso   1.00
C131   C     0.17860   0.45620   0.12960   0.01267  Uiso   1.00
C132   C     0.11580   0.46040   0.19240   0.01267  Uiso   1.00
C133   C     0.03260   0.51030   0.20690   0.01267  Uiso   1.00
C134   C     0.01730   0.55270   0.15630   0.01267  Uiso   1.00
C135   C     0.08480   0.54639   0.09521   0.01267  Uiso   1.00
C136   C     0.92040   0.50570   0.39130   0.01267  Uiso   1.00
C137   C     0.98430   0.50260   0.33000   0.01267  Uiso   1.00
C138   C     0.96400   0.51440   0.27400   0.01267  Uiso   1.00
C139   C     0.87750   0.53010   0.28210   0.01267  Uiso   1.00
C140   C     0.81640   0.53100   0.34620   0.01267  Uiso   1.00
C141   C     0.32140   0.87040   0.54380   0.01267  Uiso   1.00
C142   C     0.38420   0.80760   0.53960   0.01267  Uiso   1.00
C143   C     0.46740   0.79310   0.48970   0.01267  Uiso   1.00
C144   C     0.48270   0.84370   0.44730   0.01267  Uiso   1.00
C145   C     0.41520   0.90479   0.45361   0.01267  Uiso   1.00
C146   C     0.57960   0.60870   0.49430   0.01267  Uiso   1.00
C147   C     0.51570   0.67000   0.49740   0.01267  Uiso   1.00
C148   C     0.53600   0.72600   0.48560   0.01267  Uiso   1.00
C149   C     0.62250   0.71790   0.46990   0.01267  Uiso   1.00
C150   C     0.68360   0.65380   0.46900   0.01267  Uiso   1.00
C151   C     0.23560   0.62960   0.95620   0.01267  Uiso   1.00
C152   C     0.23140   0.69240   0.96040   0.01267  Uiso   1.00
C153   C     0.25020   0.70690   0.01030   0.01267  Uiso   1.00
C154   C     0.27370   0.65630   0.05270   0.01267  Uiso   1.00
C155   C     0.27360   0.59521   0.04639   0.01267  Uiso   1.00
C156   C     0.18260   0.89130   0.00570   0.01267  Uiso   1.00
C157   C     0.18310   0.83000   0.00260   0.01267  Uiso   1.00
C158   C     0.24760   0.77400   0.01440   0.01267  Uiso   1.00
C159   C     0.31030   0.78210   0.03010   0.01267  Uiso   1.00
C160   C     0.30640   0.84620   0.03100   0.01267  Uiso   1.00
N17    N     0.83722   0.41874   0.49922   0.01267  Uiso   1.00
N18    N     0.14473   0.10008   0.51786   0.01267  Uiso   1.00
N19    N     0.25518   0.08126   0.00078   0.01267  Uiso   1.00
N20    N     0.26267   0.39992   0.98214   0.01267  Uiso   1.00
N21    N     0.24482   0.99922   0.91874   0.01267  Uiso   1.00
N22    N     0.23733   0.01786   0.60008   0.01267  Uiso   1.00
N23    N     0.66278   0.50078   0.58126   0.01267  Uiso   1.00
N24    N     0.35527   0.48214   0.89992   0.01267  Uiso   1.00
N25    N     0.24404   0.00078   0.41874   0.01267  Uiso   1.00
N26    N     0.25519   0.98214   0.10008   0.01267  Uiso   1.00
N27    N     0.16356   0.49922   0.08126   0.01267  Uiso   1.00
N28    N     0.83741   0.51786   0.39992   0.01267  Uiso   1.00
N29    N     0.33644   0.91874   0.50078   0.01267  Uiso   1.00
N30    N     0.66259   0.60008   0.48214   0.01267  Uiso   1.00
N31    N     0.25596   0.58126   0.99922   0.01267  Uiso   1.00
N32    N     0.24481   0.89992   0.01786   0.01267  Uiso   1.00
