data_UXUPEJ_clean
_audit_creation_date              2014-07-02
_audit_creation_method            'Materials Studio'
_symmetry_space_group_name_H-M    'P1'
_symmetry_Int_Tables_number       1
_symmetry_cell_setting            triclinic
loop_
_symmetry_equiv_pos_as_xyz
  x,y,z
_cell_length_a                    18.0782
_cell_length_b                    22.1485
_cell_length_c                    22.1485
_cell_angle_alpha                 80.4124
_cell_angle_beta                  65.9137
_cell_angle_gamma                 65.9137
loop_
_atom_site_label
_atom_site_type_symbol
_atom_site_fract_x
_atom_site_fract_y
_atom_site_fract_z
_atom_site_U_iso_or_equiv
_atom_site_adp_type
_atom_site_occupancy
Cu1    Cu    0.73992   0.51008   0.01008   0.01267  Uiso   1.00
Cu2    Cu    0.76008   0.98992   0.48992   0.01267  Uiso   1.00
Cu3    Cu    0.75000   0.01008   0.98992   0.01267  Uiso   1.00
Cu4    Cu    0.25000   0.48992   0.51008   0.01267  Uiso   1.00
H1     H     0.56950   0.49460   0.07200   0.01267  Uiso   1.00
H2     H     0.46910   0.48750   0.17450   0.01267  Uiso   1.00
H3     H     0.59570   0.54150   0.25410   0.01267  Uiso   1.00
H4     H     0.69720   0.54350   0.14870   0.01267  Uiso   1.00
H5     H     0.35050   0.57670   0.43690   0.01267  Uiso   1.00
H6     H     0.45020   0.58580   0.33500   0.01267  Uiso   1.00
H7     H     0.43970   0.42960   0.27620   0.01267  Uiso   1.00
H8     H     0.34280   0.42220   0.37960   0.01267  Uiso   1.00
H9     H     0.63610   0.00540   0.42800   0.01267  Uiso   1.00
H10    H     0.63110   0.01250   0.32550   0.01267  Uiso   1.00
H11    H     0.89130   0.95850   0.24590   0.01267  Uiso   1.00
H12    H     0.88940   0.95650   0.35130   0.01267  Uiso   1.00
H13    H     0.86410   0.92330   0.06310   0.01267  Uiso   1.00
H14    H     0.87100   0.91420   0.16500   0.01267  Uiso   1.00
H15    H     0.64550   0.07040   0.22380   0.01267  Uiso   1.00
H16    H     0.64460   0.07780   0.12040   0.01267  Uiso   1.00
H17    H     0.86390   0.57200   0.99460   0.01267  Uiso   1.00
H18    H     0.86890   0.67450   0.98750   0.01267  Uiso   1.00
H19    H     0.60870   0.75410   0.04150   0.01267  Uiso   1.00
H20    H     0.61060   0.64870   0.04350   0.01267  Uiso   1.00
H21    H     0.63590   0.93690   0.07670   0.01267  Uiso   1.00
H22    H     0.62900   0.83500   0.08580   0.01267  Uiso   1.00
H23    H     0.85450   0.77620   0.92960   0.01267  Uiso   1.00
H24    H     0.85540   0.87960   0.92220   0.01267  Uiso   1.00
H25    H     0.93050   0.92800   0.50540   0.01267  Uiso   1.00
H26    H     0.03090   0.82550   0.51250   0.01267  Uiso   1.00
H27    H     0.90430   0.74590   0.45850   0.01267  Uiso   1.00
H28    H     0.80280   0.85130   0.45650   0.01267  Uiso   1.00
H29    H     0.14950   0.56310   0.42330   0.01267  Uiso   1.00
H30    H     0.04980   0.66500   0.41420   0.01267  Uiso   1.00
H31    H     0.06030   0.72380   0.57040   0.01267  Uiso   1.00
H32    H     0.15720   0.62040   0.57780   0.01267  Uiso   1.00
H33    H     0.85850   0.07200   0.00540   0.01267  Uiso   1.00
H34    H     0.85640   0.17450   0.01250   0.01267  Uiso   1.00
H35    H     0.65020   0.25410   0.95850   0.01267  Uiso   1.00
H36    H     0.65410   0.14870   0.95650   0.01267  Uiso   1.00
H37    H     0.71260   0.43690   0.92330   0.01267  Uiso   1.00
H38    H     0.71480   0.33500   0.91420   0.01267  Uiso   1.00
H39    H     0.78410   0.27620   0.07040   0.01267  Uiso   1.00
H40    H     0.77760   0.37960   0.07780   0.01267  Uiso   1.00
H41    H     0.43590   0.42800   0.49460   0.01267  Uiso   1.00
H42    H     0.54340   0.32550   0.48750   0.01267  Uiso   1.00
H43    H     0.36280   0.24590   0.54150   0.01267  Uiso   1.00
H44    H     0.25930   0.35130   0.54350   0.01267  Uiso   1.00
H45    H     0.57280   0.06310   0.57670   0.01267  Uiso   1.00
H46    H     0.46400   0.16500   0.58580   0.01267  Uiso   1.00
H47    H     0.63070   0.22380   0.42960   0.01267  Uiso   1.00
H48    H     0.73500   0.12040   0.42220   0.01267  Uiso   1.00
H49    H     0.06410   0.50540   0.57200   0.01267  Uiso   1.00
H50    H     0.95660   0.51250   0.67450   0.01267  Uiso   1.00
H51    H     0.13720   0.45850   0.75410   0.01267  Uiso   1.00
H52    H     0.24070   0.45650   0.64870   0.01267  Uiso   1.00
H53    H     0.92720   0.42330   0.93690   0.01267  Uiso   1.00
H54    H     0.03600   0.41420   0.83500   0.01267  Uiso   1.00
H55    H     0.86930   0.57040   0.77620   0.01267  Uiso   1.00
H56    H     0.76500   0.57780   0.87960   0.01267  Uiso   1.00
H57    H     0.64150   0.99460   0.92800   0.01267  Uiso   1.00
H58    H     0.64360   0.98750   0.82550   0.01267  Uiso   1.00
H59    H     0.84980   0.04150   0.74590   0.01267  Uiso   1.00
H60    H     0.84590   0.04350   0.85130   0.01267  Uiso   1.00
H61    H     0.78740   0.07670   0.56310   0.01267  Uiso   1.00
H62    H     0.78520   0.08580   0.66500   0.01267  Uiso   1.00
H63    H     0.71590   0.92960   0.72380   0.01267  Uiso   1.00
H64    H     0.72240   0.92220   0.62040   0.01267  Uiso   1.00
C1     C     0.57589   0.50283   0.10899   0.01267  Uiso   1.00
C2     C     0.51467   0.49936   0.17050   0.01267  Uiso   1.00
C3     C     0.52069   0.51338   0.22584   0.01267  Uiso   1.00
C4     C     0.59010   0.53090   0.21770   0.01267  Uiso   1.00
C5     C     0.65063   0.53216   0.15418   0.01267  Uiso   1.00
C6     C     0.36881   0.54677   0.40401   0.01267  Uiso   1.00
C7     C     0.42851   0.55252   0.34286   0.01267  Uiso   1.00
C8     C     0.45651   0.50907   0.29311   0.01267  Uiso   1.00
C9     C     0.42247   0.45995   0.30831   0.01267  Uiso   1.00
C10    C     0.36381   0.45605   0.37033   0.01267  Uiso   1.00
C11    C     0.68771   0.99717   0.39101   0.01267  Uiso   1.00
C12    C     0.68453   0.00064   0.32950   0.01267  Uiso   1.00
C13    C     0.75991   0.98662   0.27416   0.01267  Uiso   1.00
C14    C     0.83870   0.96910   0.28230   0.01267  Uiso   1.00
C15    C     0.83697   0.96784   0.34582   0.01267  Uiso   1.00
C16    C     0.81959   0.95323   0.09599   0.01267  Uiso   1.00
C17    C     0.82389   0.94748   0.15714   0.01267  Uiso   1.00
C18    C     0.75869   0.99093   0.20689   0.01267  Uiso   1.00
C19    C     0.69073   0.04005   0.19169   0.01267  Uiso   1.00
C20    C     0.69019   0.04395   0.12967   0.01267  Uiso   1.00
C21    C     0.81229   0.60899   0.00283   0.01267  Uiso   1.00
C22    C     0.81547   0.67050   0.99936   0.01267  Uiso   1.00
C23    C     0.74009   0.72584   0.01338   0.01267  Uiso   1.00
C24    C     0.66130   0.71770   0.03090   0.01267  Uiso   1.00
C25    C     0.66303   0.65418   0.03216   0.01267  Uiso   1.00
C26    C     0.68041   0.90401   0.04677   0.01267  Uiso   1.00
C27    C     0.67611   0.84286   0.05252   0.01267  Uiso   1.00
C28    C     0.74131   0.79311   0.00907   0.01267  Uiso   1.00
C29    C     0.80927   0.80831   0.95995   0.01267  Uiso   1.00
C30    C     0.80981   0.87033   0.95605   0.01267  Uiso   1.00
C31    C     0.92411   0.89101   0.49717   0.01267  Uiso   1.00
C32    C     0.98533   0.82950   0.50064   0.01267  Uiso   1.00
C33    C     0.97931   0.77416   0.48662   0.01267  Uiso   1.00
C34    C     0.90990   0.78230   0.46910   0.01267  Uiso   1.00
C35    C     0.84937   0.84582   0.46784   0.01267  Uiso   1.00
C36    C     0.13119   0.59599   0.45323   0.01267  Uiso   1.00
C37    C     0.07149   0.65714   0.44748   0.01267  Uiso   1.00
C38    C     0.04349   0.70689   0.49093   0.01267  Uiso   1.00
C39    C     0.07753   0.69169   0.54005   0.01267  Uiso   1.00
C40    C     0.13619   0.62967   0.54395   0.01267  Uiso   1.00
C41    C     0.81512   0.10899   0.99717   0.01267  Uiso   1.00
C42    C     0.81483   0.17050   0.00064   0.01267  Uiso   1.00
C43    C     0.75347   0.22584   0.98662   0.01267  Uiso   1.00
C44    C     0.69220   0.21770   0.96910   0.01267  Uiso   1.00
C45    C     0.69519   0.15418   0.96784   0.01267  Uiso   1.00
C46    C     0.72718   0.40401   0.95323   0.01267  Uiso   1.00
C47    C     0.72863   0.34286   0.94748   0.01267  Uiso   1.00
C48    C     0.75038   0.29311   0.99093   0.01267  Uiso   1.00
C49    C     0.76922   0.30831   0.04005   0.01267  Uiso   1.00
C50    C     0.76586   0.37033   0.04395   0.01267  Uiso   1.00
C51    C     0.42128   0.39101   0.50283   0.01267  Uiso   1.00
C52    C     0.48597   0.32950   0.49936   0.01267  Uiso   1.00
C53    C     0.46593   0.27416   0.51338   0.01267  Uiso   1.00
C54    C     0.37900   0.28230   0.53090   0.01267  Uiso   1.00
C55    C     0.31721   0.34582   0.53216   0.01267  Uiso   1.00
C56    C     0.58442   0.09599   0.54677   0.01267  Uiso   1.00
C57    C     0.51897   0.15714   0.55252   0.01267  Uiso   1.00
C58    C     0.53442   0.20689   0.50907   0.01267  Uiso   1.00
C59    C     0.61758   0.19169   0.45995   0.01267  Uiso   1.00
C60    C     0.68014   0.12967   0.45605   0.01267  Uiso   1.00
C61    C     0.07872   0.49717   0.60899   0.01267  Uiso   1.00
C62    C     0.01403   0.50064   0.67050   0.01267  Uiso   1.00
C63    C     0.03407   0.48662   0.72584   0.01267  Uiso   1.00
C64    C     0.12100   0.46910   0.71770   0.01267  Uiso   1.00
C65    C     0.18279   0.46784   0.65418   0.01267  Uiso   1.00
C66    C     0.91558   0.45323   0.90401   0.01267  Uiso   1.00
C67    C     0.98103   0.44748   0.84286   0.01267  Uiso   1.00
C68    C     0.96558   0.49093   0.79311   0.01267  Uiso   1.00
C69    C     0.88242   0.54005   0.80831   0.01267  Uiso   1.00
C70    C     0.81986   0.54395   0.87033   0.01267  Uiso   1.00
C71    C     0.68488   0.00283   0.89101   0.01267  Uiso   1.00
C72    C     0.68517   0.99936   0.82950   0.01267  Uiso   1.00
C73    C     0.74653   0.01338   0.77416   0.01267  Uiso   1.00
C74    C     0.80780   0.03090   0.78230   0.01267  Uiso   1.00
C75    C     0.80481   0.03216   0.84582   0.01267  Uiso   1.00
C76    C     0.77282   0.04677   0.59599   0.01267  Uiso   1.00
C77    C     0.77137   0.05252   0.65714   0.01267  Uiso   1.00
C78    C     0.74962   0.00907   0.70689   0.01267  Uiso   1.00
C79    C     0.73078   0.95995   0.69169   0.01267  Uiso   1.00
C80    C     0.73414   0.95605   0.62967   0.01267  Uiso   1.00
N1     N     0.64424   0.51764   0.10048   0.01267  Uiso   1.00
N2     N     0.33540   0.49923   0.41837   0.01267  Uiso   1.00
N3     N     0.76236   0.98236   0.39952   0.01267  Uiso   1.00
N4     N     0.75300   0.00077   0.08163   0.01267  Uiso   1.00
N5     N     0.73764   0.60048   0.01764   0.01267  Uiso   1.00
N6     N     0.74700   0.91837   0.99923   0.01267  Uiso   1.00
N7     N     0.85576   0.89952   0.48236   0.01267  Uiso   1.00
N8     N     0.16460   0.58163   0.50077   0.01267  Uiso   1.00
N9     N     0.75528   0.10048   0.98236   0.01267  Uiso   1.00
N10    N     0.74623   0.41837   0.00077   0.01267  Uiso   1.00
N11    N     0.33812   0.39952   0.51764   0.01267  Uiso   1.00
N12    N     0.66537   0.08163   0.49923   0.01267  Uiso   1.00
N13    N     0.16188   0.48236   0.60048   0.01267  Uiso   1.00
N14    N     0.83463   0.50077   0.91837   0.01267  Uiso   1.00
N15    N     0.74472   0.01764   0.89952   0.01267  Uiso   1.00
N16    N     0.75377   0.99923   0.58163   0.01267  Uiso   1.00
Cu5    Cu    0.25000   0.98992   0.01008   0.01267  Uiso   1.00
Cu6    Cu    0.75000   0.51008   0.48992   0.01267  Uiso   1.00
Cu7    Cu    0.26008   0.48992   0.98992   0.01267  Uiso   1.00
Cu8    Cu    0.23992   0.01008   0.51008   0.01267  Uiso   1.00
H65    H     0.14150   0.92800   0.99460   0.01267  Uiso   1.00
H66    H     0.14360   0.82550   0.98750   0.01267  Uiso   1.00
H67    H     0.34980   0.74590   0.04150   0.01267  Uiso   1.00
H68    H     0.34590   0.85130   0.04350   0.01267  Uiso   1.00
H69    H     0.28740   0.56310   0.07670   0.01267  Uiso   1.00
H70    H     0.28520   0.66500   0.08580   0.01267  Uiso   1.00
H71    H     0.21590   0.72380   0.92960   0.01267  Uiso   1.00
H72    H     0.22240   0.62040   0.92220   0.01267  Uiso   1.00
H73    H     0.56410   0.57200   0.50540   0.01267  Uiso   1.00
H74    H     0.45660   0.67450   0.51250   0.01267  Uiso   1.00
H75    H     0.63720   0.75410   0.45850   0.01267  Uiso   1.00
H76    H     0.74070   0.64870   0.45650   0.01267  Uiso   1.00
H77    H     0.42720   0.93690   0.42330   0.01267  Uiso   1.00
H78    H     0.53600   0.83500   0.41420   0.01267  Uiso   1.00
H79    H     0.36930   0.77620   0.57040   0.01267  Uiso   1.00
H80    H     0.26500   0.87960   0.57780   0.01267  Uiso   1.00
H81    H     0.93590   0.49460   0.42800   0.01267  Uiso   1.00
H82    H     0.04340   0.48750   0.32550   0.01267  Uiso   1.00
H83    H     0.86280   0.54150   0.24590   0.01267  Uiso   1.00
H84    H     0.75930   0.54350   0.35130   0.01267  Uiso   1.00
H85    H     0.07280   0.57670   0.06310   0.01267  Uiso   1.00
H86    H     0.96400   0.58580   0.16500   0.01267  Uiso   1.00
H87    H     0.13070   0.42960   0.22380   0.01267  Uiso   1.00
H88    H     0.23500   0.42220   0.12040   0.01267  Uiso   1.00
H89    H     0.35850   0.00540   0.07200   0.01267  Uiso   1.00
H90    H     0.35640   0.01250   0.17450   0.01267  Uiso   1.00
H91    H     0.15020   0.95850   0.25410   0.01267  Uiso   1.00
H92    H     0.15410   0.95650   0.14870   0.01267  Uiso   1.00
H93    H     0.21260   0.92330   0.43690   0.01267  Uiso   1.00
H94    H     0.21480   0.91420   0.33500   0.01267  Uiso   1.00
H95    H     0.28410   0.07040   0.27620   0.01267  Uiso   1.00
H96    H     0.27760   0.07780   0.37960   0.01267  Uiso   1.00
H97    H     0.43050   0.50540   0.92800   0.01267  Uiso   1.00
H98    H     0.53090   0.51250   0.82550   0.01267  Uiso   1.00
H99    H     0.40430   0.45850   0.74590   0.01267  Uiso   1.00
H100   H     0.30280   0.45650   0.85130   0.01267  Uiso   1.00
H101   H     0.64950   0.42330   0.56310   0.01267  Uiso   1.00
H102   H     0.54980   0.41420   0.66500   0.01267  Uiso   1.00
H103   H     0.56030   0.57040   0.72380   0.01267  Uiso   1.00
H104   H     0.65720   0.57780   0.62040   0.01267  Uiso   1.00
H105   H     0.36390   0.99460   0.57200   0.01267  Uiso   1.00
H106   H     0.36890   0.98750   0.67450   0.01267  Uiso   1.00
H107   H     0.10870   0.04150   0.75410   0.01267  Uiso   1.00
H108   H     0.11060   0.04350   0.64870   0.01267  Uiso   1.00
H109   H     0.13590   0.07670   0.93690   0.01267  Uiso   1.00
H110   H     0.12900   0.08580   0.83500   0.01267  Uiso   1.00
H111   H     0.35450   0.92960   0.77620   0.01267  Uiso   1.00
H112   H     0.35540   0.92220   0.87960   0.01267  Uiso   1.00
H113   H     0.13610   0.42800   0.00540   0.01267  Uiso   1.00
H114   H     0.13110   0.32550   0.01250   0.01267  Uiso   1.00
H115   H     0.39130   0.24590   0.95850   0.01267  Uiso   1.00
H116   H     0.38940   0.35130   0.95650   0.01267  Uiso   1.00
H117   H     0.36410   0.06310   0.92330   0.01267  Uiso   1.00
H118   H     0.37100   0.16500   0.91420   0.01267  Uiso   1.00
H119   H     0.14550   0.22380   0.07040   0.01267  Uiso   1.00
H120   H     0.14460   0.12040   0.07780   0.01267  Uiso   1.00
H121   H     0.06950   0.07200   0.49460   0.01267  Uiso   1.00
H122   H     0.96910   0.17450   0.48750   0.01267  Uiso   1.00
H123   H     0.09570   0.25410   0.54150   0.01267  Uiso   1.00
H124   H     0.19720   0.14870   0.54350   0.01267  Uiso   1.00
H125   H     0.85050   0.43690   0.57670   0.01267  Uiso   1.00
H126   H     0.95020   0.33500   0.58580   0.01267  Uiso   1.00
H127   H     0.93970   0.27620   0.42960   0.01267  Uiso   1.00
H128   H     0.84280   0.37960   0.42220   0.01267  Uiso   1.00
C81    C     0.18488   0.89101   0.00283   0.01267  Uiso   1.00
C82    C     0.18517   0.82950   0.99936   0.01267  Uiso   1.00
C83    C     0.24653   0.77416   0.01338   0.01267  Uiso   1.00
C84    C     0.30780   0.78230   0.03090   0.01267  Uiso   1.00
C85    C     0.30481   0.84582   0.03216   0.01267  Uiso   1.00
C86    C     0.27282   0.59599   0.04677   0.01267  Uiso   1.00
C87    C     0.27137   0.65714   0.05252   0.01267  Uiso   1.00
C88    C     0.24962   0.70689   0.00907   0.01267  Uiso   1.00
C89    C     0.23078   0.69169   0.95995   0.01267  Uiso   1.00
C90    C     0.23414   0.62967   0.95605   0.01267  Uiso   1.00
C91    C     0.57872   0.60899   0.49717   0.01267  Uiso   1.00
C92    C     0.51403   0.67050   0.50064   0.01267  Uiso   1.00
C93    C     0.53407   0.72584   0.48662   0.01267  Uiso   1.00
C94    C     0.62100   0.71770   0.46910   0.01267  Uiso   1.00
C95    C     0.68279   0.65418   0.46784   0.01267  Uiso   1.00
C96    C     0.41558   0.90401   0.45323   0.01267  Uiso   1.00
C97    C     0.48103   0.84286   0.44748   0.01267  Uiso   1.00
C98    C     0.46558   0.79311   0.49093   0.01267  Uiso   1.00
C99    C     0.38242   0.80831   0.54005   0.01267  Uiso   1.00
C100   C     0.31986   0.87033   0.54395   0.01267  Uiso   1.00
C101   C     0.92128   0.50283   0.39101   0.01267  Uiso   1.00
C102   C     0.98597   0.49936   0.32950   0.01267  Uiso   1.00
C103   C     0.96593   0.51338   0.27416   0.01267  Uiso   1.00
C104   C     0.87900   0.53090   0.28230   0.01267  Uiso   1.00
C105   C     0.81721   0.53216   0.34582   0.01267  Uiso   1.00
C106   C     0.08442   0.54677   0.09599   0.01267  Uiso   1.00
C107   C     0.01897   0.55252   0.15714   0.01267  Uiso   1.00
C108   C     0.03442   0.50907   0.20689   0.01267  Uiso   1.00
C109   C     0.11758   0.45995   0.19169   0.01267  Uiso   1.00
C110   C     0.18014   0.45605   0.12967   0.01267  Uiso   1.00
C111   C     0.31512   0.99717   0.10899   0.01267  Uiso   1.00
C112   C     0.31483   0.00064   0.17050   0.01267  Uiso   1.00
C113   C     0.25347   0.98662   0.22584   0.01267  Uiso   1.00
C114   C     0.19220   0.96910   0.21770   0.01267  Uiso   1.00
C115   C     0.19519   0.96784   0.15418   0.01267  Uiso   1.00
C116   C     0.22718   0.95323   0.40401   0.01267  Uiso   1.00
C117   C     0.22863   0.94748   0.34286   0.01267  Uiso   1.00
C118   C     0.25038   0.99093   0.29311   0.01267  Uiso   1.00
C119   C     0.26922   0.04005   0.30831   0.01267  Uiso   1.00
C120   C     0.26586   0.04395   0.37033   0.01267  Uiso   1.00
C121   C     0.42411   0.49717   0.89101   0.01267  Uiso   1.00
C122   C     0.48533   0.50064   0.82950   0.01267  Uiso   1.00
C123   C     0.47931   0.48662   0.77416   0.01267  Uiso   1.00
C124   C     0.40990   0.46910   0.78230   0.01267  Uiso   1.00
C125   C     0.34937   0.46784   0.84582   0.01267  Uiso   1.00
C126   C     0.63119   0.45323   0.59599   0.01267  Uiso   1.00
C127   C     0.57149   0.44748   0.65714   0.01267  Uiso   1.00
C128   C     0.54349   0.49093   0.70689   0.01267  Uiso   1.00
C129   C     0.57753   0.54005   0.69169   0.01267  Uiso   1.00
C130   C     0.63619   0.54395   0.62967   0.01267  Uiso   1.00
C131   C     0.31229   0.00283   0.60899   0.01267  Uiso   1.00
C132   C     0.31547   0.99936   0.67050   0.01267  Uiso   1.00
C133   C     0.24009   0.01338   0.72584   0.01267  Uiso   1.00
C134   C     0.16130   0.03090   0.71770   0.01267  Uiso   1.00
C135   C     0.16303   0.03216   0.65418   0.01267  Uiso   1.00
C136   C     0.18041   0.04677   0.90401   0.01267  Uiso   1.00
C137   C     0.17611   0.05252   0.84286   0.01267  Uiso   1.00
C138   C     0.24131   0.00907   0.79311   0.01267  Uiso   1.00
C139   C     0.30927   0.95995   0.80831   0.01267  Uiso   1.00
C140   C     0.30981   0.95605   0.87033   0.01267  Uiso   1.00
C141   C     0.18771   0.39101   0.99717   0.01267  Uiso   1.00
C142   C     0.18453   0.32950   0.00064   0.01267  Uiso   1.00
C143   C     0.25991   0.27416   0.98662   0.01267  Uiso   1.00
C144   C     0.33870   0.28230   0.96910   0.01267  Uiso   1.00
C145   C     0.33697   0.34582   0.96784   0.01267  Uiso   1.00
C146   C     0.31959   0.09599   0.95323   0.01267  Uiso   1.00
C147   C     0.32389   0.15714   0.94748   0.01267  Uiso   1.00
C148   C     0.25869   0.20689   0.99093   0.01267  Uiso   1.00
C149   C     0.19073   0.19169   0.04005   0.01267  Uiso   1.00
C150   C     0.19019   0.12967   0.04395   0.01267  Uiso   1.00
C151   C     0.07589   0.10899   0.50283   0.01267  Uiso   1.00
C152   C     0.01467   0.17050   0.49936   0.01267  Uiso   1.00
C153   C     0.02069   0.22584   0.51338   0.01267  Uiso   1.00
C154   C     0.09010   0.21770   0.53090   0.01267  Uiso   1.00
C155   C     0.15063   0.15418   0.53216   0.01267  Uiso   1.00
C156   C     0.86881   0.40401   0.54677   0.01267  Uiso   1.00
C157   C     0.92851   0.34286   0.55252   0.01267  Uiso   1.00
C158   C     0.95651   0.29311   0.50907   0.01267  Uiso   1.00
C159   C     0.92247   0.30831   0.45995   0.01267  Uiso   1.00
C160   C     0.86381   0.37033   0.45605   0.01267  Uiso   1.00
N17    N     0.24472   0.89952   0.01764   0.01267  Uiso   1.00
N18    N     0.25377   0.58163   0.99923   0.01267  Uiso   1.00
N19    N     0.66188   0.60048   0.48236   0.01267  Uiso   1.00
N20    N     0.33463   0.91837   0.50077   0.01267  Uiso   1.00
N21    N     0.83812   0.51764   0.39952   0.01267  Uiso   1.00
N22    N     0.16537   0.49923   0.08163   0.01267  Uiso   1.00
N23    N     0.25528   0.98236   0.10048   0.01267  Uiso   1.00
N24    N     0.24623   0.00077   0.41837   0.01267  Uiso   1.00
N25    N     0.35576   0.48236   0.89952   0.01267  Uiso   1.00
N26    N     0.66460   0.50077   0.58163   0.01267  Uiso   1.00
N27    N     0.23764   0.01764   0.60048   0.01267  Uiso   1.00
N28    N     0.24700   0.99923   0.91837   0.01267  Uiso   1.00
N29    N     0.26236   0.39952   0.98236   0.01267  Uiso   1.00
N30    N     0.25300   0.08163   0.00077   0.01267  Uiso   1.00
N31    N     0.14424   0.10048   0.51764   0.01267  Uiso   1.00
N32    N     0.83540   0.41837   0.49923   0.01267  Uiso   1.00
