data_UXUYUI_clean
_audit_creation_date              2014-07-02
_audit_creation_method            'Materials Studio'
_symmetry_space_group_name_H-M    'P1'
_symmetry_Int_Tables_number       1
_symmetry_cell_setting            triclinic
loop_
_symmetry_equiv_pos_as_xyz
  x,y,z
_cell_length_a                    10.9909
_cell_length_b                    10.9909
_cell_length_c                    10.9910
_cell_angle_alpha                 90.0000
_cell_angle_beta                  90.0000
_cell_angle_gamma                 90.0000
loop_
_atom_site_label
_atom_site_type_symbol
_atom_site_fract_x
_atom_site_fract_y
_atom_site_fract_z
_atom_site_U_iso_or_equiv
_atom_site_adp_type
_atom_site_occupancy
Li1    Li    0.91840   0.58920   0.83640   0.01267  Uiso   1.00
Li2    Li    0.08160   0.41080   0.83640   0.01267  Uiso   1.00
Li3    Li    0.58920   0.08160   0.16360   0.01267  Uiso   1.00
Li4    Li    0.41080   0.91840   0.16360   0.01267  Uiso   1.00
Li5    Li    0.08160   0.58920   0.66360   0.01267  Uiso   1.00
Li6    Li    0.91840   0.41080   0.66360   0.01267  Uiso   1.00
Li7    Li    0.41080   0.08160   0.33640   0.01267  Uiso   1.00
Li8    Li    0.58920   0.91840   0.33640   0.01267  Uiso   1.00
H1     H     0.20660   0.54320   0.04030   0.01267  Uiso   1.00
H2     H     0.13230   0.81870   0.82660   0.01267  Uiso   1.00
H3     H     0.32090   0.67040   0.14970   0.01267  Uiso   1.00
H4     H     0.24950   0.93550   0.94500   0.01267  Uiso   1.00
H5     H     0.79340   0.45680   0.04030   0.01267  Uiso   1.00
H6     H     0.86770   0.18130   0.82660   0.01267  Uiso   1.00
H7     H     0.67910   0.32960   0.14970   0.01267  Uiso   1.00
H8     H     0.75050   0.06450   0.94500   0.01267  Uiso   1.00
H9     H     0.54320   0.79340   0.95970   0.01267  Uiso   1.00
H10    H     0.81870   0.86770   0.17340   0.01267  Uiso   1.00
H11    H     0.67040   0.67910   0.85030   0.01267  Uiso   1.00
H12    H     0.93550   0.75050   0.05500   0.01267  Uiso   1.00
H13    H     0.45680   0.20660   0.95970   0.01267  Uiso   1.00
H14    H     0.18130   0.13230   0.17340   0.01267  Uiso   1.00
H15    H     0.32960   0.32090   0.85030   0.01267  Uiso   1.00
H16    H     0.06450   0.24950   0.05500   0.01267  Uiso   1.00
H17    H     0.79340   0.54320   0.45970   0.01267  Uiso   1.00
H18    H     0.86770   0.81870   0.67340   0.01267  Uiso   1.00
H19    H     0.67910   0.67040   0.35030   0.01267  Uiso   1.00
H20    H     0.75050   0.93550   0.55500   0.01267  Uiso   1.00
H21    H     0.20660   0.45680   0.45970   0.01267  Uiso   1.00
H22    H     0.13230   0.18130   0.67340   0.01267  Uiso   1.00
H23    H     0.32090   0.32960   0.35030   0.01267  Uiso   1.00
H24    H     0.24950   0.06450   0.55500   0.01267  Uiso   1.00
H25    H     0.45680   0.79340   0.54030   0.01267  Uiso   1.00
H26    H     0.18130   0.86770   0.32660   0.01267  Uiso   1.00
H27    H     0.32960   0.67910   0.64970   0.01267  Uiso   1.00
H28    H     0.06450   0.75050   0.44500   0.01267  Uiso   1.00
H29    H     0.54320   0.20660   0.54030   0.01267  Uiso   1.00
H30    H     0.81870   0.13230   0.32660   0.01267  Uiso   1.00
H31    H     0.67040   0.32090   0.64970   0.01267  Uiso   1.00
H32    H     0.93550   0.24950   0.44500   0.01267  Uiso   1.00
C1     C     0.21550   0.62340   0.01500   0.01267  Uiso   1.00
C2     C     0.17290   0.78330   0.89180   0.01267  Uiso   1.00
C3     C     0.28220   0.70250   0.08170   0.01267  Uiso   1.00
C4     C     0.24230   0.85380   0.96590   0.01267  Uiso   1.00
C5     C     0.16210   0.66200   0.91160   0.01267  Uiso   1.00
C6     C     0.78450   0.37660   0.01500   0.01267  Uiso   1.00
C7     C     0.82710   0.21670   0.89180   0.01267  Uiso   1.00
C8     C     0.71780   0.29750   0.08170   0.01267  Uiso   1.00
C9     C     0.75770   0.14620   0.96590   0.01267  Uiso   1.00
C10    C     0.83790   0.33800   0.91160   0.01267  Uiso   1.00
C11    C     0.62340   0.78450   0.98500   0.01267  Uiso   1.00
C12    C     0.78330   0.82710   0.10820   0.01267  Uiso   1.00
C13    C     0.70250   0.71780   0.91830   0.01267  Uiso   1.00
C14    C     0.85380   0.75770   0.03410   0.01267  Uiso   1.00
C15    C     0.66200   0.83790   0.08840   0.01267  Uiso   1.00
C16    C     0.37660   0.21550   0.98500   0.01267  Uiso   1.00
C17    C     0.21670   0.17290   0.10820   0.01267  Uiso   1.00
C18    C     0.29750   0.28220   0.91830   0.01267  Uiso   1.00
C19    C     0.14620   0.24230   0.03410   0.01267  Uiso   1.00
C20    C     0.33800   0.16210   0.08840   0.01267  Uiso   1.00
C21    C     0.78450   0.62340   0.48500   0.01267  Uiso   1.00
C22    C     0.82710   0.78330   0.60820   0.01267  Uiso   1.00
C23    C     0.71780   0.70250   0.41830   0.01267  Uiso   1.00
C24    C     0.75770   0.85380   0.53410   0.01267  Uiso   1.00
C25    C     0.83790   0.66200   0.58840   0.01267  Uiso   1.00
C26    C     0.21550   0.37660   0.48500   0.01267  Uiso   1.00
C27    C     0.17290   0.21670   0.60820   0.01267  Uiso   1.00
C28    C     0.28220   0.29750   0.41830   0.01267  Uiso   1.00
C29    C     0.24230   0.14620   0.53410   0.01267  Uiso   1.00
C30    C     0.16210   0.33800   0.58840   0.01267  Uiso   1.00
C31    C     0.37660   0.78450   0.51500   0.01267  Uiso   1.00
C32    C     0.21670   0.82710   0.39180   0.01267  Uiso   1.00
C33    C     0.29750   0.71780   0.58170   0.01267  Uiso   1.00
C34    C     0.14620   0.75770   0.46590   0.01267  Uiso   1.00
C35    C     0.33800   0.83790   0.41160   0.01267  Uiso   1.00
C36    C     0.62340   0.21550   0.51500   0.01267  Uiso   1.00
C37    C     0.78330   0.17290   0.39180   0.01267  Uiso   1.00
C38    C     0.70250   0.28220   0.58170   0.01267  Uiso   1.00
C39    C     0.85380   0.24230   0.46590   0.01267  Uiso   1.00
C40    C     0.66200   0.16210   0.41160   0.01267  Uiso   1.00
N1     N     0.29880   0.81920   0.06160   0.01267  Uiso   1.00
N2     N     0.70120   0.18080   0.06160   0.01267  Uiso   1.00
N3     N     0.81920   0.70120   0.93840   0.01267  Uiso   1.00
N4     N     0.18080   0.29880   0.93840   0.01267  Uiso   1.00
N5     N     0.70120   0.81920   0.43840   0.01267  Uiso   1.00
N6     N     0.29880   0.18080   0.43840   0.01267  Uiso   1.00
N7     N     0.18080   0.70120   0.56160   0.01267  Uiso   1.00
N8     N     0.81920   0.29880   0.56160   0.01267  Uiso   1.00
O1     O     0.09630   0.58940   0.84140   0.01267  Uiso   1.00
O2     O     0.90370   0.41060   0.84140   0.01267  Uiso   1.00
O3     O     0.58940   0.90370   0.15860   0.01267  Uiso   1.00
O4     O     0.41060   0.09630   0.15860   0.01267  Uiso   1.00
O5     O     0.90370   0.58940   0.65860   0.01267  Uiso   1.00
O6     O     0.09630   0.41060   0.65860   0.01267  Uiso   1.00
O7     O     0.41060   0.90370   0.34140   0.01267  Uiso   1.00
O8     O     0.58940   0.09630   0.34140   0.01267  Uiso   1.00
