data_UYAQAN_clean
_audit_creation_date              2014-07-02
_audit_creation_method            'Materials Studio'
_symmetry_space_group_name_H-M    'P1'
_symmetry_Int_Tables_number       1
_symmetry_cell_setting            triclinic
loop_
_symmetry_equiv_pos_as_xyz
  x,y,z
_cell_length_a                    10.3290
_cell_length_b                    16.0121
_cell_length_c                    16.0121
_cell_angle_alpha                 64.4914
_cell_angle_beta                  77.5830
_cell_angle_gamma                 102.4170
loop_
_atom_site_label
_atom_site_type_symbol
_atom_site_fract_x
_atom_site_fract_y
_atom_site_fract_z
_atom_site_U_iso_or_equiv
_atom_site_adp_type
_atom_site_occupancy
Mg1    Mg    0.00000   0.50000  -0.00000   0.01267  Uiso   1.00
Mg2    Mg    0.00000   1.00000   0.50000   0.01267  Uiso   1.00
Mg3    Mg    0.50000   0.50000   0.50000   0.01267  Uiso   1.00
H1     H     0.11890   0.73940   0.86120   0.01267  Uiso   1.00
H2     H     0.03310   0.86550   0.81030   0.01267  Uiso   1.00
H3     H     0.79760   0.83630   0.88130   0.01267  Uiso   1.00
H4     H     0.48930   0.17810   0.22900   0.01267  Uiso   1.00
H5     H     0.28150   0.05320   0.33720   0.01267  Uiso   1.00
H6     H     0.11090   0.23780   0.36640   0.01267  Uiso   1.00
H7     H     0.30980   0.36720   0.25340   0.01267  Uiso   1.00
H8     H     0.53820   0.60090   0.05930   0.01267  Uiso   1.00
H9     H     0.54650   0.68890   0.96100   0.01267  Uiso   1.00
H10    H     0.57440   0.70730   0.04510   0.01267  Uiso   1.00
H11    H     0.98010   0.86120   0.39940   0.01267  Uiso   1.00
H12    H     0.84340   0.81030   0.32420   0.01267  Uiso   1.00
H13    H     0.67890   0.88130   0.28240   0.01267  Uiso   1.00
H14    H     0.71830   0.22900   0.59290   0.01267  Uiso   1.00
H15    H     0.61870   0.33720   0.60960   0.01267  Uiso   1.00
H16    H     0.47730   0.36640   0.39580   0.01267  Uiso   1.00
H17    H     0.56320   0.25340   0.37940   0.01267  Uiso   1.00
H18    H     0.59750   0.05930   0.33980   0.01267  Uiso   1.00
H19    H     0.50750   0.96100   0.35010   0.01267  Uiso   1.00
H20    H     0.61950   0.04510   0.24760   0.01267  Uiso   1.00
H21    H     0.37950   0.39940   0.73940   0.01267  Uiso   1.00
H22    H     0.16760   0.32420   0.86550   0.01267  Uiso   1.00
H23    H     0.96130   0.28240   0.83630   0.01267  Uiso   1.00
H24    H     0.31120   0.59290   0.17810   0.01267  Uiso   1.00
H25    H     0.22830   0.60960   0.05320   0.01267  Uiso   1.00
H26    H     0.87310   0.39580   0.23780   0.01267  Uiso   1.00
H27    H     0.94260   0.37940   0.36720   0.01267  Uiso   1.00
H28    H     0.93730   0.33980   0.60090   0.01267  Uiso   1.00
H29    H     0.85760   0.35010   0.68890   0.01267  Uiso   1.00
H30    H     0.86710   0.24760   0.70730   0.01267  Uiso   1.00
H31    H     0.88110   0.26060   0.13880   0.01267  Uiso   1.00
H32    H     0.96690   0.13450   0.18970   0.01267  Uiso   1.00
H33    H     0.20240   0.16370   0.11870   0.01267  Uiso   1.00
H34    H     0.51070   0.82190   0.77100   0.01267  Uiso   1.00
H35    H     0.71850   0.94680   0.66280   0.01267  Uiso   1.00
H36    H     0.88910   0.76220   0.63360   0.01267  Uiso   1.00
H37    H     0.69020   0.63280   0.74660   0.01267  Uiso   1.00
H38    H     0.46180   0.39910   0.94070   0.01267  Uiso   1.00
H39    H     0.45350   0.31110   0.03900   0.01267  Uiso   1.00
H40    H     0.42560   0.29270   0.95490   0.01267  Uiso   1.00
H41    H     0.01990   0.13880   0.60060   0.01267  Uiso   1.00
H42    H     0.15660   0.18970   0.67580   0.01267  Uiso   1.00
H43    H     0.32110   0.11870   0.71760   0.01267  Uiso   1.00
H44    H     0.28170   0.77100   0.40710   0.01267  Uiso   1.00
H45    H     0.38130   0.66280   0.39040   0.01267  Uiso   1.00
H46    H     0.52270   0.63360   0.60420   0.01267  Uiso   1.00
H47    H     0.43680   0.74660   0.62060   0.01267  Uiso   1.00
H48    H     0.40250   0.94070   0.66020   0.01267  Uiso   1.00
H49    H     0.49250   0.03900   0.64990   0.01267  Uiso   1.00
H50    H     0.38050   0.95490   0.75240   0.01267  Uiso   1.00
H51    H     0.62050   0.60060   0.26060   0.01267  Uiso   1.00
H52    H     0.83240   0.67580   0.13450   0.01267  Uiso   1.00
H53    H     0.03870   0.71760   0.16370   0.01267  Uiso   1.00
H54    H     0.68880   0.40710   0.82190   0.01267  Uiso   1.00
H55    H     0.77170   0.39040   0.94680   0.01267  Uiso   1.00
H56    H     0.12690   0.60420   0.76220   0.01267  Uiso   1.00
H57    H     0.05740   0.62060   0.63280   0.01267  Uiso   1.00
H58    H     0.06270   0.66020   0.39910   0.01267  Uiso   1.00
H59    H     0.14240   0.64990   0.31110   0.01267  Uiso   1.00
H60    H     0.13290   0.75240   0.29270   0.01267  Uiso   1.00
C1     C     0.02260   0.72600   0.88800   0.01267  Uiso   1.00
C2     C     0.97230   0.80200   0.85840   0.01267  Uiso   1.00
C3     C     0.83200   0.78440   0.89960   0.01267  Uiso   1.00
C4     C     0.74100   0.68920   0.96880   0.01267  Uiso   1.00
C5     C     0.79700   0.61520   0.99530   0.01267  Uiso   1.00
C6     C     0.71420   0.50770   0.06690   0.01267  Uiso   1.00
C7     C     0.56280   0.36900   0.16430   0.01267  Uiso   1.00
C8     C     0.42710   0.28810   0.23130   0.01267  Uiso   1.00
C9     C     0.41380   0.19220   0.25630   0.01267  Uiso   1.00
C10    C     0.28830   0.11730   0.32210   0.01267  Uiso   1.00
C11    C     0.18790   0.22540   0.33840   0.01267  Uiso   1.00
C12    C     0.30780   0.30320   0.27190   0.01267  Uiso   1.00
C13    C     0.58600   0.66990   0.01250   0.01267  Uiso   1.00
C14    C     0.91060   0.88800   0.38600   0.01267  Uiso   1.00
C15    C     0.83070   0.85840   0.33960   0.01267  Uiso   1.00
C16    C     0.73160   0.89960   0.31600   0.01267  Uiso   1.00
C17    C     0.70980   0.96880   0.34200   0.01267  Uiso   1.00
C18    C     0.79230   0.99530   0.38950   0.01267  Uiso   1.00
C19    C     0.78110   0.06690   0.42540   0.01267  Uiso   1.00
C20    C     0.72710   0.16430   0.46670   0.01267  Uiso   1.00
C21    C     0.65840   0.23130   0.48060   0.01267  Uiso   1.00
C22    C     0.67010   0.25630   0.55150   0.01267  Uiso   1.00
C23    C     0.61040   0.32210   0.56060   0.01267  Uiso   1.00
C24    C     0.52630   0.33840   0.43620   0.01267  Uiso   1.00
C25    C     0.57970   0.27190   0.42490   0.01267  Uiso   1.00
C26    C     0.59850   0.01250   0.31760   0.01267  Uiso   1.00
C27    C     0.29660   0.38600   0.72600   0.01267  Uiso   1.00
C28    C     0.17030   0.33960   0.80200   0.01267  Uiso   1.00
C29    C     0.04760   0.31600   0.78440   0.01267  Uiso   1.00
C30    C     0.05180   0.34200   0.68920   0.01267  Uiso   1.00
C31    C     0.18180   0.38950   0.61520   0.01267  Uiso   1.00
C32    C     0.20650   0.42540   0.50770   0.01267  Uiso   1.00
C33    C     0.19380   0.46670   0.36900   0.01267  Uiso   1.00
C34    C     0.13900   0.48060   0.28810   0.01267  Uiso   1.00
C35    C     0.22160   0.55150   0.19220   0.01267  Uiso   1.00
C36    C     0.17100   0.56060   0.11730   0.01267  Uiso   1.00
C37    C     0.96250   0.43620   0.22540   0.01267  Uiso   1.00
C38    C     0.00460   0.42490   0.30320   0.01267  Uiso   1.00
C39    C     0.91610   0.31760   0.66990   0.01267  Uiso   1.00
C40    C     0.97740   0.27400   0.11200   0.01267  Uiso   1.00
C41    C     0.02770   0.19800   0.14160   0.01267  Uiso   1.00
C42    C     0.16800   0.21560   0.10040   0.01267  Uiso   1.00
C43    C     0.25900   0.31080   0.03120   0.01267  Uiso   1.00
C44    C     0.20300   0.38480   0.00470   0.01267  Uiso   1.00
C45    C     0.28580   0.49230   0.93310   0.01267  Uiso   1.00
C46    C     0.43720   0.63100   0.83570   0.01267  Uiso   1.00
C47    C     0.57290   0.71190   0.76870   0.01267  Uiso   1.00
C48    C     0.58620   0.80780   0.74370   0.01267  Uiso   1.00
C49    C     0.71170   0.88270   0.67790   0.01267  Uiso   1.00
C50    C     0.81210   0.77460   0.66160   0.01267  Uiso   1.00
C51    C     0.69220   0.69680   0.72810   0.01267  Uiso   1.00
C52    C     0.41400   0.33010   0.98750   0.01267  Uiso   1.00
C53    C     0.08940   0.11200   0.61400   0.01267  Uiso   1.00
C54    C     0.16930   0.14160   0.66040   0.01267  Uiso   1.00
C55    C     0.26840   0.10040   0.68400   0.01267  Uiso   1.00
C56    C     0.29020   0.03120   0.65800   0.01267  Uiso   1.00
C57    C     0.20770   0.00470   0.61050   0.01267  Uiso   1.00
C58    C     0.21890   0.93310   0.57460   0.01267  Uiso   1.00
C59    C     0.27290   0.83570   0.53330   0.01267  Uiso   1.00
C60    C     0.34160   0.76870   0.51940   0.01267  Uiso   1.00
C61    C     0.32990   0.74370   0.44850   0.01267  Uiso   1.00
C62    C     0.38960   0.67790   0.43940   0.01267  Uiso   1.00
C63    C     0.47370   0.66160   0.56380   0.01267  Uiso   1.00
C64    C     0.42030   0.72810   0.57510   0.01267  Uiso   1.00
C65    C     0.40150   0.98750   0.68240   0.01267  Uiso   1.00
C66    C     0.70340   0.61400   0.27400   0.01267  Uiso   1.00
C67    C     0.82970   0.66040   0.19800   0.01267  Uiso   1.00
C68    C     0.95240   0.68400   0.21560   0.01267  Uiso   1.00
C69    C     0.94820   0.65800   0.31080   0.01267  Uiso   1.00
C70    C     0.81820   0.61050   0.38480   0.01267  Uiso   1.00
C71    C     0.79350   0.57460   0.49230   0.01267  Uiso   1.00
C72    C     0.80620   0.53330   0.63100   0.01267  Uiso   1.00
C73    C     0.86100   0.51940   0.71190   0.01267  Uiso   1.00
C74    C     0.77840   0.44850   0.80780   0.01267  Uiso   1.00
C75    C     0.82900   0.43940   0.88270   0.01267  Uiso   1.00
C76    C     0.03750   0.56380   0.77460   0.01267  Uiso   1.00
C77    C     0.99540   0.57510   0.69680   0.01267  Uiso   1.00
C78    C     0.08390   0.68240   0.33010   0.01267  Uiso   1.00
N1     N     0.93714   0.63132   0.95550   0.01267  Uiso   1.00
N2     N     0.78222   0.44132   0.08026   0.01267  Uiso   1.00
N3     N     0.68258   0.34988   0.14284   0.01267  Uiso   1.00
N4     N     0.57497   0.46529   0.11938   0.01267  Uiso   1.00
N5     N     0.17532   0.13082   0.36586   0.01267  Uiso   1.00
N6     N     0.89264   0.95550   0.41318   0.01267  Uiso   1.00
N7     N     0.86248   0.08026   0.47842   0.01267  Uiso   1.00
N8     N     0.82542   0.14284   0.50728   0.01267  Uiso   1.00
N9     N     0.69435   0.11938   0.41533   0.01267  Uiso   1.00
N10    N     0.54118   0.36586   0.50332   0.01267  Uiso   1.00
N11    N     0.30582   0.41318   0.63132   0.01267  Uiso   1.00
N12    N     0.34090   0.47842   0.44132   0.01267  Uiso   1.00
N13    N     0.33270   0.50728   0.34988   0.01267  Uiso   1.00
N14    N     0.10968   0.41533   0.46529   0.01267  Uiso   1.00
N15    N     0.04450   0.50332   0.13082   0.01267  Uiso   1.00
N16    N     0.06286   0.36868   0.04450   0.01267  Uiso   1.00
N17    N     0.21778   0.55868   0.91974   0.01267  Uiso   1.00
N18    N     0.31742   0.65012   0.85716   0.01267  Uiso   1.00
N19    N     0.42503   0.53471   0.88062   0.01267  Uiso   1.00
N20    N     0.82468   0.86918   0.63414   0.01267  Uiso   1.00
N21    N     0.10736   0.04450   0.58682   0.01267  Uiso   1.00
N22    N     0.13752   0.91974   0.52158   0.01267  Uiso   1.00
N23    N     0.17458   0.85716   0.49272   0.01267  Uiso   1.00
N24    N     0.30565   0.88062   0.58467   0.01267  Uiso   1.00
N25    N     0.45882   0.63414   0.49668   0.01267  Uiso   1.00
N26    N     0.69418   0.58682   0.36868   0.01267  Uiso   1.00
N27    N     0.65910   0.52158   0.55868   0.01267  Uiso   1.00
N28    N     0.66730   0.49272   0.65012   0.01267  Uiso   1.00
N29    N     0.89032   0.58467   0.53471   0.01267  Uiso   1.00
N30    N     0.95550   0.49668   0.86918   0.01267  Uiso   1.00
