data_UYOFIY_clean
_audit_creation_date              2014-07-02
_audit_creation_method            'Materials Studio'
_symmetry_space_group_name_H-M    'P1'
_symmetry_Int_Tables_number       1
_symmetry_cell_setting            triclinic
loop_
_symmetry_equiv_pos_as_xyz
  x,y,z
_cell_length_a                    13.1410
_cell_length_b                    13.2790
_cell_length_c                    32.1810
_cell_angle_alpha                 90.0000
_cell_angle_beta                  90.0000
_cell_angle_gamma                 90.0000
loop_
_atom_site_label
_atom_site_type_symbol
_atom_site_fract_x
_atom_site_fract_y
_atom_site_fract_z
_atom_site_U_iso_or_equiv
_atom_site_adp_type
_atom_site_occupancy
Tb1    Tb    0.96667   0.19267   0.46612   0.01267  Uiso   1.00
Tb2    Tb    0.04849   0.96189   0.73455   0.01267  Uiso   1.00
Tb3    Tb    0.03333   0.30733   0.96612   0.01267  Uiso   1.00
Tb4    Tb    0.95151   0.53811   0.23455   0.01267  Uiso   1.00
Tb5    Tb    0.46667   0.80733   0.03388   0.01267  Uiso   1.00
Tb6    Tb    0.54849   0.03811   0.76545   0.01267  Uiso   1.00
Tb7    Tb    0.53333   0.69267   0.53388   0.01267  Uiso   1.00
Tb8    Tb    0.45151   0.46189   0.26545   0.01267  Uiso   1.00
Tb9    Tb    0.03333   0.80733   0.53388   0.01267  Uiso   1.00
Tb10   Tb    0.95151   0.03811   0.26545   0.01267  Uiso   1.00
Tb11   Tb    0.96667   0.69267   0.03388   0.01267  Uiso   1.00
Tb12   Tb    0.04849   0.46189   0.76545   0.01267  Uiso   1.00
Tb13   Tb    0.53333   0.19267   0.96612   0.01267  Uiso   1.00
Tb14   Tb    0.45151   0.96189   0.23455   0.01267  Uiso   1.00
Tb15   Tb    0.46667   0.30733   0.46612   0.01267  Uiso   1.00
Tb16   Tb    0.54849   0.53811   0.73455   0.01267  Uiso   1.00
H1     H     0.26790   0.33360   0.78370   0.01267  Uiso   1.00
H2     H     0.17270   0.56520   0.51440   0.01267  Uiso   1.00
H3     H     0.92410   0.20490   0.60910   0.01267  Uiso   1.00
H4     H     0.33770   0.55640   0.48600   0.01267  Uiso   1.00
H5     H     0.43430   0.28340   0.79920   0.01267  Uiso   1.00
H6     H     0.94270   0.18810   0.68240   0.01267  Uiso   1.00
H7     H     0.73210   0.16640   0.28370   0.01267  Uiso   1.00
H8     H     0.82730   0.93480   0.01440   0.01267  Uiso   1.00
H9     H     0.07590   0.29510   0.10910   0.01267  Uiso   1.00
H10    H     0.66230   0.94360   0.98600   0.01267  Uiso   1.00
H11    H     0.56570   0.21660   0.29920   0.01267  Uiso   1.00
H12    H     0.05730   0.31190   0.18240   0.01267  Uiso   1.00
H13    H     0.76790   0.66640   0.71630   0.01267  Uiso   1.00
H14    H     0.67270   0.43480   0.98560   0.01267  Uiso   1.00
H15    H     0.42410   0.79510   0.89090   0.01267  Uiso   1.00
H16    H     0.83770   0.44360   0.01400   0.01267  Uiso   1.00
H17    H     0.93430   0.71660   0.70080   0.01267  Uiso   1.00
H18    H     0.44270   0.81190   0.81760   0.01267  Uiso   1.00
H19    H     0.23210   0.83360   0.21630   0.01267  Uiso   1.00
H20    H     0.32730   0.06520   0.48560   0.01267  Uiso   1.00
H21    H     0.57590   0.70490   0.39090   0.01267  Uiso   1.00
H22    H     0.16230   0.05640   0.51400   0.01267  Uiso   1.00
H23    H     0.06570   0.78340   0.20080   0.01267  Uiso   1.00
H24    H     0.55730   0.68810   0.31760   0.01267  Uiso   1.00
H25    H     0.73210   0.66640   0.21630   0.01267  Uiso   1.00
H26    H     0.82730   0.43480   0.48560   0.01267  Uiso   1.00
H27    H     0.07590   0.79510   0.39090   0.01267  Uiso   1.00
H28    H     0.66230   0.44360   0.51400   0.01267  Uiso   1.00
H29    H     0.56570   0.71660   0.20080   0.01267  Uiso   1.00
H30    H     0.05730   0.81190   0.31760   0.01267  Uiso   1.00
H31    H     0.26790   0.83360   0.71630   0.01267  Uiso   1.00
H32    H     0.17270   0.06520   0.98560   0.01267  Uiso   1.00
H33    H     0.92410   0.70490   0.89090   0.01267  Uiso   1.00
H34    H     0.33770   0.05640   0.01400   0.01267  Uiso   1.00
H35    H     0.43430   0.78340   0.70080   0.01267  Uiso   1.00
H36    H     0.94270   0.68810   0.81760   0.01267  Uiso   1.00
H37    H     0.23210   0.33360   0.28370   0.01267  Uiso   1.00
H38    H     0.32730   0.56520   0.01440   0.01267  Uiso   1.00
H39    H     0.57590   0.20490   0.10910   0.01267  Uiso   1.00
H40    H     0.16230   0.55640   0.98600   0.01267  Uiso   1.00
H41    H     0.06570   0.28340   0.29920   0.01267  Uiso   1.00
H42    H     0.55730   0.18810   0.18240   0.01267  Uiso   1.00
H43    H     0.76790   0.16640   0.78370   0.01267  Uiso   1.00
H44    H     0.67270   0.93480   0.51440   0.01267  Uiso   1.00
H45    H     0.42410   0.29510   0.60910   0.01267  Uiso   1.00
H46    H     0.83770   0.94360   0.48600   0.01267  Uiso   1.00
H47    H     0.93430   0.21660   0.79920   0.01267  Uiso   1.00
H48    H     0.44270   0.31190   0.68240   0.01267  Uiso   1.00
C1     C     0.22410   0.25160   0.47200   0.01267  Uiso   1.00
C2     C     0.30490   0.01770   0.74020   0.01267  Uiso   1.00
C3     C     0.23780   0.19720   0.76120   0.01267  Uiso   1.00
C4     C     0.30670   0.11970   0.75890   0.01267  Uiso   1.00
C5     C     0.05250   0.90000   0.63500   0.01267  Uiso   1.00
C6     C     0.13140   0.21150   0.74800   0.01267  Uiso   1.00
C7     C     0.04940   0.40490   0.52110   0.01267  Uiso   1.00
C8     C     0.97760   0.06580   0.60240   0.01267  Uiso   1.00
C9     C     0.15310   0.41950   0.50160   0.01267  Uiso   1.00
C10    C     0.97520   0.05760   0.55620   0.01267  Uiso   1.00
C11    C     0.22020   0.35870   0.48300   0.01267  Uiso   1.00
C12    C     0.29130   0.50360   0.48780   0.01267  Uiso   1.00
C13    C     0.38460   0.24340   0.78700   0.01267  Uiso   1.00
C14    C     0.00590   0.00260   0.63360   0.01267  Uiso   1.00
C15    C     0.95780   0.13940   0.66260   0.01267  Uiso   1.00
C16    C     0.77590   0.24840   0.97200   0.01267  Uiso   1.00
C17    C     0.69510   0.48230   0.24020   0.01267  Uiso   1.00
C18    C     0.76220   0.30280   0.26120   0.01267  Uiso   1.00
C19    C     0.69330   0.38030   0.25890   0.01267  Uiso   1.00
C20    C     0.94750   0.60000   0.13500   0.01267  Uiso   1.00
C21    C     0.86860   0.28850   0.24800   0.01267  Uiso   1.00
C22    C     0.95060   0.09510   0.02110   0.01267  Uiso   1.00
C23    C     0.02240   0.43420   0.10240   0.01267  Uiso   1.00
C24    C     0.84690   0.08050   0.00160   0.01267  Uiso   1.00
C25    C     0.02480   0.44240   0.05620   0.01267  Uiso   1.00
C26    C     0.77980   0.14130   0.98300   0.01267  Uiso   1.00
C27    C     0.70870   0.99640   0.98780   0.01267  Uiso   1.00
C28    C     0.61540   0.25660   0.28700   0.01267  Uiso   1.00
C29    C     0.99410   0.49740   0.13360   0.01267  Uiso   1.00
C30    C     0.04220   0.36060   0.16260   0.01267  Uiso   1.00
C31    C     0.72410   0.74840   0.02800   0.01267  Uiso   1.00
C32    C     0.80490   0.98230   0.75980   0.01267  Uiso   1.00
C33    C     0.73780   0.80280   0.73880   0.01267  Uiso   1.00
C34    C     0.80670   0.88030   0.74110   0.01267  Uiso   1.00
C35    C     0.55250   0.10000   0.86500   0.01267  Uiso   1.00
C36    C     0.63140   0.78850   0.75200   0.01267  Uiso   1.00
C37    C     0.54940   0.59510   0.97890   0.01267  Uiso   1.00
C38    C     0.47760   0.93420   0.89760   0.01267  Uiso   1.00
C39    C     0.65310   0.58050   0.99840   0.01267  Uiso   1.00
C40    C     0.47520   0.94240   0.94380   0.01267  Uiso   1.00
C41    C     0.72020   0.64130   0.01700   0.01267  Uiso   1.00
C42    C     0.79130   0.49640   0.01220   0.01267  Uiso   1.00
C43    C     0.88460   0.75660   0.71300   0.01267  Uiso   1.00
C44    C     0.50590   0.99740   0.86640   0.01267  Uiso   1.00
C45    C     0.45780   0.86060   0.83740   0.01267  Uiso   1.00
C46    C     0.27590   0.75160   0.52800   0.01267  Uiso   1.00
C47    C     0.19510   0.51770   0.25980   0.01267  Uiso   1.00
C48    C     0.26220   0.69720   0.23880   0.01267  Uiso   1.00
C49    C     0.19330   0.61970   0.24110   0.01267  Uiso   1.00
C50    C     0.44750   0.40000   0.36500   0.01267  Uiso   1.00
C51    C     0.36860   0.71150   0.25200   0.01267  Uiso   1.00
C52    C     0.45060   0.90490   0.47890   0.01267  Uiso   1.00
C53    C     0.52240   0.56580   0.39760   0.01267  Uiso   1.00
C54    C     0.34690   0.91950   0.49840   0.01267  Uiso   1.00
C55    C     0.52480   0.55760   0.44380   0.01267  Uiso   1.00
C56    C     0.27980   0.85870   0.51700   0.01267  Uiso   1.00
C57    C     0.20870   0.00360   0.51220   0.01267  Uiso   1.00
C58    C     0.11540   0.74340   0.21300   0.01267  Uiso   1.00
C59    C     0.49410   0.50260   0.36640   0.01267  Uiso   1.00
C60    C     0.54220   0.63940   0.33740   0.01267  Uiso   1.00
C61    C     0.77590   0.74840   0.52800   0.01267  Uiso   1.00
C62    C     0.69510   0.98230   0.25980   0.01267  Uiso   1.00
C63    C     0.76220   0.80280   0.23880   0.01267  Uiso   1.00
C64    C     0.69330   0.88030   0.24110   0.01267  Uiso   1.00
C65    C     0.94750   0.10000   0.36500   0.01267  Uiso   1.00
C66    C     0.86860   0.78850   0.25200   0.01267  Uiso   1.00
C67    C     0.95060   0.59510   0.47890   0.01267  Uiso   1.00
C68    C     0.02240   0.93420   0.39760   0.01267  Uiso   1.00
C69    C     0.84690   0.58050   0.49840   0.01267  Uiso   1.00
C70    C     0.02480   0.94240   0.44380   0.01267  Uiso   1.00
C71    C     0.77980   0.64130   0.51700   0.01267  Uiso   1.00
C72    C     0.70870   0.49640   0.51220   0.01267  Uiso   1.00
C73    C     0.61540   0.75660   0.21300   0.01267  Uiso   1.00
C74    C     0.99410   0.99740   0.36640   0.01267  Uiso   1.00
C75    C     0.04220   0.86060   0.33740   0.01267  Uiso   1.00
C76    C     0.22410   0.75160   0.02800   0.01267  Uiso   1.00
C77    C     0.30490   0.51770   0.75980   0.01267  Uiso   1.00
C78    C     0.23780   0.69720   0.73880   0.01267  Uiso   1.00
C79    C     0.30670   0.61970   0.74110   0.01267  Uiso   1.00
C80    C     0.05250   0.40000   0.86500   0.01267  Uiso   1.00
C81    C     0.13140   0.71150   0.75200   0.01267  Uiso   1.00
C82    C     0.04940   0.90490   0.97890   0.01267  Uiso   1.00
C83    C     0.97760   0.56580   0.89760   0.01267  Uiso   1.00
C84    C     0.15310   0.91950   0.99840   0.01267  Uiso   1.00
C85    C     0.97520   0.55760   0.94380   0.01267  Uiso   1.00
C86    C     0.22020   0.85870   0.01700   0.01267  Uiso   1.00
C87    C     0.29130   0.00360   0.01220   0.01267  Uiso   1.00
C88    C     0.38460   0.74340   0.71300   0.01267  Uiso   1.00
C89    C     0.00590   0.50260   0.86640   0.01267  Uiso   1.00
C90    C     0.95780   0.63940   0.83740   0.01267  Uiso   1.00
C91    C     0.27590   0.25160   0.97200   0.01267  Uiso   1.00
C92    C     0.19510   0.01770   0.24020   0.01267  Uiso   1.00
C93    C     0.26220   0.19720   0.26120   0.01267  Uiso   1.00
C94    C     0.19330   0.11970   0.25890   0.01267  Uiso   1.00
C95    C     0.44750   0.90000   0.13500   0.01267  Uiso   1.00
C96    C     0.36860   0.21150   0.24800   0.01267  Uiso   1.00
C97    C     0.45060   0.40490   0.02110   0.01267  Uiso   1.00
C98    C     0.52240   0.06580   0.10240   0.01267  Uiso   1.00
C99    C     0.34690   0.41950   0.00160   0.01267  Uiso   1.00
C100   C     0.52480   0.05760   0.05620   0.01267  Uiso   1.00
C101   C     0.27980   0.35870   0.98300   0.01267  Uiso   1.00
C102   C     0.20870   0.50360   0.98780   0.01267  Uiso   1.00
C103   C     0.11540   0.24340   0.28700   0.01267  Uiso   1.00
C104   C     0.49410   0.00260   0.13360   0.01267  Uiso   1.00
C105   C     0.54220   0.13940   0.16260   0.01267  Uiso   1.00
C106   C     0.72410   0.24840   0.47200   0.01267  Uiso   1.00
C107   C     0.80490   0.48230   0.74020   0.01267  Uiso   1.00
C108   C     0.73780   0.30280   0.76120   0.01267  Uiso   1.00
C109   C     0.80670   0.38030   0.75890   0.01267  Uiso   1.00
C110   C     0.55250   0.60000   0.63500   0.01267  Uiso   1.00
C111   C     0.63140   0.28850   0.74800   0.01267  Uiso   1.00
C112   C     0.54940   0.09510   0.52110   0.01267  Uiso   1.00
C113   C     0.47760   0.43420   0.60240   0.01267  Uiso   1.00
C114   C     0.65310   0.08050   0.50160   0.01267  Uiso   1.00
C115   C     0.47520   0.44240   0.55620   0.01267  Uiso   1.00
C116   C     0.72020   0.14130   0.48300   0.01267  Uiso   1.00
C117   C     0.79130   0.99640   0.48780   0.01267  Uiso   1.00
C118   C     0.88460   0.25660   0.78700   0.01267  Uiso   1.00
C119   C     0.50590   0.49740   0.63360   0.01267  Uiso   1.00
C120   C     0.45780   0.36060   0.66260   0.01267  Uiso   1.00
N1     N     0.99280   0.04940   0.67110   0.01267  Uiso   1.00
N2     N     0.29130   0.27430   0.77870   0.01267  Uiso   1.00
N3     N     0.30900   0.41120   0.47440   0.01267  Uiso   1.00
N4     N     0.39870   0.14860   0.77570   0.01267  Uiso   1.00
N5     N     0.19900   0.51140   0.50410   0.01267  Uiso   1.00
N6     N     0.94670   0.15180   0.62130   0.01267  Uiso   1.00
N7     N     0.00720   0.45060   0.17110   0.01267  Uiso   1.00
N8     N     0.70870   0.22570   0.27870   0.01267  Uiso   1.00
N9     N     0.69100   0.08880   0.97440   0.01267  Uiso   1.00
N10    N     0.60130   0.35140   0.27570   0.01267  Uiso   1.00
N11    N     0.80100   0.98860   0.00410   0.01267  Uiso   1.00
N12    N     0.05330   0.34820   0.12130   0.01267  Uiso   1.00
N13    N     0.49280   0.95060   0.82890   0.01267  Uiso   1.00
N14    N     0.79130   0.72570   0.72130   0.01267  Uiso   1.00
N15    N     0.80900   0.58880   0.02560   0.01267  Uiso   1.00
N16    N     0.89870   0.85140   0.72430   0.01267  Uiso   1.00
N17    N     0.69900   0.48860   0.99590   0.01267  Uiso   1.00
N18    N     0.44670   0.84820   0.87870   0.01267  Uiso   1.00
N19    N     0.50720   0.54940   0.32890   0.01267  Uiso   1.00
N20    N     0.20870   0.77430   0.22130   0.01267  Uiso   1.00
N21    N     0.19100   0.91120   0.52560   0.01267  Uiso   1.00
N22    N     0.10130   0.64860   0.22430   0.01267  Uiso   1.00
N23    N     0.30100   0.01140   0.49590   0.01267  Uiso   1.00
N24    N     0.55330   0.65180   0.37870   0.01267  Uiso   1.00
N25    N     0.00720   0.95060   0.32890   0.01267  Uiso   1.00
N26    N     0.70870   0.72570   0.22130   0.01267  Uiso   1.00
N27    N     0.69100   0.58880   0.52560   0.01267  Uiso   1.00
N28    N     0.60130   0.85140   0.22430   0.01267  Uiso   1.00
N29    N     0.80100   0.48860   0.49590   0.01267  Uiso   1.00
N30    N     0.05330   0.84820   0.37870   0.01267  Uiso   1.00
N31    N     0.99280   0.54940   0.82890   0.01267  Uiso   1.00
N32    N     0.29130   0.77430   0.72130   0.01267  Uiso   1.00
N33    N     0.30900   0.91120   0.02560   0.01267  Uiso   1.00
N34    N     0.39870   0.64860   0.72430   0.01267  Uiso   1.00
N35    N     0.19900   0.01140   0.99590   0.01267  Uiso   1.00
N36    N     0.94670   0.65180   0.87870   0.01267  Uiso   1.00
N37    N     0.50720   0.04940   0.17110   0.01267  Uiso   1.00
N38    N     0.20870   0.27430   0.27870   0.01267  Uiso   1.00
N39    N     0.19100   0.41120   0.97440   0.01267  Uiso   1.00
N40    N     0.10130   0.14860   0.27570   0.01267  Uiso   1.00
N41    N     0.30100   0.51140   0.00410   0.01267  Uiso   1.00
N42    N     0.55330   0.15180   0.12130   0.01267  Uiso   1.00
N43    N     0.49280   0.45060   0.67110   0.01267  Uiso   1.00
N44    N     0.79130   0.22570   0.77870   0.01267  Uiso   1.00
N45    N     0.80900   0.08880   0.47440   0.01267  Uiso   1.00
N46    N     0.89870   0.35140   0.77570   0.01267  Uiso   1.00
N47    N     0.69900   0.98860   0.50410   0.01267  Uiso   1.00
N48    N     0.44670   0.34820   0.62130   0.01267  Uiso   1.00
O1     O     0.97610   0.97060   0.54140   0.01267  Uiso   1.00
O2     O     0.99710   0.33180   0.51020   0.01267  Uiso   1.00
O3     O     0.97420   0.13820   0.53640   0.01267  Uiso   1.00
O4     O     0.10130   0.30150   0.74440   0.01267  Uiso   1.00
O5     O     0.22410   0.97770   0.72580   0.01267  Uiso   1.00
O6     O     0.06400   0.84950   0.60300   0.01267  Uiso   1.00
O7     O     0.08170   0.87190   0.67020   0.01267  Uiso   1.00
O8     O     0.14550   0.19910   0.46920   0.01267  Uiso   1.00
O9     O     0.31220   0.21490   0.46530   0.01267  Uiso   1.00
O10    O     0.39040   0.97430   0.73870   0.01267  Uiso   1.00
O11    O     0.07440   0.13670   0.74230   0.01267  Uiso   1.00
O12    O     0.02570   0.46640   0.54810   0.01267  Uiso   1.00
O13    O     0.02390   0.52940   0.04140   0.01267  Uiso   1.00
O14    O     0.00290   0.16820   0.01020   0.01267  Uiso   1.00
O15    O     0.02580   0.36180   0.03640   0.01267  Uiso   1.00
O16    O     0.89870   0.19850   0.24440   0.01267  Uiso   1.00
O17    O     0.77590   0.52230   0.22580   0.01267  Uiso   1.00
O18    O     0.93600   0.65050   0.10300   0.01267  Uiso   1.00
O19    O     0.91830   0.62810   0.17020   0.01267  Uiso   1.00
O20    O     0.85450   0.30090   0.96920   0.01267  Uiso   1.00
O21    O     0.68780   0.28510   0.96530   0.01267  Uiso   1.00
O22    O     0.60960   0.52570   0.23870   0.01267  Uiso   1.00
O23    O     0.92560   0.36330   0.24230   0.01267  Uiso   1.00
O24    O     0.97430   0.03360   0.04810   0.01267  Uiso   1.00
O25    O     0.47610   0.02940   0.95860   0.01267  Uiso   1.00
O26    O     0.49710   0.66820   0.98980   0.01267  Uiso   1.00
O27    O     0.47420   0.86180   0.96360   0.01267  Uiso   1.00
O28    O     0.60130   0.69850   0.75560   0.01267  Uiso   1.00
O29    O     0.72410   0.02230   0.77420   0.01267  Uiso   1.00
O30    O     0.56400   0.15050   0.89700   0.01267  Uiso   1.00
O31    O     0.58170   0.12810   0.82980   0.01267  Uiso   1.00
O32    O     0.64550   0.80090   0.03080   0.01267  Uiso   1.00
O33    O     0.81220   0.78510   0.03470   0.01267  Uiso   1.00
O34    O     0.89040   0.02570   0.76130   0.01267  Uiso   1.00
O35    O     0.57440   0.86330   0.75770   0.01267  Uiso   1.00
O36    O     0.52570   0.53360   0.95190   0.01267  Uiso   1.00
O37    O     0.52390   0.47060   0.45860   0.01267  Uiso   1.00
O38    O     0.50290   0.83180   0.48980   0.01267  Uiso   1.00
O39    O     0.52580   0.63820   0.46360   0.01267  Uiso   1.00
O40    O     0.39870   0.80150   0.25560   0.01267  Uiso   1.00
O41    O     0.27590   0.47770   0.27420   0.01267  Uiso   1.00
O42    O     0.43600   0.34950   0.39700   0.01267  Uiso   1.00
O43    O     0.41830   0.37190   0.32980   0.01267  Uiso   1.00
O44    O     0.35450   0.69910   0.53080   0.01267  Uiso   1.00
O45    O     0.18780   0.71490   0.53470   0.01267  Uiso   1.00
O46    O     0.10960   0.47430   0.26130   0.01267  Uiso   1.00
O47    O     0.42560   0.63670   0.25770   0.01267  Uiso   1.00
O48    O     0.47430   0.96640   0.45190   0.01267  Uiso   1.00
O49    O     0.02390   0.02940   0.45860   0.01267  Uiso   1.00
O50    O     0.00290   0.66820   0.48980   0.01267  Uiso   1.00
O51    O     0.02580   0.86180   0.46360   0.01267  Uiso   1.00
O52    O     0.89870   0.69850   0.25560   0.01267  Uiso   1.00
O53    O     0.77590   0.02230   0.27420   0.01267  Uiso   1.00
O54    O     0.93600   0.15050   0.39700   0.01267  Uiso   1.00
O55    O     0.91830   0.12810   0.32980   0.01267  Uiso   1.00
O56    O     0.85450   0.80090   0.53080   0.01267  Uiso   1.00
O57    O     0.68780   0.78510   0.53470   0.01267  Uiso   1.00
O58    O     0.60960   0.02570   0.26130   0.01267  Uiso   1.00
O59    O     0.92560   0.86330   0.25770   0.01267  Uiso   1.00
O60    O     0.97430   0.53360   0.45190   0.01267  Uiso   1.00
O61    O     0.97610   0.47060   0.95860   0.01267  Uiso   1.00
O62    O     0.99710   0.83180   0.98980   0.01267  Uiso   1.00
O63    O     0.97420   0.63820   0.96360   0.01267  Uiso   1.00
O64    O     0.10130   0.80150   0.75560   0.01267  Uiso   1.00
O65    O     0.22410   0.47770   0.77420   0.01267  Uiso   1.00
O66    O     0.06400   0.34950   0.89700   0.01267  Uiso   1.00
O67    O     0.08170   0.37190   0.82980   0.01267  Uiso   1.00
O68    O     0.14550   0.69910   0.03080   0.01267  Uiso   1.00
O69    O     0.31220   0.71490   0.03470   0.01267  Uiso   1.00
O70    O     0.39040   0.47430   0.76130   0.01267  Uiso   1.00
O71    O     0.07440   0.63670   0.75770   0.01267  Uiso   1.00
O72    O     0.02570   0.96640   0.95190   0.01267  Uiso   1.00
O73    O     0.52390   0.97060   0.04140   0.01267  Uiso   1.00
O74    O     0.50290   0.33180   0.01020   0.01267  Uiso   1.00
O75    O     0.52580   0.13820   0.03640   0.01267  Uiso   1.00
O76    O     0.39870   0.30150   0.24440   0.01267  Uiso   1.00
O77    O     0.27590   0.97770   0.22580   0.01267  Uiso   1.00
O78    O     0.43600   0.84950   0.10300   0.01267  Uiso   1.00
O79    O     0.41830   0.87190   0.17020   0.01267  Uiso   1.00
O80    O     0.35450   0.19910   0.96920   0.01267  Uiso   1.00
O81    O     0.18780   0.21490   0.96530   0.01267  Uiso   1.00
O82    O     0.10960   0.97430   0.23870   0.01267  Uiso   1.00
O83    O     0.42560   0.13670   0.24230   0.01267  Uiso   1.00
O84    O     0.47430   0.46640   0.04810   0.01267  Uiso   1.00
O85    O     0.47610   0.52940   0.54140   0.01267  Uiso   1.00
O86    O     0.49710   0.16820   0.51020   0.01267  Uiso   1.00
O87    O     0.47420   0.36180   0.53640   0.01267  Uiso   1.00
O88    O     0.60130   0.19850   0.74440   0.01267  Uiso   1.00
O89    O     0.72410   0.52230   0.72580   0.01267  Uiso   1.00
O90    O     0.56400   0.65050   0.60300   0.01267  Uiso   1.00
O91    O     0.58170   0.62810   0.67020   0.01267  Uiso   1.00
O92    O     0.64550   0.30090   0.46920   0.01267  Uiso   1.00
O93    O     0.81220   0.28510   0.46530   0.01267  Uiso   1.00
O94    O     0.89040   0.52570   0.73870   0.01267  Uiso   1.00
O95    O     0.57440   0.36330   0.74230   0.01267  Uiso   1.00
O96    O     0.52570   0.03360   0.54810   0.01267  Uiso   1.00
