data_image0
_cell_length_a       10.8137
_cell_length_b       19.04
_cell_length_c       19.246
_cell_angle_alpha    90
_cell_angle_beta     98.338
_cell_angle_gamma    90

_symmetry_space_group_name_H-M    "P 1"
_symmetry_int_tables_number       1

loop_
  _symmetry_equiv_pos_as_xyz
  'x, y, z'

loop_
  _atom_site_label
  _atom_site_occupancy
  _atom_site_fract_x
  _atom_site_fract_y
  _atom_site_fract_z
  _atom_site_thermal_displace_type
  _atom_site_B_iso_or_equiv
  _atom_site_type_symbol
  Eu1      1.0000 0.58507  0.37469  0.85702  Biso   1.000  Eu
  N1       1.0000 0.75510  0.46230  0.91730  Biso   1.000  N
  C1       1.0000 0.74220  0.50750  0.96840  Biso   1.000  C
  H1       1.0000 0.67260  0.50310  0.99220  Biso   1.000  H
  C2       1.0000 0.82730  0.56070  0.98790  Biso   1.000  C
  N2       1.0000 0.92820  0.56760  0.95630  Biso   1.000  N
  C3       1.0000 0.94350  0.52180  0.90630  Biso   1.000  C
  H2       1.0000 0.01500  0.52510  0.88390  Biso   1.000  H
  C4       1.0000 0.85780  0.46960  0.88620  Biso   1.000  C
  C5       1.0000 0.80630  0.61260  0.04320  Biso   1.000  C
  H3       1.0000 0.88200  0.61730  0.07660  Biso   1.000  H
  H4       1.0000 0.73880  0.59640  0.06730  Biso   1.000  H
  H5       1.0000 0.78440  0.65780  0.02150  Biso   1.000  H
  C6       1.0000 0.87110  0.41950  0.82790  Biso   1.000  C
  O1       1.0000 0.97230  0.41730  0.80430  Biso   1.000  O
  O2       1.0000 0.77750  0.38290  0.80670  Biso   1.000  O
  N3       1.0000 0.46880  0.26010  0.88780  Biso   1.000  N
  C7       1.0000 0.51570  0.20770  0.92840  Biso   1.000  C
  H6       1.0000 0.59870  0.21090  0.95080  Biso   1.000  H
  C8       1.0000 0.44710  0.14840  0.93900  Biso   1.000  C
  N4       1.0000 0.33140  0.14040  0.90610  Biso   1.000  N
  C9       1.0000 0.28340  0.19280  0.86490  Biso   1.000  C
  H7       1.0000 0.20150  0.18870  0.84100  Biso   1.000  H
  C10      1.0000 0.35080  0.25300  0.85640  Biso   1.000  C
  C11      1.0000 0.50100  0.09210  0.98760  Biso   1.000  C
  H8       1.0000 0.44000  0.07780  0.01720  Biso   1.000  H
  H9       1.0000 0.57540  0.10950  0.01670  Biso   1.000  H
  H10      1.0000 0.52280  0.05210  0.96060  Biso   1.000  H
  C12      1.0000 0.29790  0.31360  0.81350  Biso   1.000  C
  O3       1.0000 0.18820  0.30880  0.78250  Biso   1.000  O
  O4       1.0000 0.36580  0.36670  0.81310  Biso   1.000  O
  N5       1.0000 0.49040  0.49140  0.87340  Biso   1.000  N
  N6       1.0000 0.54560  0.37700  0.98020  Biso   1.000  N
  N7       1.0000 0.57650  0.28670  0.76370  Biso   1.000  N
  Eu2      1.0000 0.04951  0.37102  0.70109  Biso   1.000  Eu
  Mo1      1.0000 0.46128  0.66168  0.85400  Biso   1.000  Mo
  C13      1.0000 0.48120  0.55080  0.86860  Biso   1.000  C
  C14      1.0000 0.53750  0.36420  0.03770  Biso   1.000  C
  C15      1.0000 0.55960  0.24340  0.72240  Biso   1.000  C
  C16      1.0000 0.64590  0.64270  0.82850  Biso   1.000  C
  N8       1.0000 0.74230  0.63420  0.81220  Biso   1.000  N
  C17      1.0000 0.27050  0.62760  0.83680  Biso   1.000  C
  N9       1.0000 0.16980  0.60730  0.82730  Biso   1.000  N
  C18      1.0000 0.43110  0.61390  0.75080  Biso   1.000  C
  N10      1.0000 0.41500  0.58610  0.69750  Biso   1.000  N
  C19      1.0000 0.35110  0.74170  0.89490  Biso   1.000  C
  N11      1.0000 0.28880  0.78300  0.91570  Biso   1.000  N
  C20      1.0000 0.59320  0.73740  0.90630  Biso   1.000  C
  N12      1.0000 0.66320  0.77800  0.93180  Biso   1.000  N
  Eu3      1.0000 0.41493  0.87469  0.64298  Biso   1.000  Eu
  N13      1.0000 0.24490  0.96230  0.58270  Biso   1.000  N
  C21      1.0000 0.25780  0.00750  0.53160  Biso   1.000  C
  H11      1.0000 0.32740  0.00310  0.50780  Biso   1.000  H
  C22      1.0000 0.17270  0.06070  0.51210  Biso   1.000  C
  N14      1.0000 0.07180  0.06760  0.54370  Biso   1.000  N
  C23      1.0000 0.05650  0.02180  0.59370  Biso   1.000  C
  H12      1.0000 0.98500  0.02510  0.61610  Biso   1.000  H
  C24      1.0000 0.14220  0.96960  0.61380  Biso   1.000  C
  C25      1.0000 0.19370  0.11260  0.45680  Biso   1.000  C
  H13      1.0000 0.11800  0.11730  0.42340  Biso   1.000  H
  H14      1.0000 0.26120  0.09640  0.43270  Biso   1.000  H
  H15      1.0000 0.21560  0.15780  0.47850  Biso   1.000  H
  C26      1.0000 0.12890  0.91950  0.67210  Biso   1.000  C
  O5       1.0000 0.02770  0.91730  0.69570  Biso   1.000  O
  O6       1.0000 0.22250  0.88290  0.69330  Biso   1.000  O
  N15      1.0000 0.53120  0.76010  0.61220  Biso   1.000  N
  C27      1.0000 0.48430  0.70770  0.57160  Biso   1.000  C
  H16      1.0000 0.40130  0.71090  0.54920  Biso   1.000  H
  C28      1.0000 0.55290  0.64840  0.56100  Biso   1.000  C
  N16      1.0000 0.66860  0.64040  0.59390  Biso   1.000  N
  C29      1.0000 0.71660  0.69280  0.63510  Biso   1.000  C
  H17      1.0000 0.79850  0.68870  0.65900  Biso   1.000  H
  C30      1.0000 0.64920  0.75300  0.64360  Biso   1.000  C
  C31      1.0000 0.49900  0.59210  0.51240  Biso   1.000  C
  H18      1.0000 0.56000  0.57780  0.48280  Biso   1.000  H
  H19      1.0000 0.42460  0.60950  0.48330  Biso   1.000  H
  H20      1.0000 0.47720  0.55210  0.53940  Biso   1.000  H
  C32      1.0000 0.70210  0.81360  0.68650  Biso   1.000  C
  O7       1.0000 0.81180  0.80880  0.71750  Biso   1.000  O
  O8       1.0000 0.63420  0.86670  0.68690  Biso   1.000  O
  N17      1.0000 0.50960  0.99140  0.62660  Biso   1.000  N
  N18      1.0000 0.45440  0.87700  0.51980  Biso   1.000  N
  N19      1.0000 0.42350  0.78670  0.73630  Biso   1.000  N
  Eu4      1.0000 0.95049  0.87102  0.79891  Biso   1.000  Eu
  Mo2      1.0000 0.53872  0.16168  0.64600  Biso   1.000  Mo
  C33      1.0000 0.51880  0.05080  0.63140  Biso   1.000  C
  C34      1.0000 0.46250  0.86420  0.46230  Biso   1.000  C
  C35      1.0000 0.44040  0.74340  0.77760  Biso   1.000  C
  C36      1.0000 0.35410  0.14270  0.67150  Biso   1.000  C
  N20      1.0000 0.25770  0.13420  0.68780  Biso   1.000  N
  C37      1.0000 0.72950  0.12760  0.66320  Biso   1.000  C
  N21      1.0000 0.83020  0.10730  0.67270  Biso   1.000  N
  C38      1.0000 0.56890  0.11390  0.74920  Biso   1.000  C
  N22      1.0000 0.58500  0.08610  0.80250  Biso   1.000  N
  C39      1.0000 0.64890  0.24170  0.60510  Biso   1.000  C
  N23      1.0000 0.71120  0.28300  0.58430  Biso   1.000  N
  C40      1.0000 0.40680  0.23740  0.59370  Biso   1.000  C
  N24      1.0000 0.33680  0.27800  0.56820  Biso   1.000  N
  Eu5      1.0000 0.41493  0.62531  0.14298  Biso   1.000  Eu
  N25      1.0000 0.24490  0.53770  0.08270  Biso   1.000  N
  C41      1.0000 0.25780  0.49250  0.03160  Biso   1.000  C
  H21      1.0000 0.32740  0.49690  0.00780  Biso   1.000  H
  C42      1.0000 0.17270  0.43930  0.01210  Biso   1.000  C
  N26      1.0000 0.07180  0.43240  0.04370  Biso   1.000  N
  C43      1.0000 0.05650  0.47820  0.09370  Biso   1.000  C
  H22      1.0000 0.98500  0.47490  0.11610  Biso   1.000  H
  C44      1.0000 0.14220  0.53040  0.11380  Biso   1.000  C
  C45      1.0000 0.19370  0.38740  0.95680  Biso   1.000  C
  H23      1.0000 0.11800  0.38270  0.92340  Biso   1.000  H
  H24      1.0000 0.26120  0.40360  0.93270  Biso   1.000  H
  H25      1.0000 0.21560  0.34220  0.97850  Biso   1.000  H
  C46      1.0000 0.12890  0.58050  0.17210  Biso   1.000  C
  O9       1.0000 0.02770  0.58270  0.19570  Biso   1.000  O
  O10      1.0000 0.22250  0.61710  0.19330  Biso   1.000  O
  N27      1.0000 0.53120  0.73990  0.11220  Biso   1.000  N
  C47      1.0000 0.48430  0.79230  0.07160  Biso   1.000  C
  H26      1.0000 0.40130  0.78910  0.04920  Biso   1.000  H
  C48      1.0000 0.55290  0.85160  0.06100  Biso   1.000  C
  N28      1.0000 0.66860  0.85960  0.09390  Biso   1.000  N
  C49      1.0000 0.71660  0.80720  0.13510  Biso   1.000  C
  H27      1.0000 0.79850  0.81130  0.15900  Biso   1.000  H
  C50      1.0000 0.64920  0.74700  0.14360  Biso   1.000  C
  C51      1.0000 0.49900  0.90790  0.01240  Biso   1.000  C
  H28      1.0000 0.56000  0.92220  0.98280  Biso   1.000  H
  H29      1.0000 0.42460  0.89050  0.98330  Biso   1.000  H
  H30      1.0000 0.47720  0.94790  0.03940  Biso   1.000  H
  C52      1.0000 0.70210  0.68640  0.18650  Biso   1.000  C
  O11      1.0000 0.81180  0.69120  0.21750  Biso   1.000  O
  O12      1.0000 0.63420  0.63330  0.18690  Biso   1.000  O
  N29      1.0000 0.50960  0.50860  0.12660  Biso   1.000  N
  N30      1.0000 0.45440  0.62300  0.01980  Biso   1.000  N
  N31      1.0000 0.42350  0.71330  0.23630  Biso   1.000  N
  Eu6      1.0000 0.95049  0.62898  0.29891  Biso   1.000  Eu
  Mo3      1.0000 0.53872  0.33832  0.14600  Biso   1.000  Mo
  C53      1.0000 0.51880  0.44920  0.13140  Biso   1.000  C
  C54      1.0000 0.46250  0.63580  0.96230  Biso   1.000  C
  C55      1.0000 0.44040  0.75660  0.27760  Biso   1.000  C
  C56      1.0000 0.35410  0.35730  0.17150  Biso   1.000  C
  N32      1.0000 0.25770  0.36580  0.18780  Biso   1.000  N
  C57      1.0000 0.72950  0.37240  0.16320  Biso   1.000  C
  N33      1.0000 0.83020  0.39270  0.17270  Biso   1.000  N
  C58      1.0000 0.56890  0.38610  0.24920  Biso   1.000  C
  N34      1.0000 0.58500  0.41390  0.30250  Biso   1.000  N
  C59      1.0000 0.64890  0.25830  0.10510  Biso   1.000  C
  N35      1.0000 0.71120  0.21700  0.08430  Biso   1.000  N
  C60      1.0000 0.40680  0.26260  0.09370  Biso   1.000  C
  N36      1.0000 0.33680  0.22200  0.06820  Biso   1.000  N
  Eu7      1.0000 0.58507  0.12531  0.35702  Biso   1.000  Eu
  N37      1.0000 0.75510  0.03770  0.41730  Biso   1.000  N
  C61      1.0000 0.74220  0.99250  0.46840  Biso   1.000  C
  H31      1.0000 0.67260  0.99690  0.49220  Biso   1.000  H
  C62      1.0000 0.82730  0.93930  0.48790  Biso   1.000  C
  N38      1.0000 0.92820  0.93240  0.45630  Biso   1.000  N
  C63      1.0000 0.94350  0.97820  0.40630  Biso   1.000  C
  H32      1.0000 0.01500  0.97490  0.38390  Biso   1.000  H
  C64      1.0000 0.85780  0.03040  0.38620  Biso   1.000  C
  C65      1.0000 0.80630  0.88740  0.54320  Biso   1.000  C
  H33      1.0000 0.88200  0.88270  0.57660  Biso   1.000  H
  H34      1.0000 0.73880  0.90360  0.56730  Biso   1.000  H
  H35      1.0000 0.78440  0.84220  0.52150  Biso   1.000  H
  C66      1.0000 0.87110  0.08050  0.32790  Biso   1.000  C
  O13      1.0000 0.97230  0.08270  0.30430  Biso   1.000  O
  O14      1.0000 0.77750  0.11710  0.30670  Biso   1.000  O
  N39      1.0000 0.46880  0.23990  0.38780  Biso   1.000  N
  C67      1.0000 0.51570  0.29230  0.42840  Biso   1.000  C
  H36      1.0000 0.59870  0.28910  0.45080  Biso   1.000  H
  C68      1.0000 0.44710  0.35160  0.43900  Biso   1.000  C
  N40      1.0000 0.33140  0.35960  0.40610  Biso   1.000  N
  C69      1.0000 0.28340  0.30720  0.36490  Biso   1.000  C
  H37      1.0000 0.20150  0.31130  0.34100  Biso   1.000  H
  C70      1.0000 0.35080  0.24700  0.35640  Biso   1.000  C
  C71      1.0000 0.50100  0.40790  0.48760  Biso   1.000  C
  H38      1.0000 0.44000  0.42220  0.51720  Biso   1.000  H
  H39      1.0000 0.57540  0.39050  0.51670  Biso   1.000  H
  H40      1.0000 0.52280  0.44790  0.46060  Biso   1.000  H
  C72      1.0000 0.29790  0.18640  0.31350  Biso   1.000  C
  O15      1.0000 0.18820  0.19120  0.28250  Biso   1.000  O
  O16      1.0000 0.36580  0.13330  0.31310  Biso   1.000  O
  N41      1.0000 0.49040  0.00860  0.37340  Biso   1.000  N
  N42      1.0000 0.54560  0.12300  0.48020  Biso   1.000  N
  N43      1.0000 0.57650  0.21330  0.26370  Biso   1.000  N
  Eu8      1.0000 0.04951  0.12898  0.20109  Biso   1.000  Eu
  Mo4      1.0000 0.46128  0.83832  0.35400  Biso   1.000  Mo
  C73      1.0000 0.48120  0.94920  0.36860  Biso   1.000  C
  C74      1.0000 0.53750  0.13580  0.53770  Biso   1.000  C
  C75      1.0000 0.55960  0.25660  0.22240  Biso   1.000  C
  C76      1.0000 0.64590  0.85730  0.32850  Biso   1.000  C
  N44      1.0000 0.74230  0.86580  0.31220  Biso   1.000  N
  C77      1.0000 0.27050  0.87240  0.33680  Biso   1.000  C
  N45      1.0000 0.16980  0.89270  0.32730  Biso   1.000  N
  C78      1.0000 0.43110  0.88610  0.25080  Biso   1.000  C
  N46      1.0000 0.41500  0.91390  0.19750  Biso   1.000  N
  C79      1.0000 0.35110  0.75830  0.39490  Biso   1.000  C
  N47      1.0000 0.28880  0.71700  0.41570  Biso   1.000  N
  C80      1.0000 0.59320  0.76260  0.40630  Biso   1.000  C
  N48      1.0000 0.66320  0.72200  0.43180  Biso   1.000  N
