data_image0
_cell_length_a       8.413
_cell_length_b       11.8306
_cell_length_c       8.9468
_cell_angle_alpha    90
_cell_angle_beta     90
_cell_angle_gamma    90

_symmetry_space_group_name_H-M    "P 1"
_symmetry_int_tables_number       1

loop_
  _symmetry_equiv_pos_as_xyz
  'x, y, z'

loop_
  _atom_site_label
  _atom_site_occupancy
  _atom_site_fract_x
  _atom_site_fract_y
  _atom_site_fract_z
  _atom_site_thermal_displace_type
  _atom_site_B_iso_or_equiv
  _atom_site_type_symbol
  O1       1.0000 0.43878  0.19286  0.11207  Biso   1.000  O
  O2       1.0000 0.59350  0.18212  0.91342  Biso   1.000  O
  O3       1.0000 0.24412  0.40639  0.13090  Biso   1.000  O
  C1       1.0000 0.47710  0.22070  0.98290  Biso   1.000  C
  H1       1.0000 0.41430  0.27410  0.93460  Biso   1.000  H
  O4       1.0000 0.06122  0.80714  0.11207  Biso   1.000  O
  O5       1.0000 0.90650  0.81788  0.91342  Biso   1.000  O
  O6       1.0000 0.25588  0.59361  0.13090  Biso   1.000  O
  C2       1.0000 0.02290  0.77930  0.98290  Biso   1.000  C
  H2       1.0000 0.08570  0.72590  0.93460  Biso   1.000  H
  O7       1.0000 0.06122  0.69286  0.38793  Biso   1.000  O
  O8       1.0000 0.90650  0.68212  0.58658  Biso   1.000  O
  O9       1.0000 0.25588  0.90639  0.36910  Biso   1.000  O
  C3       1.0000 0.02290  0.72070  0.51710  Biso   1.000  C
  H3       1.0000 0.08570  0.77410  0.56540  Biso   1.000  H
  O10      1.0000 0.43878  0.30714  0.38793  Biso   1.000  O
  O11      1.0000 0.59350  0.31788  0.58658  Biso   1.000  O
  O12      1.0000 0.24412  0.09361  0.36910  Biso   1.000  O
  C4       1.0000 0.47710  0.27930  0.51710  Biso   1.000  C
  H4       1.0000 0.41430  0.22590  0.56540  Biso   1.000  H
  O13      1.0000 0.56122  0.80714  0.88793  Biso   1.000  O
  O14      1.0000 0.40650  0.81788  0.08658  Biso   1.000  O
  O15      1.0000 0.75588  0.59361  0.86910  Biso   1.000  O
  C5       1.0000 0.52290  0.77930  0.01710  Biso   1.000  C
  H5       1.0000 0.58570  0.72590  0.06540  Biso   1.000  H
  O16      1.0000 0.93878  0.19286  0.88793  Biso   1.000  O
  O17      1.0000 0.09350  0.18212  0.08658  Biso   1.000  O
  O18      1.0000 0.74412  0.40639  0.86910  Biso   1.000  O
  C6       1.0000 0.97710  0.22070  0.01710  Biso   1.000  C
  H6       1.0000 0.91430  0.27410  0.06540  Biso   1.000  H
  O19      1.0000 0.93878  0.30714  0.61207  Biso   1.000  O
  O20      1.0000 0.09350  0.31788  0.41342  Biso   1.000  O
  O21      1.0000 0.74412  0.09361  0.63090  Biso   1.000  O
  C7       1.0000 0.97710  0.27930  0.48290  Biso   1.000  C
  H7       1.0000 0.91430  0.22590  0.43460  Biso   1.000  H
  O22      1.0000 0.56122  0.69286  0.61207  Biso   1.000  O
  O23      1.0000 0.40650  0.68212  0.41342  Biso   1.000  O
  O24      1.0000 0.75588  0.90639  0.63090  Biso   1.000  O
  C8       1.0000 0.52290  0.72070  0.48290  Biso   1.000  C
  H8       1.0000 0.58570  0.77410  0.43460  Biso   1.000  H
  Fe1      1.0000 0.24750  0.25000  0.25000  Biso   1.000  Fe
  Fe2      1.0000 0.25250  0.75000  0.25000  Biso   1.000  Fe
  Fe3      1.0000 0.75250  0.75000  0.75000  Biso   1.000  Fe
  Fe4      1.0000 0.74750  0.25000  0.75000  Biso   1.000  Fe
  C9       1.0000 0.25000  0.50000  0.19290  Biso   1.000  C
  H9       1.0000 0.25000  0.50000  0.29690  Biso   1.000  H
  C10      1.0000 0.25000  0.00000  0.30710  Biso   1.000  C
  H10      1.0000 0.25000  0.00000  0.20310  Biso   1.000  H
  C11      1.0000 0.75000  0.50000  0.80710  Biso   1.000  C
  H11      1.0000 0.75000  0.50000  0.70310  Biso   1.000  H
  C12      1.0000 0.75000  0.00000  0.69290  Biso   1.000  C
  H12      1.0000 0.75000  0.00000  0.79690  Biso   1.000  H
