data_image0
_cell_length_a       10.137
_cell_length_b       16.768
_cell_length_c       15.852
_cell_angle_alpha    90
_cell_angle_beta     94.166
_cell_angle_gamma    90

_symmetry_space_group_name_H-M    "P 1"
_symmetry_int_tables_number       1

loop_
  _symmetry_equiv_pos_as_xyz
  'x, y, z'

loop_
  _atom_site_label
  _atom_site_occupancy
  _atom_site_fract_x
  _atom_site_fract_y
  _atom_site_fract_z
  _atom_site_thermal_displace_type
  _atom_site_B_iso_or_equiv
  _atom_site_type_symbol
  Ni1      1.0000 0.20999  0.22725  0.36763  Biso   1.000  Ni
  C1       1.0000 0.63570  0.98588  0.73604  Biso   1.000  C
  H1       1.0000 0.57880  0.01420  0.76840  Biso   1.000  H
  C2       1.0000 0.62770  0.90770  0.71518  Biso   1.000  C
  H2       1.0000 0.56250  0.87290  0.73120  Biso   1.000  H
  C3       1.0000 0.79740  0.95323  0.65932  Biso   1.000  C
  H3       1.0000 0.87280  0.95700  0.62950  Biso   1.000  H
  C4       1.0000 0.78940  0.09816  0.70156  Biso   1.000  C
  H4       1.0000 0.88520  0.09910  0.70260  Biso   1.000  H
  H5       1.0000 0.76430  0.12270  0.75350  Biso   1.000  H
  C5       1.0000 0.73240  0.14874  0.62566  Biso   1.000  C
  C6       1.0000 0.77810  0.12225  0.54047  Biso   1.000  C
  H6       1.0000 0.76010  0.06570  0.53420  Biso   1.000  H
  H7       1.0000 0.72420  0.14960  0.49640  Biso   1.000  H
  C7       1.0000 0.02860  0.09851  0.56210  Biso   1.000  C
  H8       1.0000 0.03180  0.06220  0.60650  Biso   1.000  H
  C8       1.0000 0.13100  0.12530  0.52092  Biso   1.000  C
  H9       1.0000 0.21880  0.11100  0.53380  Biso   1.000  H
  C9       1.0000 0.95920  0.18134  0.46252  Biso   1.000  C
  H10      1.0000 0.90320  0.21250  0.42710  Biso   1.000  H
  C10      1.0000 0.75880  0.23761  0.64486  Biso   1.000  C
  H11      1.0000 0.73650  0.26790  0.59370  Biso   1.000  H
  H12      1.0000 0.69960  0.25480  0.68670  Biso   1.000  H
  C11      1.0000 0.98720  0.29546  0.63162  Biso   1.000  C
  H13      1.0000 0.97860  0.30970  0.57480  Biso   1.000  H
  C12      1.0000 0.09290  0.30795  0.68627  Biso   1.000  C
  H14      1.0000 0.17090  0.33260  0.67290  Biso   1.000  H
  C13      1.0000 0.94800  0.25020  0.75563  Biso   1.000  C
  H15      1.0000 0.90460  0.22730  0.79930  Biso   1.000  H
  C14      1.0000 0.58020  0.13697  0.62224  Biso   1.000  C
  H16      1.0000 0.56040  0.08330  0.60240  Biso   1.000  H
  H17      1.0000 0.55270  0.14080  0.67950  Biso   1.000  H
  C15      1.0000 0.43980  0.25960  0.59690  Biso   1.000  C
  H18      1.0000 0.45350  0.28290  0.65000  Biso   1.000  H
  C16      1.0000 0.35710  0.28534  0.53238  Biso   1.000  C
  H19      1.0000 0.30490  0.33090  0.53340  Biso   1.000  H
  C17      1.0000 0.44800  0.17989  0.48942  Biso   1.000  C
  H20      1.0000 0.47130  0.13740  0.45580  Biso   1.000  H
  C18      1.0000 0.12750  0.40065  0.35322  Biso   1.000  C
  C19      1.0000 0.06390  0.47220  0.39204  Biso   1.000  C
  H21      1.0000 0.12400  0.51700  0.39000  Biso   1.000  H
  H22      1.0000 0.98440  0.48570  0.35720  Biso   1.000  H
  C20      1.0000 0.02770  0.46249  0.48123  Biso   1.000  C
  H23      1.0000 0.10580  0.44610  0.51600  Biso   1.000  H
  H24      1.0000 0.96270  0.42020  0.48310  Biso   1.000  H
  O1       1.0000 0.13922  0.33816  0.39783  Biso   1.000  O
  O2       1.0000 0.16464  0.40815  0.28010  Biso   1.000  O
  N1       1.0000 0.74502  0.01488  0.69983  Biso   1.000  N
  N2       1.0000 0.72969  0.88705  0.66676  Biso   1.000  N
  N3       1.0000 0.91797  0.13567  0.52527  Biso   1.000  N
  N4       1.0000 0.08839  0.17672  0.45716  Biso   1.000  N
  N5       1.0000 0.89497  0.25787  0.67587  Biso   1.000  N
  N6       1.0000 0.06880  0.27904  0.76445  Biso   1.000  N
  N7       1.0000 0.49963  0.19249  0.56910  Biso   1.000  N
  N8       1.0000 0.36106  0.23469  0.46500  Biso   1.000  N
  Ni2      1.0000 0.79001  0.72725  0.13237  Biso   1.000  Ni
  C21      1.0000 0.36430  0.48588  0.76396  Biso   1.000  C
  H25      1.0000 0.42120  0.51420  0.73160  Biso   1.000  H
  C22      1.0000 0.37230  0.40770  0.78482  Biso   1.000  C
  H26      1.0000 0.43750  0.37290  0.76880  Biso   1.000  H
  C23      1.0000 0.20260  0.45323  0.84068  Biso   1.000  C
  H27      1.0000 0.12720  0.45700  0.87050  Biso   1.000  H
  C24      1.0000 0.21060  0.59816  0.79844  Biso   1.000  C
  H28      1.0000 0.11480  0.59910  0.79740  Biso   1.000  H
  H29      1.0000 0.23570  0.62270  0.74650  Biso   1.000  H
  C25      1.0000 0.26760  0.64874  0.87434  Biso   1.000  C
  C26      1.0000 0.22190  0.62225  0.95953  Biso   1.000  C
  H30      1.0000 0.23990  0.56570  0.96580  Biso   1.000  H
  H31      1.0000 0.27580  0.64960  0.00360  Biso   1.000  H
  C27      1.0000 0.97140  0.59851  0.93790  Biso   1.000  C
  H32      1.0000 0.96820  0.56220  0.89350  Biso   1.000  H
  C28      1.0000 0.86900  0.62530  0.97908  Biso   1.000  C
  H33      1.0000 0.78120  0.61100  0.96620  Biso   1.000  H
  C29      1.0000 0.04080  0.68134  0.03748  Biso   1.000  C
  H34      1.0000 0.09680  0.71250  0.07290  Biso   1.000  H
  C30      1.0000 0.24120  0.73761  0.85514  Biso   1.000  C
  H35      1.0000 0.26350  0.76790  0.90630  Biso   1.000  H
  H36      1.0000 0.30040  0.75480  0.81330  Biso   1.000  H
  C31      1.0000 0.01280  0.79546  0.86838  Biso   1.000  C
  H37      1.0000 0.02140  0.80970  0.92520  Biso   1.000  H
  C32      1.0000 0.90710  0.80795  0.81373  Biso   1.000  C
  H38      1.0000 0.82910  0.83260  0.82710  Biso   1.000  H
  C33      1.0000 0.05200  0.75020  0.74437  Biso   1.000  C
  H39      1.0000 0.09540  0.72730  0.70070  Biso   1.000  H
  C34      1.0000 0.41980  0.63697  0.87776  Biso   1.000  C
  H40      1.0000 0.43960  0.58330  0.89760  Biso   1.000  H
  H41      1.0000 0.44730  0.64080  0.82050  Biso   1.000  H
  C35      1.0000 0.56020  0.75960  0.90310  Biso   1.000  C
  H42      1.0000 0.54650  0.78290  0.85000  Biso   1.000  H
  C36      1.0000 0.64290  0.78534  0.96762  Biso   1.000  C
  H43      1.0000 0.69510  0.83090  0.96660  Biso   1.000  H
  C37      1.0000 0.55200  0.67989  0.01058  Biso   1.000  C
  H44      1.0000 0.52870  0.63740  0.04420  Biso   1.000  H
  C38      1.0000 0.87250  0.90065  0.14678  Biso   1.000  C
  C39      1.0000 0.93610  0.97220  0.10796  Biso   1.000  C
  H45      1.0000 0.87600  0.01700  0.11000  Biso   1.000  H
  H46      1.0000 0.01560  0.98570  0.14280  Biso   1.000  H
  C40      1.0000 0.97230  0.96249  0.01877  Biso   1.000  C
  H47      1.0000 0.89420  0.94610  0.98400  Biso   1.000  H
  H48      1.0000 0.03730  0.92020  0.01690  Biso   1.000  H
  O3       1.0000 0.86078  0.83816  0.10217  Biso   1.000  O
  O4       1.0000 0.83536  0.90815  0.21990  Biso   1.000  O
  N9       1.0000 0.25498  0.51488  0.80017  Biso   1.000  N
  N10      1.0000 0.27031  0.38705  0.83324  Biso   1.000  N
  N11      1.0000 0.08203  0.63567  0.97473  Biso   1.000  N
  N12      1.0000 0.91161  0.67672  0.04284  Biso   1.000  N
  N13      1.0000 0.10503  0.75787  0.82413  Biso   1.000  N
  N14      1.0000 0.93120  0.77904  0.73555  Biso   1.000  N
  N15      1.0000 0.50037  0.69249  0.93090  Biso   1.000  N
  N16      1.0000 0.63894  0.73469  0.03500  Biso   1.000  N
  Ni3      1.0000 0.79001  0.77275  0.63237  Biso   1.000  Ni
  C41      1.0000 0.36430  0.01412  0.26396  Biso   1.000  C
  H49      1.0000 0.42120  0.98580  0.23160  Biso   1.000  H
  C42      1.0000 0.37230  0.09230  0.28482  Biso   1.000  C
  H50      1.0000 0.43750  0.12710  0.26880  Biso   1.000  H
  C43      1.0000 0.20260  0.04677  0.34068  Biso   1.000  C
  H51      1.0000 0.12720  0.04300  0.37050  Biso   1.000  H
  C44      1.0000 0.21060  0.90184  0.29844  Biso   1.000  C
  H52      1.0000 0.11480  0.90090  0.29740  Biso   1.000  H
  H53      1.0000 0.23570  0.87730  0.24650  Biso   1.000  H
  C45      1.0000 0.26760  0.85126  0.37434  Biso   1.000  C
  C46      1.0000 0.22190  0.87775  0.45953  Biso   1.000  C
  H54      1.0000 0.23990  0.93430  0.46580  Biso   1.000  H
  H55      1.0000 0.27580  0.85040  0.50360  Biso   1.000  H
  C47      1.0000 0.97140  0.90149  0.43790  Biso   1.000  C
  H56      1.0000 0.96820  0.93780  0.39350  Biso   1.000  H
  C48      1.0000 0.86900  0.87470  0.47908  Biso   1.000  C
  H57      1.0000 0.78120  0.88900  0.46620  Biso   1.000  H
  C49      1.0000 0.04080  0.81866  0.53748  Biso   1.000  C
  H58      1.0000 0.09680  0.78750  0.57290  Biso   1.000  H
  C50      1.0000 0.24120  0.76239  0.35514  Biso   1.000  C
  H59      1.0000 0.26350  0.73210  0.40630  Biso   1.000  H
  H60      1.0000 0.30040  0.74520  0.31330  Biso   1.000  H
  C51      1.0000 0.01280  0.70454  0.36838  Biso   1.000  C
  H61      1.0000 0.02140  0.69030  0.42520  Biso   1.000  H
  C52      1.0000 0.90710  0.69205  0.31373  Biso   1.000  C
  H62      1.0000 0.82910  0.66740  0.32710  Biso   1.000  H
  C53      1.0000 0.05200  0.74980  0.24437  Biso   1.000  C
  H63      1.0000 0.09540  0.77270  0.20070  Biso   1.000  H
  C54      1.0000 0.41980  0.86303  0.37776  Biso   1.000  C
  H64      1.0000 0.43960  0.91670  0.39760  Biso   1.000  H
  H65      1.0000 0.44730  0.85920  0.32050  Biso   1.000  H
  C55      1.0000 0.56020  0.74040  0.40310  Biso   1.000  C
  H66      1.0000 0.54650  0.71710  0.35000  Biso   1.000  H
  C56      1.0000 0.64290  0.71466  0.46762  Biso   1.000  C
  H67      1.0000 0.69510  0.66910  0.46660  Biso   1.000  H
  C57      1.0000 0.55200  0.82011  0.51058  Biso   1.000  C
  H68      1.0000 0.52870  0.86260  0.54420  Biso   1.000  H
  C58      1.0000 0.87250  0.59935  0.64678  Biso   1.000  C
  C59      1.0000 0.93610  0.52780  0.60796  Biso   1.000  C
  H69      1.0000 0.87600  0.48300  0.61000  Biso   1.000  H
  H70      1.0000 0.01560  0.51430  0.64280  Biso   1.000  H
  C60      1.0000 0.97230  0.53751  0.51877  Biso   1.000  C
  H71      1.0000 0.89420  0.55390  0.48400  Biso   1.000  H
  H72      1.0000 0.03730  0.57980  0.51690  Biso   1.000  H
  O5       1.0000 0.86078  0.66184  0.60217  Biso   1.000  O
  O6       1.0000 0.83536  0.59185  0.71990  Biso   1.000  O
  N17      1.0000 0.25498  0.98512  0.30017  Biso   1.000  N
  N18      1.0000 0.27031  0.11295  0.33324  Biso   1.000  N
  N19      1.0000 0.08203  0.86433  0.47473  Biso   1.000  N
  N20      1.0000 0.91161  0.82328  0.54284  Biso   1.000  N
  N21      1.0000 0.10503  0.74213  0.32413  Biso   1.000  N
  N22      1.0000 0.93120  0.72096  0.23555  Biso   1.000  N
  N23      1.0000 0.50037  0.80751  0.43090  Biso   1.000  N
  N24      1.0000 0.63894  0.76531  0.53500  Biso   1.000  N
  Ni4      1.0000 0.20999  0.27275  0.86763  Biso   1.000  Ni
  C61      1.0000 0.63570  0.51412  0.23604  Biso   1.000  C
  H73      1.0000 0.57880  0.48580  0.26840  Biso   1.000  H
  C62      1.0000 0.62770  0.59230  0.21518  Biso   1.000  C
  H74      1.0000 0.56250  0.62710  0.23120  Biso   1.000  H
  C63      1.0000 0.79740  0.54677  0.15932  Biso   1.000  C
  H75      1.0000 0.87280  0.54300  0.12950  Biso   1.000  H
  C64      1.0000 0.78940  0.40184  0.20156  Biso   1.000  C
  H76      1.0000 0.88520  0.40090  0.20260  Biso   1.000  H
  H77      1.0000 0.76430  0.37730  0.25350  Biso   1.000  H
  C65      1.0000 0.73240  0.35126  0.12566  Biso   1.000  C
  C66      1.0000 0.77810  0.37775  0.04047  Biso   1.000  C
  H78      1.0000 0.76010  0.43430  0.03420  Biso   1.000  H
  H79      1.0000 0.72420  0.35040  0.99640  Biso   1.000  H
  C67      1.0000 0.02860  0.40149  0.06210  Biso   1.000  C
  H80      1.0000 0.03180  0.43780  0.10650  Biso   1.000  H
  C68      1.0000 0.13100  0.37470  0.02092  Biso   1.000  C
  H81      1.0000 0.21880  0.38900  0.03380  Biso   1.000  H
  C69      1.0000 0.95920  0.31866  0.96252  Biso   1.000  C
  H82      1.0000 0.90320  0.28750  0.92710  Biso   1.000  H
  C70      1.0000 0.75880  0.26239  0.14486  Biso   1.000  C
  H83      1.0000 0.73650  0.23210  0.09370  Biso   1.000  H
  H84      1.0000 0.69960  0.24520  0.18670  Biso   1.000  H
  C71      1.0000 0.98720  0.20454  0.13162  Biso   1.000  C
  H85      1.0000 0.97860  0.19030  0.07480  Biso   1.000  H
  C72      1.0000 0.09290  0.19205  0.18627  Biso   1.000  C
  H86      1.0000 0.17090  0.16740  0.17290  Biso   1.000  H
  C73      1.0000 0.94800  0.24980  0.25563  Biso   1.000  C
  H87      1.0000 0.90460  0.27270  0.29930  Biso   1.000  H
  C74      1.0000 0.58020  0.36303  0.12224  Biso   1.000  C
  H88      1.0000 0.56040  0.41670  0.10240  Biso   1.000  H
  H89      1.0000 0.55270  0.35920  0.17950  Biso   1.000  H
  C75      1.0000 0.43980  0.24040  0.09690  Biso   1.000  C
  H90      1.0000 0.45350  0.21710  0.15000  Biso   1.000  H
  C76      1.0000 0.35710  0.21466  0.03238  Biso   1.000  C
  H91      1.0000 0.30490  0.16910  0.03340  Biso   1.000  H
  C77      1.0000 0.44800  0.32011  0.98942  Biso   1.000  C
  H92      1.0000 0.47130  0.36260  0.95580  Biso   1.000  H
  C78      1.0000 0.12750  0.09935  0.85322  Biso   1.000  C
  C79      1.0000 0.06390  0.02780  0.89204  Biso   1.000  C
  H93      1.0000 0.12400  0.98300  0.89000  Biso   1.000  H
  H94      1.0000 0.98440  0.01430  0.85720  Biso   1.000  H
  C80      1.0000 0.02770  0.03751  0.98123  Biso   1.000  C
  H95      1.0000 0.10580  0.05390  0.01600  Biso   1.000  H
  H96      1.0000 0.96270  0.07980  0.98310  Biso   1.000  H
  O7       1.0000 0.13922  0.16184  0.89783  Biso   1.000  O
  O8       1.0000 0.16464  0.09185  0.78010  Biso   1.000  O
  N25      1.0000 0.74502  0.48512  0.19983  Biso   1.000  N
  N26      1.0000 0.72969  0.61295  0.16676  Biso   1.000  N
  N27      1.0000 0.91797  0.36433  0.02527  Biso   1.000  N
  N28      1.0000 0.08839  0.32328  0.95716  Biso   1.000  N
  N29      1.0000 0.89497  0.24213  0.17587  Biso   1.000  N
  N30      1.0000 0.06880  0.22096  0.26445  Biso   1.000  N
  N31      1.0000 0.49963  0.30751  0.06910  Biso   1.000  N
  N32      1.0000 0.36106  0.26531  0.96500  Biso   1.000  N
