data_UZAMUE_clean
_audit_creation_date              2014-07-02
_audit_creation_method            'Materials Studio'
_symmetry_space_group_name_H-M    'P1'
_symmetry_Int_Tables_number       1
_symmetry_cell_setting            triclinic
loop_
_symmetry_equiv_pos_as_xyz
  x,y,z
_cell_length_a                    9.5868
_cell_length_b                    10.1255
_cell_length_c                    20.2095
_cell_angle_alpha                 103.1460
_cell_angle_beta                  90.0000
_cell_angle_gamma                 90.0000
loop_
_atom_site_label
_atom_site_type_symbol
_atom_site_fract_x
_atom_site_fract_y
_atom_site_fract_z
_atom_site_U_iso_or_equiv
_atom_site_adp_type
_atom_site_occupancy
Eu1    Eu    0.42941   0.76883   0.79843   0.01267  Uiso   1.00
Eu2    Eu    0.92941   0.73116   0.70157   0.01267  Uiso   1.00
Eu3    Eu    0.57059   0.23116   0.20157   0.01267  Uiso   1.00
Eu4    Eu    0.07059   0.26883   0.29843   0.01267  Uiso   1.00
Zn1    Zn    0.86129   0.30294   0.66367   0.01267  Uiso   1.00
Zn2    Zn    0.36129   0.19706   0.83633   0.01267  Uiso   1.00
Zn3    Zn    0.13871   0.69706   0.33633   0.01267  Uiso   1.00
Zn4    Zn    0.63871   0.80294   0.16367   0.01267  Uiso   1.00
H1     H     0.00780   0.94390   0.15330   0.01267  Uiso   1.00
H2     H     0.90250   0.82180   0.05630   0.01267  Uiso   1.00
H3     H     0.01960   0.77950   0.95450   0.01267  Uiso   1.00
H4     H     0.35160   0.98340   0.04680   0.01267  Uiso   1.00
H5     H     0.62570   0.10220   0.72040   0.01267  Uiso   1.00
H6     H     0.50780   0.55610   0.34670   0.01267  Uiso   1.00
H7     H     0.40250   0.67820   0.44370   0.01267  Uiso   1.00
H8     H     0.51960   0.72050   0.54550   0.01267  Uiso   1.00
H9     H     0.85160   0.51660   0.45320   0.01267  Uiso   1.00
H10    H     0.12570   0.39780   0.77960   0.01267  Uiso   1.00
H11    H     0.99220   0.05610   0.84670   0.01267  Uiso   1.00
H12    H     0.09750   0.17820   0.94370   0.01267  Uiso   1.00
H13    H     0.98040   0.22050   0.04550   0.01267  Uiso   1.00
H14    H     0.64840   0.01660   0.95320   0.01267  Uiso   1.00
H15    H     0.37430   0.89780   0.27960   0.01267  Uiso   1.00
H16    H     0.49220   0.44390   0.65330   0.01267  Uiso   1.00
H17    H     0.59750   0.32180   0.55630   0.01267  Uiso   1.00
H18    H     0.48040   0.27950   0.45450   0.01267  Uiso   1.00
H19    H     0.14840   0.48340   0.54680   0.01267  Uiso   1.00
H20    H     0.87430   0.60220   0.22040   0.01267  Uiso   1.00
C1     C     0.19070   0.97450   0.11040   0.01267  Uiso   1.00
C2     C     0.05610   0.92670   0.11240   0.01267  Uiso   1.00
C3     C     0.99290   0.85380   0.05430   0.01267  Uiso   1.00
C4     C     0.06300   0.82840   0.99360   0.01267  Uiso   1.00
C5     C     0.19790   0.87512   0.99012   0.01267  Uiso   1.00
C6     C     0.26170   0.94998   0.04888   0.01267  Uiso   1.00
C7     C     0.27470   0.84541   0.92411   0.01267  Uiso   1.00
C8     C     0.25880   0.05384   0.17444   0.01267  Uiso   1.00
C9     C     0.70230   0.53525   0.73895   0.01267  Uiso   1.00
C10    C     0.63900   0.41176   0.75256   0.01267  Uiso   1.00
C11    C     0.53650   0.38730   0.79610   0.01267  Uiso   1.00
C12    C     0.44900   0.47409   0.84879   0.01267  Uiso   1.00
C13    C     0.61390   0.19500   0.73730   0.01267  Uiso   1.00
C14    C     0.69070   0.52550   0.38960   0.01267  Uiso   1.00
C15    C     0.55610   0.57330   0.38760   0.01267  Uiso   1.00
C16    C     0.49290   0.64620   0.44570   0.01267  Uiso   1.00
C17    C     0.56300   0.67160   0.50640   0.01267  Uiso   1.00
C18    C     0.69790   0.62488   0.50988   0.01267  Uiso   1.00
C19    C     0.76170   0.55002   0.45112   0.01267  Uiso   1.00
C20    C     0.77470   0.65459   0.57589   0.01267  Uiso   1.00
C21    C     0.75880   0.44616   0.32556   0.01267  Uiso   1.00
C22    C     0.20230   0.96475   0.76105   0.01267  Uiso   1.00
C23    C     0.13900   0.08824   0.74744   0.01267  Uiso   1.00
C24    C     0.03650   0.11270   0.70390   0.01267  Uiso   1.00
C25    C     0.94900   0.02591   0.65121   0.01267  Uiso   1.00
C26    C     0.11390   0.30500   0.76270   0.01267  Uiso   1.00
C27    C     0.80930   0.02550   0.88960   0.01267  Uiso   1.00
C28    C     0.94390   0.07330   0.88760   0.01267  Uiso   1.00
C29    C     0.00710   0.14620   0.94570   0.01267  Uiso   1.00
C30    C     0.93700   0.17160   0.00640   0.01267  Uiso   1.00
C31    C     0.80210   0.12488   0.00988   0.01267  Uiso   1.00
C32    C     0.73830   0.05002   0.95112   0.01267  Uiso   1.00
C33    C     0.72530   0.15459   0.07589   0.01267  Uiso   1.00
C34    C     0.74120   0.94616   0.82556   0.01267  Uiso   1.00
C35    C     0.29770   0.46475   0.26105   0.01267  Uiso   1.00
C36    C     0.36100   0.58824   0.24744   0.01267  Uiso   1.00
C37    C     0.46350   0.61270   0.20390   0.01267  Uiso   1.00
C38    C     0.55100   0.52591   0.15121   0.01267  Uiso   1.00
C39    C     0.38610   0.80500   0.26270   0.01267  Uiso   1.00
C40    C     0.30930   0.47450   0.61040   0.01267  Uiso   1.00
C41    C     0.44390   0.42670   0.61240   0.01267  Uiso   1.00
C42    C     0.50710   0.35380   0.55430   0.01267  Uiso   1.00
C43    C     0.43700   0.32840   0.49360   0.01267  Uiso   1.00
C44    C     0.30210   0.37512   0.49012   0.01267  Uiso   1.00
C45    C     0.23830   0.44998   0.54888   0.01267  Uiso   1.00
C46    C     0.22530   0.34541   0.42411   0.01267  Uiso   1.00
C47    C     0.24120   0.55384   0.67444   0.01267  Uiso   1.00
C48    C     0.79770   0.03525   0.23895   0.01267  Uiso   1.00
C49    C     0.86100   0.91176   0.25256   0.01267  Uiso   1.00
C50    C     0.96350   0.88730   0.29610   0.01267  Uiso   1.00
C51    C     0.05100   0.97409   0.34879   0.01267  Uiso   1.00
C52    C     0.88610   0.69500   0.23730   0.01267  Uiso   1.00
N1     N     0.68700   0.28940   0.71580   0.01267  Uiso   1.00
N2     N     0.52160   0.24848   0.78568   0.01267  Uiso   1.00
N3     N     0.18700   0.21060   0.78420   0.01267  Uiso   1.00
N4     N     0.02160   0.25152   0.71432   0.01267  Uiso   1.00
N5     N     0.31300   0.71060   0.28420   0.01267  Uiso   1.00
N6     N     0.47840   0.75152   0.21432   0.01267  Uiso   1.00
N7     N     0.81300   0.78940   0.21580   0.01267  Uiso   1.00
N8     N     0.97840   0.74848   0.28568   0.01267  Uiso   1.00
O1     O     0.21960   0.77213   0.87193   0.01267  Uiso   1.00
O2     O     0.39720   0.89067   0.92087   0.01267  Uiso   1.00
O3     O     0.38630   0.07913   0.17173   0.01267  Uiso   1.00
O4     O     0.18560   0.08687   0.22737   0.01267  Uiso   1.00
O5     O     0.65190   0.64987   0.75917   0.01267  Uiso   1.00
O6     O     0.81420   0.51485   0.70345   0.01267  Uiso   1.00
O7     O     0.46800   0.60109   0.86229   0.01267  Uiso   1.00
O8     O     0.36200   0.41530   0.87800   0.01267  Uiso   1.00
O9     O     0.71960   0.72787   0.62807   0.01267  Uiso   1.00
O10    O     0.89720   0.60933   0.57913   0.01267  Uiso   1.00
O11    O     0.88630   0.42087   0.32827   0.01267  Uiso   1.00
O12    O     0.68560   0.41313   0.27263   0.01267  Uiso   1.00
O13    O     0.15190   0.85013   0.74083   0.01267  Uiso   1.00
O14    O     0.31420   0.98515   0.79655   0.01267  Uiso   1.00
O15    O     0.96800   0.89891   0.63771   0.01267  Uiso   1.00
O16    O     0.86200   0.08470   0.62200   0.01267  Uiso   1.00
O17    O     0.78040   0.22787   0.12807   0.01267  Uiso   1.00
O18    O     0.60280   0.10933   0.07913   0.01267  Uiso   1.00
O19    O     0.61370   0.92087   0.82827   0.01267  Uiso   1.00
O20    O     0.81440   0.91313   0.77263   0.01267  Uiso   1.00
O21    O     0.34810   0.35013   0.24083   0.01267  Uiso   1.00
O22    O     0.18580   0.48515   0.29655   0.01267  Uiso   1.00
O23    O     0.53200   0.39891   0.13771   0.01267  Uiso   1.00
O24    O     0.63800   0.58470   0.12200   0.01267  Uiso   1.00
O25    O     0.28040   0.27213   0.37193   0.01267  Uiso   1.00
O26    O     0.10280   0.39067   0.42087   0.01267  Uiso   1.00
O27    O     0.11370   0.57913   0.67173   0.01267  Uiso   1.00
O28    O     0.31440   0.58687   0.72737   0.01267  Uiso   1.00
O29    O     0.84810   0.14987   0.25917   0.01267  Uiso   1.00
O30    O     0.68580   0.01485   0.20345   0.01267  Uiso   1.00
O31    O     0.03200   0.10109   0.36229   0.01267  Uiso   1.00
O32    O     0.13800   0.91530   0.37800   0.01267  Uiso   1.00
