data_image0
_cell_length_a       10.918
_cell_length_b       11.231
_cell_length_c       14.577
_cell_angle_alpha    112.006
_cell_angle_beta     107.771
_cell_angle_gamma    90.509

_symmetry_space_group_name_H-M    "P 1"
_symmetry_int_tables_number       1

loop_
  _symmetry_equiv_pos_as_xyz
  'x, y, z'

loop_
  _atom_site_label
  _atom_site_occupancy
  _atom_site_fract_x
  _atom_site_fract_y
  _atom_site_fract_z
  _atom_site_thermal_displace_type
  _atom_site_B_iso_or_equiv
  _atom_site_type_symbol
  Zn1      1.0000 0.93623  0.05528  0.09797  Biso   1.000  Zn
  Zn2      1.0000 0.50878  0.98673  0.78807  Biso   1.000  Zn
  Zn3      1.0000 0.66069  0.51255  0.50290  Biso   1.000  Zn
  Zn4      1.0000 0.66066  0.50711  0.00556  Biso   1.000  Zn
  O1       1.0000 0.46410  0.82050  0.11790  Biso   1.000  O
  O2       1.0000 0.49880  0.62280  0.02800  Biso   1.000  O
  O3       1.0000 0.58870  0.07850  0.13740  Biso   1.000  O
  O4       1.0000 0.77710  0.13020  0.12720  Biso   1.000  O
  O5       1.0000 0.89320  0.01450  0.94240  Biso   1.000  O
  O6       1.0000 0.67850  0.97270  0.88640  Biso   1.000  O
  O7       1.0000 0.49110  0.79520  0.68380  Biso   1.000  O
  O8       1.0000 0.52170  0.60240  0.58350  Biso   1.000  O
  N1       1.0000 0.73890  0.69880  0.04780  Biso   1.000  N
  N2       1.0000 0.84420  0.89230  0.09010  Biso   1.000  N
  N3       1.0000 0.18350  0.59960  0.00650  Biso   1.000  N
  N4       1.0000 0.77580  0.67000  0.63430  Biso   1.000  N
  N5       1.0000 0.91810  0.82560  0.77580  Biso   1.000  N
  N6       1.0000 0.21010  0.57200  0.57620  Biso   1.000  N
  C1       1.0000 0.53190  0.74670  0.07470  Biso   1.000  C
  C2       1.0000 0.66080  0.79150  0.07550  Biso   1.000  C
  C3       1.0000 0.72510  0.91150  0.10050  Biso   1.000  C
  C4       1.0000 0.69340  0.04880  0.12410  Biso   1.000  C
  C5       1.0000 0.84940  0.76480  0.05820  Biso   1.000  C
  C6       1.0000 0.96370  0.70740  0.03870  Biso   1.000  C
  C7       1.0000 0.08380  0.74900  0.11690  Biso   1.000  C
  H1       1.0000 0.09260  0.81460  0.18360  Biso   1.000  H
  C8       1.0000 0.19060  0.69430  0.09720  Biso   1.000  C
  H2       1.0000 0.27290  0.72580  0.15090  Biso   1.000  H
  C9       1.0000 0.06820  0.56350  0.92760  Biso   1.000  C
  H3       1.0000 0.06350  0.50160  0.86050  Biso   1.000  H
  C10      1.0000 0.95610  0.61430  0.94170  Biso   1.000  C
  H4       1.0000 0.87570  0.58550  0.88560  Biso   1.000  H
  C11      1.0000 0.78390  0.95170  0.87260  Biso   1.000  C
  C12      1.0000 0.79510  0.84680  0.77800  Biso   1.000  C
  C13      1.0000 0.70850  0.75140  0.69300  Biso   1.000  C
  C14      1.0000 0.56360  0.71750  0.65270  Biso   1.000  C
  C15      1.0000 0.90110  0.71930  0.68860  Biso   1.000  C
  C16      1.0000 0.00960  0.66850  0.65170  Biso   1.000  C
  C17      1.0000 0.03500  0.54270  0.63700  Biso   1.000  C
  H5       1.0000 0.98490  0.48800  0.65250  Biso   1.000  H
  C18      1.0000 0.13590  0.49900  0.59900  Biso   1.000  C
  H6       1.0000 0.15290  0.41300  0.58860  Biso   1.000  H
  C19      1.0000 0.18650  0.69390  0.59250  Biso   1.000  C
  H7       1.0000 0.23790  0.74600  0.57570  Biso   1.000  H
  C20      1.0000 0.09150  0.74690  0.63230  Biso   1.000  C
  H8       1.0000 0.08130  0.83530  0.64660  Biso   1.000  H
  Zn5      1.0000 0.06377  0.94472  0.90203  Biso   1.000  Zn
  Zn6      1.0000 0.49122  0.01327  0.21193  Biso   1.000  Zn
  Zn7      1.0000 0.33931  0.48745  0.49710  Biso   1.000  Zn
  Zn8      1.0000 0.33934  0.49289  0.99444  Biso   1.000  Zn
  O9       1.0000 0.53590  0.17950  0.88210  Biso   1.000  O
  O10      1.0000 0.50120  0.37720  0.97200  Biso   1.000  O
  O11      1.0000 0.41130  0.92150  0.86260  Biso   1.000  O
  O12      1.0000 0.22290  0.86980  0.87280  Biso   1.000  O
  O13      1.0000 0.10680  0.98550  0.05760  Biso   1.000  O
  O14      1.0000 0.32150  0.02730  0.11360  Biso   1.000  O
  O15      1.0000 0.50890  0.20480  0.31620  Biso   1.000  O
  O16      1.0000 0.47830  0.39760  0.41650  Biso   1.000  O
  N7       1.0000 0.26110  0.30120  0.95220  Biso   1.000  N
  N8       1.0000 0.15580  0.10770  0.90990  Biso   1.000  N
  N9       1.0000 0.81650  0.40040  0.99350  Biso   1.000  N
  N10      1.0000 0.22420  0.33000  0.36570  Biso   1.000  N
  N11      1.0000 0.08190  0.17440  0.22420  Biso   1.000  N
  N12      1.0000 0.78990  0.42800  0.42380  Biso   1.000  N
  C21      1.0000 0.46810  0.25330  0.92530  Biso   1.000  C
  C22      1.0000 0.33920  0.20850  0.92450  Biso   1.000  C
  C23      1.0000 0.27490  0.08850  0.89950  Biso   1.000  C
  C24      1.0000 0.30660  0.95120  0.87590  Biso   1.000  C
  C25      1.0000 0.15060  0.23520  0.94180  Biso   1.000  C
  C26      1.0000 0.03630  0.29260  0.96130  Biso   1.000  C
  C27      1.0000 0.91620  0.25100  0.88310  Biso   1.000  C
  H9       1.0000 0.90740  0.18540  0.81640  Biso   1.000  H
  C28      1.0000 0.80940  0.30570  0.90280  Biso   1.000  C
  H10      1.0000 0.72710  0.27420  0.84910  Biso   1.000  H
  C29      1.0000 0.93180  0.43650  0.07240  Biso   1.000  C
  H11      1.0000 0.93650  0.49840  0.13950  Biso   1.000  H
  C30      1.0000 0.04390  0.38570  0.05830  Biso   1.000  C
  H12      1.0000 0.12430  0.41450  0.11440  Biso   1.000  H
  C31      1.0000 0.21610  0.04830  0.12740  Biso   1.000  C
  C32      1.0000 0.20490  0.15320  0.22200  Biso   1.000  C
  C33      1.0000 0.29150  0.24860  0.30700  Biso   1.000  C
  C34      1.0000 0.43640  0.28250  0.34730  Biso   1.000  C
  C35      1.0000 0.09890  0.28070  0.31140  Biso   1.000  C
  C36      1.0000 0.99040  0.33150  0.34830  Biso   1.000  C
  C37      1.0000 0.96500  0.45730  0.36300  Biso   1.000  C
  H13      1.0000 0.01510  0.51200  0.34750  Biso   1.000  H
  C38      1.0000 0.86410  0.50100  0.40100  Biso   1.000  C
  H14      1.0000 0.84710  0.58700  0.41140  Biso   1.000  H
  C39      1.0000 0.81350  0.30610  0.40750  Biso   1.000  C
  H15      1.0000 0.76210  0.25400  0.42430  Biso   1.000  H
  C40      1.0000 0.90850  0.25310  0.36770  Biso   1.000  C
  H16      1.0000 0.91870  0.16470  0.35340  Biso   1.000  H
