data_UZATAR_clean
_audit_creation_date              2014-07-02
_audit_creation_method            'Materials Studio'
_symmetry_space_group_name_H-M    'P1'
_symmetry_Int_Tables_number       1
_symmetry_cell_setting            triclinic
loop_
_symmetry_equiv_pos_as_xyz
  x,y,z
_cell_length_a                    9.6762
_cell_length_b                    10.9949
_cell_length_c                    11.4960
_cell_angle_alpha                 104.9310
_cell_angle_beta                  90.7850
_cell_angle_gamma                 114.2470
loop_
_atom_site_label
_atom_site_type_symbol
_atom_site_fract_x
_atom_site_fract_y
_atom_site_fract_z
_atom_site_U_iso_or_equiv
_atom_site_adp_type
_atom_site_occupancy
Er1    Er    0.01754   0.92442   0.82953   0.01267  Uiso   1.00
Er2    Er    0.99326   0.49249   0.75322   0.01267  Uiso   1.00
Er3    Er    0.98246   0.07558   0.17047   0.01267  Uiso   1.00
Er4    Er    0.00674   0.50751   0.24678   0.01267  Uiso   1.00
H1     H     0.50530   0.18300   0.15540   0.01267  Uiso   1.00
H2     H     0.51190   0.71790   0.09300   0.01267  Uiso   1.00
H3     H     0.40890   0.29340   0.34470   0.01267  Uiso   1.00
H4     H     0.49470   0.81700   0.84460   0.01267  Uiso   1.00
H5     H     0.48810   0.28210   0.90700   0.01267  Uiso   1.00
H6     H     0.59110   0.70660   0.65530   0.01267  Uiso   1.00
C1     C     0.22810   0.99800   0.10110   0.01267  Uiso   1.00
C2     C     0.36410   0.99380   0.04570   0.01267  Uiso   1.00
C3     C     0.50310   0.10890   0.09290   0.01267  Uiso   1.00
C4     C     0.36050   0.88350   0.95090   0.01267  Uiso   1.00
C5     C     0.75910   0.75410   0.99100   0.01267  Uiso   1.00
C6     C     0.62730   0.62010   0.99500   0.01267  Uiso   1.00
C7     C     0.50630   0.63010   0.05500   0.01267  Uiso   1.00
C8     C     0.21730   0.75080   0.89260   0.01267  Uiso   1.00
C9     C     0.70770   0.38370   0.39890   0.01267  Uiso   1.00
C10    C     0.65480   0.56400   0.55120   0.01267  Uiso   1.00
C11    C     0.44600   0.37720   0.40640   0.01267  Uiso   1.00
C12    C     0.59940   0.44100   0.45430   0.01267  Uiso   1.00
C13    C     0.81400   0.63090   0.61370   0.01267  Uiso   1.00
C14    C     0.75010   0.46910   0.88270   0.01267  Uiso   1.00
C15    C     0.62180   0.48680   0.94030   0.01267  Uiso   1.00
C16    C     0.77190   0.00200   0.89890   0.01267  Uiso   1.00
C17    C     0.63590   0.00620   0.95430   0.01267  Uiso   1.00
C18    C     0.49690   0.89110   0.90710   0.01267  Uiso   1.00
C19    C     0.63950   0.11650   0.04910   0.01267  Uiso   1.00
C20    C     0.24090   0.24590   0.00900   0.01267  Uiso   1.00
C21    C     0.37270   0.37990   0.00500   0.01267  Uiso   1.00
C22    C     0.49370   0.36990   0.94500   0.01267  Uiso   1.00
C23    C     0.78270   0.24920   0.10740   0.01267  Uiso   1.00
C24    C     0.29230   0.61630   0.60110   0.01267  Uiso   1.00
C25    C     0.34520   0.43600   0.44880   0.01267  Uiso   1.00
C26    C     0.55400   0.62280   0.59360   0.01267  Uiso   1.00
C27    C     0.40060   0.55900   0.54570   0.01267  Uiso   1.00
C28    C     0.18600   0.36910   0.38630   0.01267  Uiso   1.00
C29    C     0.24990   0.53090   0.11730   0.01267  Uiso   1.00
C30    C     0.37820   0.51320   0.05970   0.01267  Uiso   1.00
O1     O     0.72480   0.37610   0.78440   0.01267  Uiso   1.00
O2     O     0.88700   0.54820   0.93140   0.01267  Uiso   1.00
O3     O     0.81950   0.46720   0.36270   0.01267  Uiso   1.00
O4     O     0.21760   0.63860   0.89750   0.01267  Uiso   1.00
O5     O     0.10630   0.75120   0.83300   0.01267  Uiso   1.00
O6     O     0.86870   0.54950   0.62870   0.01267  Uiso   1.00
O7     O     0.88490   0.76120   0.64680   0.01267  Uiso   1.00
O8     O     0.81380   0.75860   0.89410   0.01267  Uiso   1.00
O9     O     0.79490   0.85220   0.08720   0.01267  Uiso   1.00
O10    O     0.24110   0.05770   0.21060   0.01267  Uiso   1.00
O11    O     0.09800   0.94640   0.03350   0.01267  Uiso   1.00
O12    O     0.67890   0.26030   0.38830   0.01267  Uiso   1.00
O13    O     0.27520   0.62390   0.21560   0.01267  Uiso   1.00
O14    O     0.11300   0.45180   0.06860   0.01267  Uiso   1.00
O15    O     0.18050   0.53280   0.63730   0.01267  Uiso   1.00
O16    O     0.78240   0.36140   0.10250   0.01267  Uiso   1.00
O17    O     0.89370   0.24880   0.16700   0.01267  Uiso   1.00
O18    O     0.13130   0.45050   0.37130   0.01267  Uiso   1.00
O19    O     0.11510   0.23880   0.35320   0.01267  Uiso   1.00
O20    O     0.18620   0.24140   0.10590   0.01267  Uiso   1.00
O21    O     0.20510   0.14780   0.91280   0.01267  Uiso   1.00
O22    O     0.75890   0.94230   0.78940   0.01267  Uiso   1.00
O23    O     0.90200   0.05360   0.96650   0.01267  Uiso   1.00
O24    O     0.32110   0.73970   0.61170   0.01267  Uiso   1.00
