data_image0
_cell_length_a       17.857
_cell_length_b       19.72
_cell_length_c       7.923
_cell_angle_alpha    90
_cell_angle_beta     106.571
_cell_angle_gamma    90

_symmetry_space_group_name_H-M    "P 1"
_symmetry_int_tables_number       1

loop_
  _symmetry_equiv_pos_as_xyz
  'x, y, z'

loop_
  _atom_site_label
  _atom_site_occupancy
  _atom_site_fract_x
  _atom_site_fract_y
  _atom_site_fract_z
  _atom_site_thermal_displace_type
  _atom_site_B_iso_or_equiv
  _atom_site_type_symbol
  C1       1.0000 0.11480  0.25840  0.49640  Biso   1.000  C
  H1       1.0000 0.06620  0.25260  0.41450  Biso   1.000  H
  C2       1.0000 0.15520  0.21040  0.60630  Biso   1.000  C
  H2       1.0000 0.13970  0.16570  0.61270  Biso   1.000  H
  C3       1.0000 0.22310  0.30440  0.65240  Biso   1.000  C
  H3       1.0000 0.26290  0.33570  0.69640  Biso   1.000  H
  C4       1.0000 0.28350  0.20770  0.84370  Biso   1.000  C
  C5       1.0000 0.27090  0.14220  0.89550  Biso   1.000  C
  H4       1.0000 0.22510  0.11870  0.84170  Biso   1.000  H
  C6       1.0000 0.33000  0.11310  0.03160  Biso   1.000  C
  H5       1.0000 0.32250  0.06970  0.06960  Biso   1.000  H
  C7       1.0000 0.39790  0.14570  0.11040  Biso   1.000  C
  C8       1.0000 0.40940  0.21030  0.05300  Biso   1.000  C
  H6       1.0000 0.45620  0.23280  0.10400  Biso   1.000  H
  C9       1.0000 0.35270  0.24140  0.92210  Biso   1.000  C
  H7       1.0000 0.36080  0.28500  0.88590  Biso   1.000  H
  C10      1.0000 0.46010  0.11280  0.25250  Biso   1.000  C
  Cu1      1.0000 0.12805  0.40777  0.42454  Biso   1.000  Cu
  N1       1.0000 0.15790  0.31742  0.52640  Biso   1.000  N
  N2       1.0000 0.22390  0.23960  0.70820  Biso   1.000  N
  O1       1.0000 0.53004  0.13027  0.27650  Biso   1.000  O
  O2       1.0000 0.43725  0.06743  0.34160  Biso   1.000  O
  O3       1.0000 0.23218  0.43915  0.53600  Biso   1.000  O
  C11      1.0000 0.61480  0.75840  0.49640  Biso   1.000  C
  H8       1.0000 0.56620  0.75260  0.41450  Biso   1.000  H
  C12      1.0000 0.65520  0.71040  0.60630  Biso   1.000  C
  H9       1.0000 0.63970  0.66570  0.61270  Biso   1.000  H
  C13      1.0000 0.72310  0.80440  0.65240  Biso   1.000  C
  H10      1.0000 0.76290  0.83570  0.69640  Biso   1.000  H
  C14      1.0000 0.78350  0.70770  0.84370  Biso   1.000  C
  C15      1.0000 0.77090  0.64220  0.89550  Biso   1.000  C
  H11      1.0000 0.72510  0.61870  0.84170  Biso   1.000  H
  C16      1.0000 0.83000  0.61310  0.03160  Biso   1.000  C
  H12      1.0000 0.82250  0.56970  0.06960  Biso   1.000  H
  C17      1.0000 0.89790  0.64570  0.11040  Biso   1.000  C
  C18      1.0000 0.90940  0.71030  0.05300  Biso   1.000  C
  H13      1.0000 0.95620  0.73280  0.10400  Biso   1.000  H
  C19      1.0000 0.85270  0.74140  0.92210  Biso   1.000  C
  H14      1.0000 0.86080  0.78500  0.88590  Biso   1.000  H
  C20      1.0000 0.96010  0.61280  0.25250  Biso   1.000  C
  Cu2      1.0000 0.62805  0.90777  0.42454  Biso   1.000  Cu
  N3       1.0000 0.65790  0.81742  0.52640  Biso   1.000  N
  N4       1.0000 0.72390  0.73960  0.70820  Biso   1.000  N
  O4       1.0000 0.03004  0.63027  0.27650  Biso   1.000  O
  O5       1.0000 0.93725  0.56743  0.34160  Biso   1.000  O
  O6       1.0000 0.73218  0.93915  0.53600  Biso   1.000  O
  C21      1.0000 0.88520  0.25840  0.50360  Biso   1.000  C
  H15      1.0000 0.93380  0.25260  0.58550  Biso   1.000  H
  C22      1.0000 0.84480  0.21040  0.39370  Biso   1.000  C
  H16      1.0000 0.86030  0.16570  0.38730  Biso   1.000  H
  C23      1.0000 0.77690  0.30440  0.34760  Biso   1.000  C
  H17      1.0000 0.73710  0.33570  0.30360  Biso   1.000  H
  C24      1.0000 0.71650  0.20770  0.15630  Biso   1.000  C
  C25      1.0000 0.72910  0.14220  0.10450  Biso   1.000  C
  H18      1.0000 0.77490  0.11870  0.15830  Biso   1.000  H
  C26      1.0000 0.67000  0.11310  0.96840  Biso   1.000  C
  H19      1.0000 0.67750  0.06970  0.93040  Biso   1.000  H
  C27      1.0000 0.60210  0.14570  0.88960  Biso   1.000  C
  C28      1.0000 0.59060  0.21030  0.94700  Biso   1.000  C
  H20      1.0000 0.54380  0.23280  0.89600  Biso   1.000  H
  C29      1.0000 0.64730  0.24140  0.07790  Biso   1.000  C
  H21      1.0000 0.63920  0.28500  0.11410  Biso   1.000  H
  C30      1.0000 0.53990  0.11280  0.74750  Biso   1.000  C
  Cu3      1.0000 0.87195  0.40777  0.57546  Biso   1.000  Cu
  N5       1.0000 0.84210  0.31742  0.47360  Biso   1.000  N
  N6       1.0000 0.77610  0.23960  0.29180  Biso   1.000  N
  O7       1.0000 0.46996  0.13027  0.72350  Biso   1.000  O
  O8       1.0000 0.56275  0.06743  0.65840  Biso   1.000  O
  O9       1.0000 0.76782  0.43915  0.46400  Biso   1.000  O
  C31      1.0000 0.38520  0.75840  0.50360  Biso   1.000  C
  H22      1.0000 0.43380  0.75260  0.58550  Biso   1.000  H
  C32      1.0000 0.34480  0.71040  0.39370  Biso   1.000  C
  H23      1.0000 0.36030  0.66570  0.38730  Biso   1.000  H
  C33      1.0000 0.27690  0.80440  0.34760  Biso   1.000  C
  H24      1.0000 0.23710  0.83570  0.30360  Biso   1.000  H
  C34      1.0000 0.21650  0.70770  0.15630  Biso   1.000  C
  C35      1.0000 0.22910  0.64220  0.10450  Biso   1.000  C
  H25      1.0000 0.27490  0.61870  0.15830  Biso   1.000  H
  C36      1.0000 0.17000  0.61310  0.96840  Biso   1.000  C
  H26      1.0000 0.17750  0.56970  0.93040  Biso   1.000  H
  C37      1.0000 0.10210  0.64570  0.88960  Biso   1.000  C
  C38      1.0000 0.09060  0.71030  0.94700  Biso   1.000  C
  H27      1.0000 0.04380  0.73280  0.89600  Biso   1.000  H
  C39      1.0000 0.14730  0.74140  0.07790  Biso   1.000  C
  H28      1.0000 0.13920  0.78500  0.11410  Biso   1.000  H
  C40      1.0000 0.03990  0.61280  0.74750  Biso   1.000  C
  Cu4      1.0000 0.37195  0.90777  0.57546  Biso   1.000  Cu
  N7       1.0000 0.34210  0.81742  0.47360  Biso   1.000  N
  N8       1.0000 0.27610  0.73960  0.29180  Biso   1.000  N
  O10      1.0000 0.96996  0.63027  0.72350  Biso   1.000  O
  O11      1.0000 0.06275  0.56743  0.65840  Biso   1.000  O
  O12      1.0000 0.26782  0.93915  0.46400  Biso   1.000  O
  C41      1.0000 0.88520  0.74160  0.50360  Biso   1.000  C
  H29      1.0000 0.93380  0.74740  0.58550  Biso   1.000  H
  C42      1.0000 0.84480  0.78960  0.39370  Biso   1.000  C
  H30      1.0000 0.86030  0.83430  0.38730  Biso   1.000  H
  C43      1.0000 0.77690  0.69560  0.34760  Biso   1.000  C
  H31      1.0000 0.73710  0.66430  0.30360  Biso   1.000  H
  C44      1.0000 0.71650  0.79230  0.15630  Biso   1.000  C
  C45      1.0000 0.72910  0.85780  0.10450  Biso   1.000  C
  H32      1.0000 0.77490  0.88130  0.15830  Biso   1.000  H
  C46      1.0000 0.67000  0.88690  0.96840  Biso   1.000  C
  H33      1.0000 0.67750  0.93030  0.93040  Biso   1.000  H
  C47      1.0000 0.60210  0.85430  0.88960  Biso   1.000  C
  C48      1.0000 0.59060  0.78970  0.94700  Biso   1.000  C
  H34      1.0000 0.54380  0.76720  0.89600  Biso   1.000  H
  C49      1.0000 0.64730  0.75860  0.07790  Biso   1.000  C
  H35      1.0000 0.63920  0.71500  0.11410  Biso   1.000  H
  C50      1.0000 0.53990  0.88720  0.74750  Biso   1.000  C
  Cu5      1.0000 0.87195  0.59223  0.57546  Biso   1.000  Cu
  N9       1.0000 0.84210  0.68258  0.47360  Biso   1.000  N
  N10      1.0000 0.77610  0.76040  0.29180  Biso   1.000  N
  O13      1.0000 0.46996  0.86973  0.72350  Biso   1.000  O
  O14      1.0000 0.56275  0.93257  0.65840  Biso   1.000  O
  O15      1.0000 0.76782  0.56085  0.46400  Biso   1.000  O
  C51      1.0000 0.38520  0.24160  0.50360  Biso   1.000  C
  H36      1.0000 0.43380  0.24740  0.58550  Biso   1.000  H
  C52      1.0000 0.34480  0.28960  0.39370  Biso   1.000  C
  H37      1.0000 0.36030  0.33430  0.38730  Biso   1.000  H
  C53      1.0000 0.27690  0.19560  0.34760  Biso   1.000  C
  H38      1.0000 0.23710  0.16430  0.30360  Biso   1.000  H
  C54      1.0000 0.21650  0.29230  0.15630  Biso   1.000  C
  C55      1.0000 0.22910  0.35780  0.10450  Biso   1.000  C
  H39      1.0000 0.27490  0.38130  0.15830  Biso   1.000  H
  C56      1.0000 0.17000  0.38690  0.96840  Biso   1.000  C
  H40      1.0000 0.17750  0.43030  0.93040  Biso   1.000  H
  C57      1.0000 0.10210  0.35430  0.88960  Biso   1.000  C
  C58      1.0000 0.09060  0.28970  0.94700  Biso   1.000  C
  H41      1.0000 0.04380  0.26720  0.89600  Biso   1.000  H
  C59      1.0000 0.14730  0.25860  0.07790  Biso   1.000  C
  H42      1.0000 0.13920  0.21500  0.11410  Biso   1.000  H
  C60      1.0000 0.03990  0.38720  0.74750  Biso   1.000  C
  Cu6      1.0000 0.37195  0.09223  0.57546  Biso   1.000  Cu
  N11      1.0000 0.34210  0.18258  0.47360  Biso   1.000  N
  N12      1.0000 0.27610  0.26040  0.29180  Biso   1.000  N
  O16      1.0000 0.96996  0.36973  0.72350  Biso   1.000  O
  O17      1.0000 0.06275  0.43257  0.65840  Biso   1.000  O
  O18      1.0000 0.26782  0.06085  0.46400  Biso   1.000  O
  C61      1.0000 0.11480  0.74160  0.49640  Biso   1.000  C
  H43      1.0000 0.06620  0.74740  0.41450  Biso   1.000  H
  C62      1.0000 0.15520  0.78960  0.60630  Biso   1.000  C
  H44      1.0000 0.13970  0.83430  0.61270  Biso   1.000  H
  C63      1.0000 0.22310  0.69560  0.65240  Biso   1.000  C
  H45      1.0000 0.26290  0.66430  0.69640  Biso   1.000  H
  C64      1.0000 0.28350  0.79230  0.84370  Biso   1.000  C
  C65      1.0000 0.27090  0.85780  0.89550  Biso   1.000  C
  H46      1.0000 0.22510  0.88130  0.84170  Biso   1.000  H
  C66      1.0000 0.33000  0.88690  0.03160  Biso   1.000  C
  H47      1.0000 0.32250  0.93030  0.06960  Biso   1.000  H
  C67      1.0000 0.39790  0.85430  0.11040  Biso   1.000  C
  C68      1.0000 0.40940  0.78970  0.05300  Biso   1.000  C
  H48      1.0000 0.45620  0.76720  0.10400  Biso   1.000  H
  C69      1.0000 0.35270  0.75860  0.92210  Biso   1.000  C
  H49      1.0000 0.36080  0.71500  0.88590  Biso   1.000  H
  C70      1.0000 0.46010  0.88720  0.25250  Biso   1.000  C
  Cu7      1.0000 0.12805  0.59223  0.42454  Biso   1.000  Cu
  N13      1.0000 0.15790  0.68258  0.52640  Biso   1.000  N
  N14      1.0000 0.22390  0.76040  0.70820  Biso   1.000  N
  O19      1.0000 0.53004  0.86973  0.27650  Biso   1.000  O
  O20      1.0000 0.43725  0.93257  0.34160  Biso   1.000  O
  O21      1.0000 0.23218  0.56085  0.53600  Biso   1.000  O
  C71      1.0000 0.61480  0.24160  0.49640  Biso   1.000  C
  H50      1.0000 0.56620  0.24740  0.41450  Biso   1.000  H
  C72      1.0000 0.65520  0.28960  0.60630  Biso   1.000  C
  H51      1.0000 0.63970  0.33430  0.61270  Biso   1.000  H
  C73      1.0000 0.72310  0.19560  0.65240  Biso   1.000  C
  H52      1.0000 0.76290  0.16430  0.69640  Biso   1.000  H
  C74      1.0000 0.78350  0.29230  0.84370  Biso   1.000  C
  C75      1.0000 0.77090  0.35780  0.89550  Biso   1.000  C
  H53      1.0000 0.72510  0.38130  0.84170  Biso   1.000  H
  C76      1.0000 0.83000  0.38690  0.03160  Biso   1.000  C
  H54      1.0000 0.82250  0.43030  0.06960  Biso   1.000  H
  C77      1.0000 0.89790  0.35430  0.11040  Biso   1.000  C
  C78      1.0000 0.90940  0.28970  0.05300  Biso   1.000  C
  H55      1.0000 0.95620  0.26720  0.10400  Biso   1.000  H
  C79      1.0000 0.85270  0.25860  0.92210  Biso   1.000  C
  H56      1.0000 0.86080  0.21500  0.88590  Biso   1.000  H
  C80      1.0000 0.96010  0.38720  0.25250  Biso   1.000  C
  Cu8      1.0000 0.62805  0.09223  0.42454  Biso   1.000  Cu
  N15      1.0000 0.65790  0.18258  0.52640  Biso   1.000  N
  N16      1.0000 0.72390  0.26040  0.70820  Biso   1.000  N
  O22      1.0000 0.03004  0.36973  0.27650  Biso   1.000  O
  O23      1.0000 0.93725  0.43257  0.34160  Biso   1.000  O
  O24      1.0000 0.73218  0.06085  0.53600  Biso   1.000  O
  Cu9      1.0000 0.50000  0.00000  0.50000  Biso   1.000  Cu
  Cu10     1.0000 0.00000  0.50000  0.50000  Biso   1.000  Cu
  N17      1.0000 0.41230  0.00000  0.68610  Biso   1.000  N
  N18      1.0000 0.44600  0.00000  0.85440  Biso   1.000  N
  N19      1.0000 0.91230  0.50000  0.68610  Biso   1.000  N
  N20      1.0000 0.94600  0.50000  0.85440  Biso   1.000  N
  N21      1.0000 0.58770  0.00000  0.31390  Biso   1.000  N
  N22      1.0000 0.55400  0.00000  0.14560  Biso   1.000  N
  N23      1.0000 0.08770  0.50000  0.31390  Biso   1.000  N
  N24      1.0000 0.05400  0.50000  0.14560  Biso   1.000  N
  N25      1.0000 0.02000  0.50000  0.98680  Biso   1.000  N
  N26      1.0000 0.52000  0.00000  0.98680  Biso   1.000  N
  N27      1.0000 0.98000  0.50000  0.01320  Biso   1.000  N
  N28      1.0000 0.48000  0.00000  0.01320  Biso   1.000  N
  O25      1.0000 0.27150  0.50000  0.31310  Biso   1.000  O
  O26      1.0000 0.35060  0.50000  0.61820  Biso   1.000  O
  S1       1.0000 0.27235  0.50000  0.50120  Biso   1.000  S
  O27      1.0000 0.77150  0.00000  0.31310  Biso   1.000  O
  O28      1.0000 0.85060  0.00000  0.61820  Biso   1.000  O
  S2       1.0000 0.77235  0.00000  0.50120  Biso   1.000  S
  O29      1.0000 0.72850  0.50000  0.68690  Biso   1.000  O
  O30      1.0000 0.64940  0.50000  0.38180  Biso   1.000  O
  S3       1.0000 0.72765  0.50000  0.49880  Biso   1.000  S
  O31      1.0000 0.22850  0.00000  0.68690  Biso   1.000  O
  O32      1.0000 0.14940  0.00000  0.38180  Biso   1.000  O
  S4       1.0000 0.22765  0.00000  0.49880  Biso   1.000  S
