data_image0
_cell_length_a       9.228
_cell_length_b       34.079
_cell_length_c       23.299
_cell_angle_alpha    90
_cell_angle_beta     90
_cell_angle_gamma    90

_symmetry_space_group_name_H-M    "P 1"
_symmetry_int_tables_number       1

loop_
  _symmetry_equiv_pos_as_xyz
  'x, y, z'

loop_
  _atom_site_label
  _atom_site_occupancy
  _atom_site_fract_x
  _atom_site_fract_y
  _atom_site_fract_z
  _atom_site_thermal_displace_type
  _atom_site_B_iso_or_equiv
  _atom_site_type_symbol
  C1       1.0000 0.00080  0.78170  0.41390  Biso   1.000  C
  H1       1.0000 0.94390  0.76620  0.43770  Biso   1.000  H
  C2       1.0000 0.93690  0.79920  0.36660  Biso   1.000  C
  H2       1.0000 0.83840  0.79570  0.35970  Biso   1.000  H
  C3       1.0000 0.01830  0.82142  0.32976  Biso   1.000  C
  C4       1.0000 0.16050  0.82640  0.34420  Biso   1.000  C
  H3       1.0000 0.21970  0.84180  0.32100  Biso   1.000  H
  C5       1.0000 0.21840  0.80890  0.39300  Biso   1.000  C
  H4       1.0000 0.31520  0.81320  0.40220  Biso   1.000  H
  C6       1.0000 0.95400  0.83847  0.27735  Biso   1.000  C
  H5       1.0000 0.85960  0.82640  0.26970  Biso   1.000  H
  C7       1.0000 0.94180  0.88465  0.27254  Biso   1.000  C
  H6       1.0000 0.84920  0.89130  0.25440  Biso   1.000  H
  C8       1.0000 0.95870  0.90925  0.32653  Biso   1.000  C
  C9       1.0000 0.85640  0.90920  0.36790  Biso   1.000  C
  H7       1.0000 0.77490  0.89340  0.36390  Biso   1.000  H
  C10      1.0000 0.87120  0.93200  0.41500  Biso   1.000  C
  H8       1.0000 0.79680  0.93210  0.44190  Biso   1.000  H
  C11      1.0000 0.07990  0.95460  0.38570  Biso   1.000  C
  H9       1.0000 0.16000  0.97070  0.39070  Biso   1.000  H
  C12      1.0000 0.07370  0.93300  0.33620  Biso   1.000  C
  H10      1.0000 0.14810  0.93460  0.30940  Biso   1.000  H
  N1       1.0000 0.13900  0.78625  0.42657  Biso   1.000  N
  N2       1.0000 0.98670  0.95437  0.42485  Biso   1.000  N
  C13      1.0000 0.50080  0.28170  0.41390  Biso   1.000  C
  H11      1.0000 0.44390  0.26620  0.43770  Biso   1.000  H
  C14      1.0000 0.43690  0.29920  0.36660  Biso   1.000  C
  H12      1.0000 0.33840  0.29570  0.35970  Biso   1.000  H
  C15      1.0000 0.51830  0.32142  0.32976  Biso   1.000  C
  C16      1.0000 0.66050  0.32640  0.34420  Biso   1.000  C
  H13      1.0000 0.71970  0.34180  0.32100  Biso   1.000  H
  C17      1.0000 0.71840  0.30890  0.39300  Biso   1.000  C
  H14      1.0000 0.81520  0.31320  0.40220  Biso   1.000  H
  C18      1.0000 0.45400  0.33847  0.27735  Biso   1.000  C
  H15      1.0000 0.35960  0.32640  0.26970  Biso   1.000  H
  C19      1.0000 0.44180  0.38465  0.27254  Biso   1.000  C
  H16      1.0000 0.34920  0.39130  0.25440  Biso   1.000  H
  C20      1.0000 0.45870  0.40925  0.32653  Biso   1.000  C
  C21      1.0000 0.35640  0.40920  0.36790  Biso   1.000  C
  H17      1.0000 0.27490  0.39340  0.36390  Biso   1.000  H
  C22      1.0000 0.37120  0.43200  0.41500  Biso   1.000  C
  H18      1.0000 0.29680  0.43210  0.44190  Biso   1.000  H
  C23      1.0000 0.57990  0.45460  0.38570  Biso   1.000  C
  H19      1.0000 0.66000  0.47070  0.39070  Biso   1.000  H
  C24      1.0000 0.57370  0.43300  0.33620  Biso   1.000  C
  H20      1.0000 0.64810  0.43460  0.30940  Biso   1.000  H
  N3       1.0000 0.63900  0.28625  0.42657  Biso   1.000  N
  N4       1.0000 0.48670  0.45437  0.42485  Biso   1.000  N
  C25      1.0000 0.99920  0.21830  0.41390  Biso   1.000  C
  H21      1.0000 0.05610  0.23380  0.43770  Biso   1.000  H
  C26      1.0000 0.06310  0.20080  0.36660  Biso   1.000  C
  H22      1.0000 0.16160  0.20430  0.35970  Biso   1.000  H
  C27      1.0000 0.98170  0.17858  0.32976  Biso   1.000  C
  C28      1.0000 0.83950  0.17360  0.34420  Biso   1.000  C
  H23      1.0000 0.78030  0.15820  0.32100  Biso   1.000  H
  C29      1.0000 0.78160  0.19110  0.39300  Biso   1.000  C
  H24      1.0000 0.68480  0.18680  0.40220  Biso   1.000  H
  C30      1.0000 0.04600  0.16153  0.27735  Biso   1.000  C
  H25      1.0000 0.14040  0.17360  0.26970  Biso   1.000  H
  C31      1.0000 0.05820  0.11535  0.27254  Biso   1.000  C
  H26      1.0000 0.15080  0.10870  0.25440  Biso   1.000  H
  C32      1.0000 0.04130  0.09075  0.32653  Biso   1.000  C
  C33      1.0000 0.14360  0.09080  0.36790  Biso   1.000  C
  H27      1.0000 0.22510  0.10660  0.36390  Biso   1.000  H
  C34      1.0000 0.12880  0.06800  0.41500  Biso   1.000  C
  H28      1.0000 0.20320  0.06790  0.44190  Biso   1.000  H
  C35      1.0000 0.92010  0.04540  0.38570  Biso   1.000  C
  H29      1.0000 0.84000  0.02930  0.39070  Biso   1.000  H
  C36      1.0000 0.92630  0.06700  0.33620  Biso   1.000  C
  H30      1.0000 0.85190  0.06540  0.30940  Biso   1.000  H
  N5       1.0000 0.86100  0.21375  0.42657  Biso   1.000  N
  N6       1.0000 0.01330  0.04563  0.42485  Biso   1.000  N
  C37      1.0000 0.49920  0.71830  0.41390  Biso   1.000  C
  H31      1.0000 0.55610  0.73380  0.43770  Biso   1.000  H
  C38      1.0000 0.56310  0.70080  0.36660  Biso   1.000  C
  H32      1.0000 0.66160  0.70430  0.35970  Biso   1.000  H
  C39      1.0000 0.48170  0.67858  0.32976  Biso   1.000  C
  C40      1.0000 0.33950  0.67360  0.34420  Biso   1.000  C
  H33      1.0000 0.28030  0.65820  0.32100  Biso   1.000  H
  C41      1.0000 0.28160  0.69110  0.39300  Biso   1.000  C
  H34      1.0000 0.18480  0.68680  0.40220  Biso   1.000  H
  C42      1.0000 0.54600  0.66153  0.27735  Biso   1.000  C
  H35      1.0000 0.64040  0.67360  0.26970  Biso   1.000  H
  C43      1.0000 0.55820  0.61535  0.27254  Biso   1.000  C
  H36      1.0000 0.65080  0.60870  0.25440  Biso   1.000  H
  C44      1.0000 0.54130  0.59075  0.32653  Biso   1.000  C
  C45      1.0000 0.64360  0.59080  0.36790  Biso   1.000  C
  H37      1.0000 0.72510  0.60660  0.36390  Biso   1.000  H
  C46      1.0000 0.62880  0.56800  0.41500  Biso   1.000  C
  H38      1.0000 0.70320  0.56790  0.44190  Biso   1.000  H
  C47      1.0000 0.42010  0.54540  0.38570  Biso   1.000  C
  H39      1.0000 0.34000  0.52930  0.39070  Biso   1.000  H
  C48      1.0000 0.42630  0.56700  0.33620  Biso   1.000  C
  H40      1.0000 0.35190  0.56540  0.30940  Biso   1.000  H
  N7       1.0000 0.36100  0.71375  0.42657  Biso   1.000  N
  N8       1.0000 0.51330  0.54563  0.42485  Biso   1.000  N
  C49      1.0000 0.99920  0.78170  0.08610  Biso   1.000  C
  H41      1.0000 0.05610  0.76620  0.06230  Biso   1.000  H
  C50      1.0000 0.06310  0.79920  0.13340  Biso   1.000  C
  H42      1.0000 0.16160  0.79570  0.14030  Biso   1.000  H
  C51      1.0000 0.98170  0.82142  0.17024  Biso   1.000  C
  C52      1.0000 0.83950  0.82640  0.15580  Biso   1.000  C
  H43      1.0000 0.78030  0.84180  0.17900  Biso   1.000  H
  C53      1.0000 0.78160  0.80890  0.10700  Biso   1.000  C
  H44      1.0000 0.68480  0.81320  0.09780  Biso   1.000  H
  C54      1.0000 0.04600  0.83847  0.22265  Biso   1.000  C
  H45      1.0000 0.14040  0.82640  0.23030  Biso   1.000  H
  C55      1.0000 0.05820  0.88465  0.22746  Biso   1.000  C
  H46      1.0000 0.15080  0.89130  0.24560  Biso   1.000  H
  C56      1.0000 0.04130  0.90925  0.17347  Biso   1.000  C
  C57      1.0000 0.14360  0.90920  0.13210  Biso   1.000  C
  H47      1.0000 0.22510  0.89340  0.13610  Biso   1.000  H
  C58      1.0000 0.12880  0.93200  0.08500  Biso   1.000  C
  H48      1.0000 0.20320  0.93210  0.05810  Biso   1.000  H
  C59      1.0000 0.92010  0.95460  0.11430  Biso   1.000  C
  H49      1.0000 0.84000  0.97070  0.10930  Biso   1.000  H
  C60      1.0000 0.92630  0.93300  0.16380  Biso   1.000  C
  H50      1.0000 0.85190  0.93460  0.19060  Biso   1.000  H
  N9       1.0000 0.86100  0.78625  0.07343  Biso   1.000  N
  N10      1.0000 0.01330  0.95437  0.07515  Biso   1.000  N
  C61      1.0000 0.49920  0.28170  0.08610  Biso   1.000  C
  H51      1.0000 0.55610  0.26620  0.06230  Biso   1.000  H
  C62      1.0000 0.56310  0.29920  0.13340  Biso   1.000  C
  H52      1.0000 0.66160  0.29570  0.14030  Biso   1.000  H
  C63      1.0000 0.48170  0.32142  0.17024  Biso   1.000  C
  C64      1.0000 0.33950  0.32640  0.15580  Biso   1.000  C
  H53      1.0000 0.28030  0.34180  0.17900  Biso   1.000  H
  C65      1.0000 0.28160  0.30890  0.10700  Biso   1.000  C
  H54      1.0000 0.18480  0.31320  0.09780  Biso   1.000  H
  C66      1.0000 0.54600  0.33847  0.22265  Biso   1.000  C
  H55      1.0000 0.64040  0.32640  0.23030  Biso   1.000  H
  C67      1.0000 0.55820  0.38465  0.22746  Biso   1.000  C
  H56      1.0000 0.65080  0.39130  0.24560  Biso   1.000  H
  C68      1.0000 0.54130  0.40925  0.17347  Biso   1.000  C
  C69      1.0000 0.64360  0.40920  0.13210  Biso   1.000  C
  H57      1.0000 0.72510  0.39340  0.13610  Biso   1.000  H
  C70      1.0000 0.62880  0.43200  0.08500  Biso   1.000  C
  H58      1.0000 0.70320  0.43210  0.05810  Biso   1.000  H
  C71      1.0000 0.42010  0.45460  0.11430  Biso   1.000  C
  H59      1.0000 0.34000  0.47070  0.10930  Biso   1.000  H
  C72      1.0000 0.42630  0.43300  0.16380  Biso   1.000  C
  H60      1.0000 0.35190  0.43460  0.19060  Biso   1.000  H
  N11      1.0000 0.36100  0.28625  0.07343  Biso   1.000  N
  N12      1.0000 0.51330  0.45437  0.07515  Biso   1.000  N
  C73      1.0000 0.00080  0.21830  0.08610  Biso   1.000  C
  H61      1.0000 0.94390  0.23380  0.06230  Biso   1.000  H
  C74      1.0000 0.93690  0.20080  0.13340  Biso   1.000  C
  H62      1.0000 0.83840  0.20430  0.14030  Biso   1.000  H
  C75      1.0000 0.01830  0.17858  0.17024  Biso   1.000  C
  C76      1.0000 0.16050  0.17360  0.15580  Biso   1.000  C
  H63      1.0000 0.21970  0.15820  0.17900  Biso   1.000  H
  C77      1.0000 0.21840  0.19110  0.10700  Biso   1.000  C
  H64      1.0000 0.31520  0.18680  0.09780  Biso   1.000  H
  C78      1.0000 0.95400  0.16153  0.22265  Biso   1.000  C
  H65      1.0000 0.85960  0.17360  0.23030  Biso   1.000  H
  C79      1.0000 0.94180  0.11535  0.22746  Biso   1.000  C
  H66      1.0000 0.84920  0.10870  0.24560  Biso   1.000  H
  C80      1.0000 0.95870  0.09075  0.17347  Biso   1.000  C
  C81      1.0000 0.85640  0.09080  0.13210  Biso   1.000  C
  H67      1.0000 0.77490  0.10660  0.13610  Biso   1.000  H
  C82      1.0000 0.87120  0.06800  0.08500  Biso   1.000  C
  H68      1.0000 0.79680  0.06790  0.05810  Biso   1.000  H
  C83      1.0000 0.07990  0.04540  0.11430  Biso   1.000  C
  H69      1.0000 0.16000  0.02930  0.10930  Biso   1.000  H
  C84      1.0000 0.07370  0.06700  0.16380  Biso   1.000  C
  H70      1.0000 0.14810  0.06540  0.19060  Biso   1.000  H
  N13      1.0000 0.13900  0.21375  0.07343  Biso   1.000  N
  N14      1.0000 0.98670  0.04563  0.07515  Biso   1.000  N
  C85      1.0000 0.50080  0.71830  0.08610  Biso   1.000  C
  H71      1.0000 0.44390  0.73380  0.06230  Biso   1.000  H
  C86      1.0000 0.43690  0.70080  0.13340  Biso   1.000  C
  H72      1.0000 0.33840  0.70430  0.14030  Biso   1.000  H
  C87      1.0000 0.51830  0.67858  0.17024  Biso   1.000  C
  C88      1.0000 0.66050  0.67360  0.15580  Biso   1.000  C
  H73      1.0000 0.71970  0.65820  0.17900  Biso   1.000  H
  C89      1.0000 0.71840  0.69110  0.10700  Biso   1.000  C
  H74      1.0000 0.81520  0.68680  0.09780  Biso   1.000  H
  C90      1.0000 0.45400  0.66153  0.22265  Biso   1.000  C
  H75      1.0000 0.35960  0.67360  0.23030  Biso   1.000  H
  C91      1.0000 0.44180  0.61535  0.22746  Biso   1.000  C
  H76      1.0000 0.34920  0.60870  0.24560  Biso   1.000  H
  C92      1.0000 0.45870  0.59075  0.17347  Biso   1.000  C
  C93      1.0000 0.35640  0.59080  0.13210  Biso   1.000  C
  H77      1.0000 0.27490  0.60660  0.13610  Biso   1.000  H
  C94      1.0000 0.37120  0.56800  0.08500  Biso   1.000  C
  H78      1.0000 0.29680  0.56790  0.05810  Biso   1.000  H
  C95      1.0000 0.57990  0.54540  0.11430  Biso   1.000  C
  H79      1.0000 0.66000  0.52930  0.10930  Biso   1.000  H
  C96      1.0000 0.57370  0.56700  0.16380  Biso   1.000  C
  H80      1.0000 0.64810  0.56540  0.19060  Biso   1.000  H
  N15      1.0000 0.63900  0.71375  0.07343  Biso   1.000  N
  N16      1.0000 0.48670  0.54563  0.07515  Biso   1.000  N
  C97      1.0000 0.99920  0.21830  0.58610  Biso   1.000  C
  H81      1.0000 0.05610  0.23380  0.56230  Biso   1.000  H
  C98      1.0000 0.06310  0.20080  0.63340  Biso   1.000  C
  H82      1.0000 0.16160  0.20430  0.64030  Biso   1.000  H
  C99      1.0000 0.98170  0.17858  0.67024  Biso   1.000  C
  C100     1.0000 0.83950  0.17360  0.65580  Biso   1.000  C
  H83      1.0000 0.78030  0.15820  0.67900  Biso   1.000  H
  C101     1.0000 0.78160  0.19110  0.60700  Biso   1.000  C
  H84      1.0000 0.68480  0.18680  0.59780  Biso   1.000  H
  C102     1.0000 0.04600  0.16153  0.72265  Biso   1.000  C
  H85      1.0000 0.14040  0.17360  0.73030  Biso   1.000  H
  C103     1.0000 0.05820  0.11535  0.72746  Biso   1.000  C
  H86      1.0000 0.15080  0.10870  0.74560  Biso   1.000  H
  C104     1.0000 0.04130  0.09075  0.67347  Biso   1.000  C
  C105     1.0000 0.14360  0.09080  0.63210  Biso   1.000  C
  H87      1.0000 0.22510  0.10660  0.63610  Biso   1.000  H
  C106     1.0000 0.12880  0.06800  0.58500  Biso   1.000  C
  H88      1.0000 0.20320  0.06790  0.55810  Biso   1.000  H
  C107     1.0000 0.92010  0.04540  0.61430  Biso   1.000  C
  H89      1.0000 0.84000  0.02930  0.60930  Biso   1.000  H
  C108     1.0000 0.92630  0.06700  0.66380  Biso   1.000  C
  H90      1.0000 0.85190  0.06540  0.69060  Biso   1.000  H
  N17      1.0000 0.86100  0.21375  0.57343  Biso   1.000  N
  N18      1.0000 0.01330  0.04563  0.57515  Biso   1.000  N
  C109     1.0000 0.49920  0.71830  0.58610  Biso   1.000  C
  H91      1.0000 0.55610  0.73380  0.56230  Biso   1.000  H
  C110     1.0000 0.56310  0.70080  0.63340  Biso   1.000  C
  H92      1.0000 0.66160  0.70430  0.64030  Biso   1.000  H
  C111     1.0000 0.48170  0.67858  0.67024  Biso   1.000  C
  C112     1.0000 0.33950  0.67360  0.65580  Biso   1.000  C
  H93      1.0000 0.28030  0.65820  0.67900  Biso   1.000  H
  C113     1.0000 0.28160  0.69110  0.60700  Biso   1.000  C
  H94      1.0000 0.18480  0.68680  0.59780  Biso   1.000  H
  C114     1.0000 0.54600  0.66153  0.72265  Biso   1.000  C
  H95      1.0000 0.64040  0.67360  0.73030  Biso   1.000  H
  C115     1.0000 0.55820  0.61535  0.72746  Biso   1.000  C
  H96      1.0000 0.65080  0.60870  0.74560  Biso   1.000  H
  C116     1.0000 0.54130  0.59075  0.67347  Biso   1.000  C
  C117     1.0000 0.64360  0.59080  0.63210  Biso   1.000  C
  H97      1.0000 0.72510  0.60660  0.63610  Biso   1.000  H
  C118     1.0000 0.62880  0.56800  0.58500  Biso   1.000  C
  H98      1.0000 0.70320  0.56790  0.55810  Biso   1.000  H
  C119     1.0000 0.42010  0.54540  0.61430  Biso   1.000  C
  H99      1.0000 0.34000  0.52930  0.60930  Biso   1.000  H
  C120     1.0000 0.42630  0.56700  0.66380  Biso   1.000  C
  H100     1.0000 0.35190  0.56540  0.69060  Biso   1.000  H
  N19      1.0000 0.36100  0.71375  0.57343  Biso   1.000  N
  N20      1.0000 0.51330  0.54563  0.57515  Biso   1.000  N
  C121     1.0000 0.00080  0.78170  0.58610  Biso   1.000  C
  H101     1.0000 0.94390  0.76620  0.56230  Biso   1.000  H
  C122     1.0000 0.93690  0.79920  0.63340  Biso   1.000  C
  H102     1.0000 0.83840  0.79570  0.64030  Biso   1.000  H
  C123     1.0000 0.01830  0.82142  0.67024  Biso   1.000  C
  C124     1.0000 0.16050  0.82640  0.65580  Biso   1.000  C
  H103     1.0000 0.21970  0.84180  0.67900  Biso   1.000  H
  C125     1.0000 0.21840  0.80890  0.60700  Biso   1.000  C
  H104     1.0000 0.31520  0.81320  0.59780  Biso   1.000  H
  C126     1.0000 0.95400  0.83847  0.72265  Biso   1.000  C
  H105     1.0000 0.85960  0.82640  0.73030  Biso   1.000  H
  C127     1.0000 0.94180  0.88465  0.72746  Biso   1.000  C
  H106     1.0000 0.84920  0.89130  0.74560  Biso   1.000  H
  C128     1.0000 0.95870  0.90925  0.67347  Biso   1.000  C
  C129     1.0000 0.85640  0.90920  0.63210  Biso   1.000  C
  H107     1.0000 0.77490  0.89340  0.63610  Biso   1.000  H
  C130     1.0000 0.87120  0.93200  0.58500  Biso   1.000  C
  H108     1.0000 0.79680  0.93210  0.55810  Biso   1.000  H
  C131     1.0000 0.07990  0.95460  0.61430  Biso   1.000  C
  H109     1.0000 0.16000  0.97070  0.60930  Biso   1.000  H
  C132     1.0000 0.07370  0.93300  0.66380  Biso   1.000  C
  H110     1.0000 0.14810  0.93460  0.69060  Biso   1.000  H
  N21      1.0000 0.13900  0.78625  0.57343  Biso   1.000  N
  N22      1.0000 0.98670  0.95437  0.57515  Biso   1.000  N
  C133     1.0000 0.50080  0.28170  0.58610  Biso   1.000  C
  H111     1.0000 0.44390  0.26620  0.56230  Biso   1.000  H
  C134     1.0000 0.43690  0.29920  0.63340  Biso   1.000  C
  H112     1.0000 0.33840  0.29570  0.64030  Biso   1.000  H
  C135     1.0000 0.51830  0.32142  0.67024  Biso   1.000  C
  C136     1.0000 0.66050  0.32640  0.65580  Biso   1.000  C
  H113     1.0000 0.71970  0.34180  0.67900  Biso   1.000  H
  C137     1.0000 0.71840  0.30890  0.60700  Biso   1.000  C
  H114     1.0000 0.81520  0.31320  0.59780  Biso   1.000  H
  C138     1.0000 0.45400  0.33847  0.72265  Biso   1.000  C
  H115     1.0000 0.35960  0.32640  0.73030  Biso   1.000  H
  C139     1.0000 0.44180  0.38465  0.72746  Biso   1.000  C
  H116     1.0000 0.34920  0.39130  0.74560  Biso   1.000  H
  C140     1.0000 0.45870  0.40925  0.67347  Biso   1.000  C
  C141     1.0000 0.35640  0.40920  0.63210  Biso   1.000  C
  H117     1.0000 0.27490  0.39340  0.63610  Biso   1.000  H
  C142     1.0000 0.37120  0.43200  0.58500  Biso   1.000  C
  H118     1.0000 0.29680  0.43210  0.55810  Biso   1.000  H
  C143     1.0000 0.57990  0.45460  0.61430  Biso   1.000  C
  H119     1.0000 0.66000  0.47070  0.60930  Biso   1.000  H
  C144     1.0000 0.57370  0.43300  0.66380  Biso   1.000  C
  H120     1.0000 0.64810  0.43460  0.69060  Biso   1.000  H
  N23      1.0000 0.63900  0.28625  0.57343  Biso   1.000  N
  N24      1.0000 0.48670  0.45437  0.57515  Biso   1.000  N
  C145     1.0000 0.00080  0.21830  0.91390  Biso   1.000  C
  H121     1.0000 0.94390  0.23380  0.93770  Biso   1.000  H
  C146     1.0000 0.93690  0.20080  0.86660  Biso   1.000  C
  H122     1.0000 0.83840  0.20430  0.85970  Biso   1.000  H
  C147     1.0000 0.01830  0.17858  0.82976  Biso   1.000  C
  C148     1.0000 0.16050  0.17360  0.84420  Biso   1.000  C
  H123     1.0000 0.21970  0.15820  0.82100  Biso   1.000  H
  C149     1.0000 0.21840  0.19110  0.89300  Biso   1.000  C
  H124     1.0000 0.31520  0.18680  0.90220  Biso   1.000  H
  C150     1.0000 0.95400  0.16153  0.77735  Biso   1.000  C
  H125     1.0000 0.85960  0.17360  0.76970  Biso   1.000  H
  C151     1.0000 0.94180  0.11535  0.77254  Biso   1.000  C
  H126     1.0000 0.84920  0.10870  0.75440  Biso   1.000  H
  C152     1.0000 0.95870  0.09075  0.82653  Biso   1.000  C
  C153     1.0000 0.85640  0.09080  0.86790  Biso   1.000  C
  H127     1.0000 0.77490  0.10660  0.86390  Biso   1.000  H
  C154     1.0000 0.87120  0.06800  0.91500  Biso   1.000  C
  H128     1.0000 0.79680  0.06790  0.94190  Biso   1.000  H
  C155     1.0000 0.07990  0.04540  0.88570  Biso   1.000  C
  H129     1.0000 0.16000  0.02930  0.89070  Biso   1.000  H
  C156     1.0000 0.07370  0.06700  0.83620  Biso   1.000  C
  H130     1.0000 0.14810  0.06540  0.80940  Biso   1.000  H
  N25      1.0000 0.13900  0.21375  0.92657  Biso   1.000  N
  N26      1.0000 0.98670  0.04563  0.92485  Biso   1.000  N
  C157     1.0000 0.50080  0.71830  0.91390  Biso   1.000  C
  H131     1.0000 0.44390  0.73380  0.93770  Biso   1.000  H
  C158     1.0000 0.43690  0.70080  0.86660  Biso   1.000  C
  H132     1.0000 0.33840  0.70430  0.85970  Biso   1.000  H
  C159     1.0000 0.51830  0.67858  0.82976  Biso   1.000  C
  C160     1.0000 0.66050  0.67360  0.84420  Biso   1.000  C
  H133     1.0000 0.71970  0.65820  0.82100  Biso   1.000  H
  C161     1.0000 0.71840  0.69110  0.89300  Biso   1.000  C
  H134     1.0000 0.81520  0.68680  0.90220  Biso   1.000  H
  C162     1.0000 0.45400  0.66153  0.77735  Biso   1.000  C
  H135     1.0000 0.35960  0.67360  0.76970  Biso   1.000  H
  C163     1.0000 0.44180  0.61535  0.77254  Biso   1.000  C
  H136     1.0000 0.34920  0.60870  0.75440  Biso   1.000  H
  C164     1.0000 0.45870  0.59075  0.82653  Biso   1.000  C
  C165     1.0000 0.35640  0.59080  0.86790  Biso   1.000  C
  H137     1.0000 0.27490  0.60660  0.86390  Biso   1.000  H
  C166     1.0000 0.37120  0.56800  0.91500  Biso   1.000  C
  H138     1.0000 0.29680  0.56790  0.94190  Biso   1.000  H
  C167     1.0000 0.57990  0.54540  0.88570  Biso   1.000  C
  H139     1.0000 0.66000  0.52930  0.89070  Biso   1.000  H
  C168     1.0000 0.57370  0.56700  0.83620  Biso   1.000  C
  H140     1.0000 0.64810  0.56540  0.80940  Biso   1.000  H
  N27      1.0000 0.63900  0.71375  0.92657  Biso   1.000  N
  N28      1.0000 0.48670  0.54563  0.92485  Biso   1.000  N
  C169     1.0000 0.99920  0.78170  0.91390  Biso   1.000  C
  H141     1.0000 0.05610  0.76620  0.93770  Biso   1.000  H
  C170     1.0000 0.06310  0.79920  0.86660  Biso   1.000  C
  H142     1.0000 0.16160  0.79570  0.85970  Biso   1.000  H
  C171     1.0000 0.98170  0.82142  0.82976  Biso   1.000  C
  C172     1.0000 0.83950  0.82640  0.84420  Biso   1.000  C
  H143     1.0000 0.78030  0.84180  0.82100  Biso   1.000  H
  C173     1.0000 0.78160  0.80890  0.89300  Biso   1.000  C
  H144     1.0000 0.68480  0.81320  0.90220  Biso   1.000  H
  C174     1.0000 0.04600  0.83847  0.77735  Biso   1.000  C
  H145     1.0000 0.14040  0.82640  0.76970  Biso   1.000  H
  C175     1.0000 0.05820  0.88465  0.77254  Biso   1.000  C
  H146     1.0000 0.15080  0.89130  0.75440  Biso   1.000  H
  C176     1.0000 0.04130  0.90925  0.82653  Biso   1.000  C
  C177     1.0000 0.14360  0.90920  0.86790  Biso   1.000  C
  H147     1.0000 0.22510  0.89340  0.86390  Biso   1.000  H
  C178     1.0000 0.12880  0.93200  0.91500  Biso   1.000  C
  H148     1.0000 0.20320  0.93210  0.94190  Biso   1.000  H
  C179     1.0000 0.92010  0.95460  0.88570  Biso   1.000  C
  H149     1.0000 0.84000  0.97070  0.89070  Biso   1.000  H
  C180     1.0000 0.92630  0.93300  0.83620  Biso   1.000  C
  H150     1.0000 0.85190  0.93460  0.80940  Biso   1.000  H
  N29      1.0000 0.86100  0.78625  0.92657  Biso   1.000  N
  N30      1.0000 0.01330  0.95437  0.92485  Biso   1.000  N
  C181     1.0000 0.49920  0.28170  0.91390  Biso   1.000  C
  H151     1.0000 0.55610  0.26620  0.93770  Biso   1.000  H
  C182     1.0000 0.56310  0.29920  0.86660  Biso   1.000  C
  H152     1.0000 0.66160  0.29570  0.85970  Biso   1.000  H
  C183     1.0000 0.48170  0.32142  0.82976  Biso   1.000  C
  C184     1.0000 0.33950  0.32640  0.84420  Biso   1.000  C
  H153     1.0000 0.28030  0.34180  0.82100  Biso   1.000  H
  C185     1.0000 0.28160  0.30890  0.89300  Biso   1.000  C
  H154     1.0000 0.18480  0.31320  0.90220  Biso   1.000  H
  C186     1.0000 0.54600  0.33847  0.77735  Biso   1.000  C
  H155     1.0000 0.64040  0.32640  0.76970  Biso   1.000  H
  C187     1.0000 0.55820  0.38465  0.77254  Biso   1.000  C
  H156     1.0000 0.65080  0.39130  0.75440  Biso   1.000  H
  C188     1.0000 0.54130  0.40925  0.82653  Biso   1.000  C
  C189     1.0000 0.64360  0.40920  0.86790  Biso   1.000  C
  H157     1.0000 0.72510  0.39340  0.86390  Biso   1.000  H
  C190     1.0000 0.62880  0.43200  0.91500  Biso   1.000  C
  H158     1.0000 0.70320  0.43210  0.94190  Biso   1.000  H
  C191     1.0000 0.42010  0.45460  0.88570  Biso   1.000  C
  H159     1.0000 0.34000  0.47070  0.89070  Biso   1.000  H
  C192     1.0000 0.42630  0.43300  0.83620  Biso   1.000  C
  H160     1.0000 0.35190  0.43460  0.80940  Biso   1.000  H
  N31      1.0000 0.36100  0.28625  0.92657  Biso   1.000  N
  N32      1.0000 0.51330  0.45437  0.92485  Biso   1.000  N
  Cd1      1.0000 0.25000  0.75000  0.50000  Biso   1.000  Cd
  Cd2      1.0000 0.75000  0.25000  0.50000  Biso   1.000  Cd
  Cd3      1.0000 0.75000  0.75000  0.00000  Biso   1.000  Cd
  Cd4      1.0000 0.25000  0.25000  0.00000  Biso   1.000  Cd
  Cd5      1.0000 0.00000  0.00000  0.50000  Biso   1.000  Cd
  Cd6      1.0000 0.50000  0.50000  0.50000  Biso   1.000  Cd
  Cd7      1.0000 0.00000  0.00000  0.00000  Biso   1.000  Cd
  Cd8      1.0000 0.50000  0.50000  0.00000  Biso   1.000  Cd
