data_image0
_cell_length_a       7.8161
_cell_length_b       21.283
_cell_length_c       8.3419
_cell_angle_alpha    90
_cell_angle_beta     90
_cell_angle_gamma    90

_symmetry_space_group_name_H-M    "P 1"
_symmetry_int_tables_number       1

loop_
  _symmetry_equiv_pos_as_xyz
  'x, y, z'

loop_
  _atom_site_label
  _atom_site_occupancy
  _atom_site_fract_x
  _atom_site_fract_y
  _atom_site_fract_z
  _atom_site_thermal_displace_type
  _atom_site_B_iso_or_equiv
  _atom_site_type_symbol
  N1       1.0000 0.11910  0.07560  0.41800  Biso   1.000  N
  H1       1.0000 0.38800  0.22800  0.37600  Biso   1.000  H
  C1       1.0000 0.19140  0.12760  0.36940  Biso   1.000  C
  H2       1.0000 0.20800  0.13980  0.26220  Biso   1.000  H
  N2       1.0000 0.61910  0.57560  0.41800  Biso   1.000  N
  H3       1.0000 0.88800  0.72800  0.37600  Biso   1.000  H
  C2       1.0000 0.69140  0.62760  0.36940  Biso   1.000  C
  H4       1.0000 0.70800  0.63980  0.26220  Biso   1.000  H
  N3       1.0000 0.88090  0.92440  0.41800  Biso   1.000  N
  H5       1.0000 0.61200  0.77200  0.37600  Biso   1.000  H
  C3       1.0000 0.80860  0.87240  0.36940  Biso   1.000  C
  H6       1.0000 0.79200  0.86020  0.26220  Biso   1.000  H
  N4       1.0000 0.38090  0.42440  0.41800  Biso   1.000  N
  H7       1.0000 0.11200  0.27200  0.37600  Biso   1.000  H
  C4       1.0000 0.30860  0.37240  0.36940  Biso   1.000  C
  H8       1.0000 0.29200  0.36020  0.26220  Biso   1.000  H
  N5       1.0000 0.88090  0.07560  0.08200  Biso   1.000  N
  H9       1.0000 0.61200  0.22800  0.12400  Biso   1.000  H
  C5       1.0000 0.80860  0.12760  0.13060  Biso   1.000  C
  H10      1.0000 0.79200  0.13980  0.23780  Biso   1.000  H
  N6       1.0000 0.38090  0.57560  0.08200  Biso   1.000  N
  H11      1.0000 0.11200  0.72800  0.12400  Biso   1.000  H
  C6       1.0000 0.30860  0.62760  0.13060  Biso   1.000  C
  H12      1.0000 0.29200  0.63980  0.23780  Biso   1.000  H
  N7       1.0000 0.11910  0.92440  0.08200  Biso   1.000  N
  H13      1.0000 0.38800  0.77200  0.12400  Biso   1.000  H
  C7       1.0000 0.19140  0.87240  0.13060  Biso   1.000  C
  H14      1.0000 0.20800  0.86020  0.23780  Biso   1.000  H
  N8       1.0000 0.61910  0.42440  0.08200  Biso   1.000  N
  H15      1.0000 0.88800  0.27200  0.12400  Biso   1.000  H
  C8       1.0000 0.69140  0.37240  0.13060  Biso   1.000  C
  H16      1.0000 0.70800  0.36020  0.23780  Biso   1.000  H
  N9       1.0000 0.88090  0.92440  0.58200  Biso   1.000  N
  H17      1.0000 0.61200  0.77200  0.62400  Biso   1.000  H
  C9       1.0000 0.80860  0.87240  0.63060  Biso   1.000  C
  H18      1.0000 0.79200  0.86020  0.73780  Biso   1.000  H
  N10      1.0000 0.38090  0.42440  0.58200  Biso   1.000  N
  H19      1.0000 0.11200  0.27200  0.62400  Biso   1.000  H
  C10      1.0000 0.30860  0.37240  0.63060  Biso   1.000  C
  H20      1.0000 0.29200  0.36020  0.73780  Biso   1.000  H
  N11      1.0000 0.11910  0.07560  0.58200  Biso   1.000  N
  H21      1.0000 0.38800  0.22800  0.62400  Biso   1.000  H
  C11      1.0000 0.19140  0.12760  0.63060  Biso   1.000  C
  H22      1.0000 0.20800  0.13980  0.73780  Biso   1.000  H
  N12      1.0000 0.61910  0.57560  0.58200  Biso   1.000  N
  H23      1.0000 0.88800  0.72800  0.62400  Biso   1.000  H
  C12      1.0000 0.69140  0.62760  0.63060  Biso   1.000  C
  H24      1.0000 0.70800  0.63980  0.73780  Biso   1.000  H
  N13      1.0000 0.11910  0.92440  0.91800  Biso   1.000  N
  H25      1.0000 0.38800  0.77200  0.87600  Biso   1.000  H
  C13      1.0000 0.19140  0.87240  0.86940  Biso   1.000  C
  H26      1.0000 0.20800  0.86020  0.76220  Biso   1.000  H
  N14      1.0000 0.61910  0.42440  0.91800  Biso   1.000  N
  H27      1.0000 0.88800  0.27200  0.87600  Biso   1.000  H
  C14      1.0000 0.69140  0.37240  0.86940  Biso   1.000  C
  H28      1.0000 0.70800  0.36020  0.76220  Biso   1.000  H
  N15      1.0000 0.88090  0.07560  0.91800  Biso   1.000  N
  H29      1.0000 0.61200  0.22800  0.87600  Biso   1.000  H
  C15      1.0000 0.80860  0.12760  0.86940  Biso   1.000  C
  H30      1.0000 0.79200  0.13980  0.76220  Biso   1.000  H
  N16      1.0000 0.38090  0.57560  0.91800  Biso   1.000  N
  H31      1.0000 0.11200  0.72800  0.87600  Biso   1.000  H
  C16      1.0000 0.30860  0.62760  0.86940  Biso   1.000  C
  H32      1.0000 0.29200  0.63980  0.76220  Biso   1.000  H
  Ag1      1.0000 0.00000  0.00000  0.25000  Biso   1.000  Ag
  Ag2      1.0000 0.50000  0.50000  0.25000  Biso   1.000  Ag
  Ag3      1.0000 0.00000  0.00000  0.75000  Biso   1.000  Ag
  Ag4      1.0000 0.50000  0.50000  0.75000  Biso   1.000  Ag
  N17      1.0000 0.23800  0.16080  0.50000  Biso   1.000  N
  C17      1.0000 0.31860  0.22460  0.50000  Biso   1.000  C
  N18      1.0000 0.73800  0.66080  0.50000  Biso   1.000  N
  C18      1.0000 0.81860  0.72460  0.50000  Biso   1.000  C
  N19      1.0000 0.76200  0.83920  0.50000  Biso   1.000  N
  C19      1.0000 0.68140  0.77540  0.50000  Biso   1.000  C
  N20      1.0000 0.26200  0.33920  0.50000  Biso   1.000  N
  C20      1.0000 0.18140  0.27540  0.50000  Biso   1.000  C
  N21      1.0000 0.76200  0.16080  0.00000  Biso   1.000  N
  C21      1.0000 0.68140  0.22460  0.00000  Biso   1.000  C
  N22      1.0000 0.26200  0.66080  0.00000  Biso   1.000  N
  C22      1.0000 0.18140  0.72460  0.00000  Biso   1.000  C
  N23      1.0000 0.23800  0.83920  0.00000  Biso   1.000  N
  C23      1.0000 0.31860  0.77540  0.00000  Biso   1.000  C
  N24      1.0000 0.73800  0.33920  0.00000  Biso   1.000  N
  C24      1.0000 0.81860  0.27540  0.00000  Biso   1.000  C
