data_UZUNAF01_clean
_audit_creation_date              2014-07-02
_audit_creation_method            'Materials Studio'
_symmetry_space_group_name_H-M    'P1'
_symmetry_Int_Tables_number       1
_symmetry_cell_setting            triclinic
loop_
_symmetry_equiv_pos_as_xyz
  x,y,z
_cell_length_a                    8.6410
_cell_length_b                    13.1530
_cell_length_c                    15.3018
_cell_angle_alpha                 115.4540
_cell_angle_beta                  94.9647
_cell_angle_gamma                 90.0000
loop_
_atom_site_label
_atom_site_type_symbol
_atom_site_fract_x
_atom_site_fract_y
_atom_site_fract_z
_atom_site_U_iso_or_equiv
_atom_site_adp_type
_atom_site_occupancy
Cu1    Cu    0.03810   0.91487   0.42096   0.01267  Uiso   1.00
Cu2    Cu    0.46190   0.49391   0.57904   0.01267  Uiso   1.00
Cu3    Cu    0.96190   0.08513   0.57904   0.01267  Uiso   1.00
Cu4    Cu    0.53810   0.50609   0.42096   0.01267  Uiso   1.00
H1     H     0.17630   0.86410   0.22700   0.01267  Uiso   1.00
H2     H     0.31770   0.73580   0.11500   0.01267  Uiso   1.00
H3     H     0.27370   0.53490   0.24520   0.01267  Uiso   1.00
H4     H     0.13070   0.66820   0.35380   0.01267  Uiso   1.00
H5     H     0.40390   0.46180   0.09680   0.01267  Uiso   1.00
H6     H     0.49370   0.92470   0.38320   0.01267  Uiso   1.00
H7     H     0.56820   0.94050   0.29980   0.01267  Uiso   1.00
H8     H     0.39470   0.08570   0.37160   0.01267  Uiso   1.00
H9     H     0.48890   0.12230   0.47340   0.01267  Uiso   1.00
H10    H     0.70700   0.16650   0.40740   0.01267  Uiso   1.00
H11    H     0.59800   0.14390   0.31340   0.01267  Uiso   1.00
H12    H     0.32370   0.63710   0.77300   0.01267  Uiso   1.00
H13    H     0.18230   0.62080   0.88500   0.01267  Uiso   1.00
H14    H     0.22630   0.28970   0.75480   0.01267  Uiso   1.00
H15    H     0.36930   0.31440   0.64620   0.01267  Uiso   1.00
H16    H     0.09610   0.36500   0.90320   0.01267  Uiso   1.00
H17    H     0.00630   0.54150   0.61680   0.01267  Uiso   1.00
H18    H     0.93180   0.64070   0.70020   0.01267  Uiso   1.00
H19    H     0.10530   0.71410   0.62840   0.01267  Uiso   1.00
H20    H     0.01110   0.64890   0.52660   0.01267  Uiso   1.00
H21    H     0.79300   0.75910   0.59260   0.01267  Uiso   1.00
H22    H     0.90200   0.83050   0.68660   0.01267  Uiso   1.00
H23    H     0.82370   0.13590   0.77300   0.01267  Uiso   1.00
H24    H     0.68230   0.26420   0.88500   0.01267  Uiso   1.00
H25    H     0.72630   0.46510   0.75480   0.01267  Uiso   1.00
H26    H     0.86930   0.33180   0.64620   0.01267  Uiso   1.00
H27    H     0.59610   0.53820   0.90320   0.01267  Uiso   1.00
H28    H     0.50630   0.07530   0.61680   0.01267  Uiso   1.00
H29    H     0.43180   0.05950   0.70020   0.01267  Uiso   1.00
H30    H     0.60530   0.91430   0.62840   0.01267  Uiso   1.00
H31    H     0.51110   0.87770   0.52660   0.01267  Uiso   1.00
H32    H     0.29300   0.83350   0.59260   0.01267  Uiso   1.00
H33    H     0.40200   0.85610   0.68660   0.01267  Uiso   1.00
H34    H     0.67630   0.36290   0.22700   0.01267  Uiso   1.00
H35    H     0.81770   0.37920   0.11500   0.01267  Uiso   1.00
H36    H     0.77370   0.71030   0.24520   0.01267  Uiso   1.00
H37    H     0.63070   0.68560   0.35380   0.01267  Uiso   1.00
H38    H     0.90390   0.63500   0.09680   0.01267  Uiso   1.00
H39    H     0.99370   0.45850   0.38320   0.01267  Uiso   1.00
H40    H     0.06820   0.35930   0.29980   0.01267  Uiso   1.00
H41    H     0.89470   0.28590   0.37160   0.01267  Uiso   1.00
H42    H     0.98890   0.35110   0.47340   0.01267  Uiso   1.00
H43    H     0.20700   0.24090   0.40740   0.01267  Uiso   1.00
H44    H     0.09800   0.16950   0.31340   0.01267  Uiso   1.00
C1     C     0.19620   0.79670   0.23100   0.01267  Uiso   1.00
C2     C     0.28050   0.72000   0.16340   0.01267  Uiso   1.00
C3     C     0.31050   0.61947   0.16674   0.01267  Uiso   1.00
C4     C     0.25450   0.60168   0.23976   0.01267  Uiso   1.00
C5     C     0.16980   0.68240   0.30520   0.01267  Uiso   1.00
C6     C     0.39670   0.53170   0.09540   0.01267  Uiso   1.00
C7     C     0.72450   0.97490   0.41880   0.01267  Uiso   1.00
C8     C     0.56350   0.97270   0.36960   0.01267  Uiso   1.00
C9     C     0.49790   0.09140   0.40420   0.01267  Uiso   1.00
C10    C     0.60080   0.17050   0.38320   0.01267  Uiso   1.00
C11    C     0.05720   0.13410   0.42700   0.01267  Uiso   1.00
C12    C     0.30380   0.56570   0.76900   0.01267  Uiso   1.00
C13    C     0.21950   0.55660   0.83660   0.01267  Uiso   1.00
C14    C     0.18950   0.45273   0.83326   0.01267  Uiso   1.00
C15    C     0.24550   0.36192   0.76024   0.01267  Uiso   1.00
C16    C     0.33020   0.37720   0.69480   0.01267  Uiso   1.00
C17    C     0.10330   0.43630   0.90460   0.01267  Uiso   1.00
C18    C     0.77550   0.55610   0.58120   0.01267  Uiso   1.00
C19    C     0.93650   0.60310   0.63040   0.01267  Uiso   1.00
C20    C     0.00210   0.68720   0.59580   0.01267  Uiso   1.00
C21    C     0.89920   0.78730   0.61680   0.01267  Uiso   1.00
C22    C     0.44280   0.70710   0.57300   0.01267  Uiso   1.00
C23    C     0.80380   0.20330   0.76900   0.01267  Uiso   1.00
C24    C     0.71950   0.28000   0.83660   0.01267  Uiso   1.00
C25    C     0.68950   0.38053   0.83326   0.01267  Uiso   1.00
C26    C     0.74550   0.39832   0.76024   0.01267  Uiso   1.00
C27    C     0.83020   0.31760   0.69480   0.01267  Uiso   1.00
C28    C     0.60330   0.46830   0.90460   0.01267  Uiso   1.00
C29    C     0.27550   0.02510   0.58120   0.01267  Uiso   1.00
C30    C     0.43650   0.02730   0.63040   0.01267  Uiso   1.00
C31    C     0.50210   0.90860   0.59580   0.01267  Uiso   1.00
C32    C     0.39920   0.82950   0.61680   0.01267  Uiso   1.00
C33    C     0.94280   0.86590   0.57300   0.01267  Uiso   1.00
C34    C     0.69620   0.43430   0.23100   0.01267  Uiso   1.00
C35    C     0.78050   0.44340   0.16340   0.01267  Uiso   1.00
C36    C     0.81050   0.54727   0.16674   0.01267  Uiso   1.00
C37    C     0.75450   0.63808   0.23976   0.01267  Uiso   1.00
C38    C     0.66980   0.62280   0.30520   0.01267  Uiso   1.00
C39    C     0.89670   0.56370   0.09540   0.01267  Uiso   1.00
C40    C     0.22450   0.44390   0.41880   0.01267  Uiso   1.00
C41    C     0.06350   0.39690   0.36960   0.01267  Uiso   1.00
C42    C     0.99790   0.31280   0.40420   0.01267  Uiso   1.00
C43    C     0.10080   0.21270   0.38320   0.01267  Uiso   1.00
C44    C     0.55720   0.29290   0.42700   0.01267  Uiso   1.00
N1     N     0.14110   0.78022   0.30204   0.01267  Uiso   1.00
N2     N     0.46240   0.54900   0.03080   0.01267  Uiso   1.00
N3     N     0.35890   0.47818   0.69796   0.01267  Uiso   1.00
N4     N     0.03760   0.51820   0.96920   0.01267  Uiso   1.00
N5     N     0.85890   0.21978   0.69796   0.01267  Uiso   1.00
N6     N     0.53760   0.45100   0.96920   0.01267  Uiso   1.00
N7     N     0.64110   0.52182   0.30204   0.01267  Uiso   1.00
N8     N     0.96240   0.48180   0.03080   0.01267  Uiso   1.00
O1     O     0.81880   0.90549   0.36818   0.01267  Uiso   1.00
O2     O     0.07410   0.03110   0.37540   0.01267  Uiso   1.00
O3     O     0.75600   0.04641   0.50422   0.01267  Uiso   1.00
O4     O     0.01310   0.17517   0.50934   0.01267  Uiso   1.00
O5     O     0.68120   0.53731   0.63182   0.01267  Uiso   1.00
O6     O     0.42590   0.65570   0.62460   0.01267  Uiso   1.00
O7     O     0.74400   0.54219   0.49578   0.01267  Uiso   1.00
O8     O     0.48690   0.66583   0.49066   0.01267  Uiso   1.00
O9     O     0.18120   0.09451   0.63182   0.01267  Uiso   1.00
O10    O     0.92590   0.96890   0.62460   0.01267  Uiso   1.00
O11    O     0.24400   0.95359   0.49578   0.01267  Uiso   1.00
O12    O     0.98690   0.82483   0.49066   0.01267  Uiso   1.00
O13    O     0.31880   0.46269   0.36818   0.01267  Uiso   1.00
O14    O     0.57410   0.34430   0.37540   0.01267  Uiso   1.00
O15    O     0.25600   0.45781   0.50422   0.01267  Uiso   1.00
O16    O     0.51310   0.33417   0.50934   0.01267  Uiso   1.00
