data_image0
_cell_length_a       15.078
_cell_length_b       15.078
_cell_length_c       5.7
_cell_angle_alpha    90
_cell_angle_beta     90
_cell_angle_gamma    90

_symmetry_space_group_name_H-M    "P 1"
_symmetry_int_tables_number       1

loop_
  _symmetry_equiv_pos_as_xyz
  'x, y, z'

loop_
  _atom_site_label
  _atom_site_occupancy
  _atom_site_fract_x
  _atom_site_fract_y
  _atom_site_fract_z
  _atom_site_thermal_displace_type
  _atom_site_B_iso_or_equiv
  _atom_site_type_symbol
  H1       1.0000 0.70220  0.30240  0.41650  Biso   1.000  H
  H2       1.0000 0.20220  0.80240  0.91650  Biso   1.000  H
  H3       1.0000 0.79780  0.69760  0.91650  Biso   1.000  H
  H4       1.0000 0.29780  0.19760  0.41650  Biso   1.000  H
  H5       1.0000 0.94760  0.45220  0.66650  Biso   1.000  H
  H6       1.0000 0.44760  0.95220  0.16650  Biso   1.000  H
  H7       1.0000 0.55240  0.54780  0.16650  Biso   1.000  H
  H8       1.0000 0.05240  0.04780  0.66650  Biso   1.000  H
  H9       1.0000 0.79780  0.30240  0.08350  Biso   1.000  H
  H10      1.0000 0.29780  0.80240  0.58350  Biso   1.000  H
  H11      1.0000 0.70220  0.69760  0.58350  Biso   1.000  H
  H12      1.0000 0.20220  0.19760  0.08350  Biso   1.000  H
  H13      1.0000 0.55240  0.45220  0.83350  Biso   1.000  H
  H14      1.0000 0.05240  0.95220  0.33350  Biso   1.000  H
  H15      1.0000 0.94760  0.54780  0.33350  Biso   1.000  H
  H16      1.0000 0.44760  0.04780  0.83350  Biso   1.000  H
  H17      1.0000 0.29780  0.69760  0.58350  Biso   1.000  H
  H18      1.0000 0.79780  0.19760  0.08350  Biso   1.000  H
  H19      1.0000 0.20220  0.30240  0.08350  Biso   1.000  H
  H20      1.0000 0.70220  0.80240  0.58350  Biso   1.000  H
  H21      1.0000 0.05240  0.54780  0.33350  Biso   1.000  H
  H22      1.0000 0.55240  0.04780  0.83350  Biso   1.000  H
  H23      1.0000 0.44760  0.45220  0.83350  Biso   1.000  H
  H24      1.0000 0.94760  0.95220  0.33350  Biso   1.000  H
  H25      1.0000 0.20220  0.69760  0.91650  Biso   1.000  H
  H26      1.0000 0.70220  0.19760  0.41650  Biso   1.000  H
  H27      1.0000 0.29780  0.30240  0.41650  Biso   1.000  H
  H28      1.0000 0.79780  0.80240  0.91650  Biso   1.000  H
  H29      1.0000 0.44760  0.54780  0.16650  Biso   1.000  H
  H30      1.0000 0.94760  0.04780  0.66650  Biso   1.000  H
  H31      1.0000 0.05240  0.45220  0.66650  Biso   1.000  H
  H32      1.0000 0.55240  0.95220  0.16650  Biso   1.000  H
  Ag1      1.0000 0.00000  0.25000  0.87500  Biso   1.000  Ag
  Ag2      1.0000 0.50000  0.75000  0.37500  Biso   1.000  Ag
  Ag3      1.0000 0.00000  0.75000  0.12500  Biso   1.000  Ag
  Ag4      1.0000 0.50000  0.25000  0.62500  Biso   1.000  Ag
  N1       1.0000 0.88300  0.25000  0.62800  Biso   1.000  N
  C1       1.0000 0.82300  0.25000  0.50000  Biso   1.000  C
  C2       1.0000 0.73700  0.25000  0.37800  Biso   1.000  C
  N2       1.0000 0.61700  0.75000  0.12800  Biso   1.000  N
  C3       1.0000 0.67700  0.75000  0.00000  Biso   1.000  C
  C4       1.0000 0.76300  0.75000  0.87800  Biso   1.000  C
  N3       1.0000 0.00000  0.63300  0.87800  Biso   1.000  N
  C5       1.0000 0.00000  0.57300  0.75000  Biso   1.000  C
  C6       1.0000 0.00000  0.48700  0.62800  Biso   1.000  C
  N4       1.0000 0.50000  0.13300  0.37800  Biso   1.000  N
  C7       1.0000 0.50000  0.07300  0.25000  Biso   1.000  C
  C8       1.0000 0.50000  0.98700  0.12800  Biso   1.000  C
  N5       1.0000 0.50000  0.36700  0.37800  Biso   1.000  N
  C9       1.0000 0.50000  0.42700  0.25000  Biso   1.000  C
  C10      1.0000 0.50000  0.51300  0.12800  Biso   1.000  C
  N6       1.0000 0.00000  0.86700  0.87800  Biso   1.000  N
  C11      1.0000 0.00000  0.92700  0.75000  Biso   1.000  C
  C12      1.0000 0.00000  0.01300  0.62800  Biso   1.000  C
  N7       1.0000 0.61700  0.25000  0.87200  Biso   1.000  N
  C13      1.0000 0.67700  0.25000  0.00000  Biso   1.000  C
  C14      1.0000 0.76300  0.25000  0.12200  Biso   1.000  C
  N8       1.0000 0.88300  0.75000  0.37200  Biso   1.000  N
  C15      1.0000 0.82300  0.75000  0.50000  Biso   1.000  C
  C16      1.0000 0.73700  0.75000  0.62200  Biso   1.000  C
  N9       1.0000 0.38300  0.25000  0.87200  Biso   1.000  N
  C17      1.0000 0.32300  0.25000  0.00000  Biso   1.000  C
  C18      1.0000 0.23700  0.25000  0.12200  Biso   1.000  C
  N10      1.0000 0.50000  0.63300  0.62200  Biso   1.000  N
  C19      1.0000 0.50000  0.57300  0.75000  Biso   1.000  C
  C20      1.0000 0.50000  0.48700  0.87200  Biso   1.000  C
  N11      1.0000 0.00000  0.13300  0.12200  Biso   1.000  N
  C21      1.0000 0.00000  0.07300  0.25000  Biso   1.000  C
  C22      1.0000 0.00000  0.98700  0.37200  Biso   1.000  C
  N12      1.0000 0.00000  0.36700  0.12200  Biso   1.000  N
  C23      1.0000 0.00000  0.42700  0.25000  Biso   1.000  C
  C24      1.0000 0.00000  0.51300  0.37200  Biso   1.000  C
  N13      1.0000 0.50000  0.86700  0.62200  Biso   1.000  N
  C25      1.0000 0.50000  0.92700  0.75000  Biso   1.000  C
  C26      1.0000 0.50000  0.01300  0.87200  Biso   1.000  C
  N14      1.0000 0.11700  0.75000  0.37200  Biso   1.000  N
  C27      1.0000 0.17700  0.75000  0.50000  Biso   1.000  C
  C28      1.0000 0.26300  0.75000  0.62200  Biso   1.000  C
  N15      1.0000 0.38300  0.75000  0.12800  Biso   1.000  N
  C29      1.0000 0.32300  0.75000  0.00000  Biso   1.000  C
  C30      1.0000 0.23700  0.75000  0.87800  Biso   1.000  C
  N16      1.0000 0.11700  0.25000  0.62800  Biso   1.000  N
  C31      1.0000 0.17700  0.25000  0.50000  Biso   1.000  C
  C32      1.0000 0.26300  0.25000  0.37800  Biso   1.000  C
