data_VACFOV_clean_h
_audit_creation_date              2014-07-02
_audit_creation_method            'Materials Studio'
_symmetry_space_group_name_H-M    'P1'
_symmetry_Int_Tables_number       1
_symmetry_cell_setting            triclinic
loop_
_symmetry_equiv_pos_as_xyz
  x,y,z
_cell_length_a                    12.0320
_cell_length_b                    15.0870
_cell_length_c                    15.0870
_cell_angle_alpha                 120.0000
_cell_angle_beta                  90.0000
_cell_angle_gamma                 90.0000
loop_
_atom_site_label
_atom_site_type_symbol
_atom_site_fract_x
_atom_site_fract_y
_atom_site_fract_z
_atom_site_U_iso_or_equiv
_atom_site_adp_type
_atom_site_occupancy
In1    In    0.00000   0.50000   0.50000   0.01267  Uiso   1.00
In2    In    0.66667  -0.00000   0.50000   0.01267  Uiso   1.00
In3    In    0.33333   0.50000   0.00000   0.01267  Uiso   1.00
C1     C     0.84830   0.49050   0.61920   0.01267  Uiso   1.00
C2     C     0.75370   0.49550   0.68920   0.01267  Uiso   1.00
C3     C     0.71360   0.58620   0.76550   0.01267  Uiso   1.00
C4     C     0.70910   0.40040   0.67160   0.01267  Uiso   1.00
C5     C     0.51497   0.12870   0.50950   0.01267  Uiso   1.00
C6     C     0.42037   0.19370   0.50450   0.01267  Uiso   1.00
C7     C     0.38027   0.17930   0.41380   0.01267  Uiso   1.00
C8     C     0.37577   0.27120   0.59960   0.01267  Uiso   1.00
C9     C     0.18163   0.38080   0.87130   0.01267  Uiso   1.00
C10    C     0.08703   0.31080   0.80630   0.01267  Uiso   1.00
C11    C     0.04693   0.23450   0.82070   0.01267  Uiso   1.00
C12    C     0.04243   0.32840   0.72880   0.01267  Uiso   1.00
C13    C     0.84830   0.50950   0.38080   0.01267  Uiso   1.00
C14    C     0.75370   0.50450   0.31080   0.01267  Uiso   1.00
C15    C     0.71360   0.41380   0.23450   0.01267  Uiso   1.00
C16    C     0.70910   0.59960   0.32840   0.01267  Uiso   1.00
C17    C     0.51497   0.87130   0.49050   0.01267  Uiso   1.00
C18    C     0.42037   0.80630   0.49550   0.01267  Uiso   1.00
C19    C     0.38027   0.82070   0.58620   0.01267  Uiso   1.00
C20    C     0.37577   0.72880   0.40040   0.01267  Uiso   1.00
C21    C     0.18163   0.61920   0.12870   0.01267  Uiso   1.00
C22    C     0.08703   0.68920   0.19370   0.01267  Uiso   1.00
C23    C     0.04693   0.76550   0.17930   0.01267  Uiso   1.00
C24    C     0.04243   0.67160   0.27120   0.01267  Uiso   1.00
C25    C     0.81837   0.87130   0.38080   0.01267  Uiso   1.00
C26    C     0.91297   0.80630   0.31080   0.01267  Uiso   1.00
C27    C     0.95307   0.82070   0.23450   0.01267  Uiso   1.00
C28    C     0.95757   0.72880   0.32840   0.01267  Uiso   1.00
C29    C     0.15170   0.61920   0.49050   0.01267  Uiso   1.00
C30    C     0.24630   0.68920   0.49550   0.01267  Uiso   1.00
C31    C     0.28640   0.76550   0.58620   0.01267  Uiso   1.00
C32    C     0.29090   0.67160   0.40040   0.01267  Uiso   1.00
C33    C     0.48503   0.50950   0.12870   0.01267  Uiso   1.00
C34    C     0.57963   0.50450   0.19370   0.01267  Uiso   1.00
C35    C     0.61973   0.41380   0.17930   0.01267  Uiso   1.00
C36    C     0.62423   0.59960   0.27120   0.01267  Uiso   1.00
C37    C     0.81837   0.12870   0.61920   0.01267  Uiso   1.00
C38    C     0.91297   0.19370   0.68920   0.01267  Uiso   1.00
C39    C     0.95307   0.17930   0.76550   0.01267  Uiso   1.00
C40    C     0.95757   0.27120   0.67160   0.01267  Uiso   1.00
C41    C     0.15170   0.38080   0.50950   0.01267  Uiso   1.00
C42    C     0.24630   0.31080   0.50450   0.01267  Uiso   1.00
C43    C     0.28640   0.23450   0.41380   0.01267  Uiso   1.00
C44    C     0.29090   0.32840   0.59960   0.01267  Uiso   1.00
C45    C     0.48503   0.49050   0.87130   0.01267  Uiso   1.00
C46    C     0.57963   0.49550   0.80630   0.01267  Uiso   1.00
C47    C     0.61973   0.58620   0.82070   0.01267  Uiso   1.00
C48    C     0.62423   0.40040   0.72880   0.01267  Uiso   1.00
O1     O     0.89710   0.57840   0.64520   0.01267  Uiso   1.00
O2     O     0.87420   0.41350   0.54160   0.01267  Uiso   1.00
O3     O     0.56377   0.06680   0.42160   0.01267  Uiso   1.00
O4     O     0.54087   0.12810   0.58650   0.01267  Uiso   1.00
O5     O     0.23043   0.35480   0.93320   0.01267  Uiso   1.00
O6     O     0.20753   0.45840   0.87190   0.01267  Uiso   1.00
O7     O     0.89710   0.42160   0.35480   0.01267  Uiso   1.00
O8     O     0.87420   0.58650   0.45840   0.01267  Uiso   1.00
O9     O     0.56377   0.93320   0.57840   0.01267  Uiso   1.00
O10    O     0.54087   0.87190   0.41350   0.01267  Uiso   1.00
O11    O     0.23043   0.64520   0.06680   0.01267  Uiso   1.00
O12    O     0.20753   0.54160   0.12810   0.01267  Uiso   1.00
O13    O     0.76957   0.93320   0.35480   0.01267  Uiso   1.00
O14    O     0.79247   0.87190   0.45840   0.01267  Uiso   1.00
O15    O     0.10290   0.64520   0.57840   0.01267  Uiso   1.00
O16    O     0.12580   0.54160   0.41350   0.01267  Uiso   1.00
O17    O     0.43623   0.42160   0.06680   0.01267  Uiso   1.00
O18    O     0.45913   0.58650   0.12810   0.01267  Uiso   1.00
O19    O     0.76957   0.06680   0.64520   0.01267  Uiso   1.00
O20    O     0.79247   0.12810   0.54160   0.01267  Uiso   1.00
O21    O     0.10290   0.35480   0.42160   0.01267  Uiso   1.00
O22    O     0.12580   0.45840   0.58650   0.01267  Uiso   1.00
O23    O     0.43623   0.57840   0.93320   0.01267  Uiso   1.00
O24    O     0.45913   0.41350   0.87190   0.01267  Uiso   1.00
H1     H     0.75623   0.66097   0.78389   0.01267  Uiso   1.00
H2     H     0.74583   0.32526   0.60919   0.01267  Uiso   1.00
H3     H     0.42290   0.12292   0.33903   0.01267  Uiso   1.00
H4     H     0.41250   0.28393   0.67474   0.01267  Uiso   1.00
H5     H     0.08956   0.21611   0.87708   0.01267  Uiso   1.00
H6     H     0.07916   0.39081   0.71608   0.01267  Uiso   1.00
H7     H     0.75623   0.33903   0.21611   0.01267  Uiso   1.00
H8     H     0.74583   0.67474   0.39081   0.01267  Uiso   1.00
H9     H     0.42290   0.87708   0.66097   0.01267  Uiso   1.00
H10    H     0.41250   0.71607   0.32526   0.01267  Uiso   1.00
H11    H     0.08956   0.78389   0.12292   0.01267  Uiso   1.00
H12    H     0.07916   0.60919   0.28392   0.01267  Uiso   1.00
H13    H     0.91128   0.87683   0.21529   0.01267  Uiso   1.00
H14    H     0.92144   0.71546   0.39062   0.01267  Uiso   1.00
H15    H     0.24460   0.78472   0.66155   0.01267  Uiso   1.00
H16    H     0.25477   0.60938   0.32484   0.01267  Uiso   1.00
H17    H     0.57710   0.33903   0.12292   0.01267  Uiso   1.00
H18    H     0.58750   0.67474   0.28393   0.01267  Uiso   1.00
H19    H     0.91128   0.12317   0.78471   0.01267  Uiso   1.00
H20    H     0.92144   0.28454   0.60938   0.01267  Uiso   1.00
H21    H     0.24460   0.21528   0.33845   0.01267  Uiso   1.00
H22    H     0.25477   0.39062   0.67516   0.01267  Uiso   1.00
H23    H     0.57793   0.66155   0.87683   0.01267  Uiso   1.00
H24    H     0.58810   0.32484   0.71546   0.01267  Uiso   1.00
