data_VACFUB01_clean
_audit_creation_date              2014-07-02
_audit_creation_method            'Materials Studio'
_symmetry_space_group_name_H-M    'P1'
_symmetry_Int_Tables_number       1
_symmetry_cell_setting            triclinic
loop_
_symmetry_equiv_pos_as_xyz
  x,y,z
_cell_length_a                    6.2620
_cell_length_b                    15.5120
_cell_length_c                    15.5120
_cell_angle_alpha                 120.0000
_cell_angle_beta                  90.0000
_cell_angle_gamma                 90.0000
loop_
_atom_site_label
_atom_site_type_symbol
_atom_site_fract_x
_atom_site_fract_y
_atom_site_fract_z
_atom_site_U_iso_or_equiv
_atom_site_adp_type
_atom_site_occupancy
Zn1    Zn    0.85040   0.50000   0.50000   0.01267  Uiso   1.00
Zn2    Zn    0.18373  -0.00000   0.50000   0.01267  Uiso   1.00
Zn3    Zn    0.51707   0.50000  -0.00000   0.01267  Uiso   1.00
H1     H     0.21540   0.72360   0.60190   0.01267  Uiso   1.00
H2     H     0.42610   0.59710   0.58900   0.01267  Uiso   1.00
H3     H     0.87800   0.66580   0.46190   0.01267  Uiso   1.00
H4     H     0.68400   0.79780   0.47670   0.01267  Uiso   1.00
H5     H     0.54873   0.87830   0.27640   0.01267  Uiso   1.00
H6     H     0.75943   0.99190   0.40290   0.01267  Uiso   1.00
H7     H     0.21133   0.79610   0.33420   0.01267  Uiso   1.00
H8     H     0.01733   0.67890   0.20220   0.01267  Uiso   1.00
H9     H     0.88207   0.39810   0.12170   0.01267  Uiso   1.00
H10    H     0.09277   0.41100   0.00810   0.01267  Uiso   1.00
H11    H     0.54467   0.53810   0.20390   0.01267  Uiso   1.00
H12    H     0.35067   0.52330   0.32110   0.01267  Uiso   1.00
H13    H     0.21540   0.27640   0.39810   0.01267  Uiso   1.00
H14    H     0.42610   0.40290   0.41100   0.01267  Uiso   1.00
H15    H     0.87800   0.33420   0.53810   0.01267  Uiso   1.00
H16    H     0.68400   0.20220   0.52330   0.01267  Uiso   1.00
H17    H     0.54873   0.12170   0.72360   0.01267  Uiso   1.00
H18    H     0.75943   0.00810   0.59710   0.01267  Uiso   1.00
H19    H     0.21133   0.20390   0.66580   0.01267  Uiso   1.00
H20    H     0.01733   0.32110   0.79780   0.01267  Uiso   1.00
H21    H     0.88207   0.60190   0.87830   0.01267  Uiso   1.00
H22    H     0.09277   0.58900   0.99190   0.01267  Uiso   1.00
H23    H     0.54467   0.46190   0.79610   0.01267  Uiso   1.00
H24    H     0.35067   0.47670   0.67890   0.01267  Uiso   1.00
C1     C     0.28720   0.85610   0.54230   0.01267  Uiso   1.00
C2     C     0.42610   0.77370   0.53790   0.01267  Uiso   1.00
C3     C     0.35020   0.71300   0.57310   0.01267  Uiso   1.00
C4     C     0.47720   0.63710   0.56470   0.01267  Uiso   1.00
C5     C     0.74320   0.67800   0.49080   0.01267  Uiso   1.00
C6     C     0.62660   0.75660   0.49840   0.01267  Uiso   1.00
C7     C     0.62053   0.68620   0.14390   0.01267  Uiso   1.00
C8     C     0.75943   0.76420   0.22630   0.01267  Uiso   1.00
C9     C     0.68353   0.86010   0.28700   0.01267  Uiso   1.00
C10    C     0.81053   0.92760   0.36290   0.01267  Uiso   1.00
C11    C     0.07653   0.81280   0.32200   0.01267  Uiso   1.00
C12    C     0.95993   0.74180   0.24340   0.01267  Uiso   1.00
C13    C     0.95387   0.45770   0.31380   0.01267  Uiso   1.00
C14    C     0.09277   0.46210   0.23580   0.01267  Uiso   1.00
C15    C     0.01687   0.42690   0.13990   0.01267  Uiso   1.00
C16    C     0.14387   0.43530   0.07240   0.01267  Uiso   1.00
C17    C     0.40987   0.50920   0.18720   0.01267  Uiso   1.00
C18    C     0.29327   0.50160   0.25820   0.01267  Uiso   1.00
C19    C     0.28720   0.14390   0.45770   0.01267  Uiso   1.00
C20    C     0.42610   0.22630   0.46210   0.01267  Uiso   1.00
C21    C     0.35020   0.28700   0.42690   0.01267  Uiso   1.00
C22    C     0.47720   0.36290   0.43530   0.01267  Uiso   1.00
C23    C     0.74320   0.32200   0.50920   0.01267  Uiso   1.00
C24    C     0.62660   0.24340   0.50160   0.01267  Uiso   1.00
C25    C     0.62053   0.31380   0.85610   0.01267  Uiso   1.00
C26    C     0.75943   0.23580   0.77370   0.01267  Uiso   1.00
C27    C     0.68353   0.13990   0.71300   0.01267  Uiso   1.00
C28    C     0.81053   0.07240   0.63710   0.01267  Uiso   1.00
C29    C     0.07653   0.18720   0.67800   0.01267  Uiso   1.00
C30    C     0.95993   0.25820   0.75660   0.01267  Uiso   1.00
C31    C     0.95387   0.54230   0.68620   0.01267  Uiso   1.00
C32    C     0.09277   0.53790   0.76420   0.01267  Uiso   1.00
C33    C     0.01687   0.57310   0.86010   0.01267  Uiso   1.00
C34    C     0.14387   0.56470   0.92760   0.01267  Uiso   1.00
C35    C     0.40987   0.49080   0.81280   0.01267  Uiso   1.00
C36    C     0.29327   0.49840   0.74180   0.01267  Uiso   1.00
N1     N     0.67040   0.61831   0.52341   0.01267  Uiso   1.00
N2     N     0.00373   0.90510   0.38169   0.01267  Uiso   1.00
N3     N     0.33707   0.47659   0.09490   0.01267  Uiso   1.00
N4     N     0.67040   0.38169   0.47659   0.01267  Uiso   1.00
N5     N     0.00373   0.09490   0.61831   0.01267  Uiso   1.00
N6     N     0.33707   0.52341   0.90510   0.01267  Uiso   1.00
O1     O     0.38340   0.91458   0.51939   0.01267  Uiso   1.00
O2     O     0.09710   0.85850   0.55960   0.01267  Uiso   1.00
O3     O     0.71673   0.60481   0.08542   0.01267  Uiso   1.00
O4     O     0.43043   0.70110   0.14150   0.01267  Uiso   1.00
O5     O     0.05007   0.48061   0.39519   0.01267  Uiso   1.00
O6     O     0.76377   0.44040   0.29890   0.01267  Uiso   1.00
O7     O     0.38340   0.08542   0.48061   0.01267  Uiso   1.00
O8     O     0.09710   0.14150   0.44040   0.01267  Uiso   1.00
O9     O     0.71673   0.39519   0.91458   0.01267  Uiso   1.00
O10    O     0.43043   0.29890   0.85850   0.01267  Uiso   1.00
O11    O     0.05007   0.51939   0.60481   0.01267  Uiso   1.00
O12    O     0.76377   0.55960   0.70110   0.01267  Uiso   1.00
