data_image0
_cell_length_a       9.334
_cell_length_b       25.458
_cell_length_c       19.822
_cell_angle_alpha    90
_cell_angle_beta     99.86
_cell_angle_gamma    90

_symmetry_space_group_name_H-M    "P 1"
_symmetry_int_tables_number       1

loop_
  _symmetry_equiv_pos_as_xyz
  'x, y, z'

loop_
  _atom_site_label
  _atom_site_occupancy
  _atom_site_fract_x
  _atom_site_fract_y
  _atom_site_fract_z
  _atom_site_thermal_displace_type
  _atom_site_B_iso_or_equiv
  _atom_site_type_symbol
  N1       1.0000 0.19820  0.04897  0.02124  Biso   1.000  N
  N2       1.0000 0.34970  0.11378  0.05792  Biso   1.000  N
  N3       1.0000 0.90900  0.03813  0.07881  Biso   1.000  N
  N4       1.0000 0.83900  0.05066  0.17780  Biso   1.000  N
  N5       1.0000 0.10700  0.94067  0.07009  Biso   1.000  N
  N6       1.0000 0.17060  0.86080  0.10740  Biso   1.000  N
  C1       1.0000 0.21890  0.09227  0.05918  Biso   1.000  C
  H1       1.0000 0.15100  0.10600  0.08360  Biso   1.000  H
  C2       1.0000 0.32470  0.04327  0.99482  Biso   1.000  C
  H2       1.0000 0.34350  0.01620  0.96610  Biso   1.000  H
  C3       1.0000 0.41770  0.08300  0.01698  Biso   1.000  C
  H3       1.0000 0.50990  0.08820  0.00630  Biso   1.000  H
  C4       1.0000 0.39580  0.16544  0.08413  Biso   1.000  C
  H4       1.0000 0.49980  0.16900  0.08570  Biso   1.000  H
  H5       1.0000 0.37670  0.16890  0.13050  Biso   1.000  H
  C5       1.0000 0.31770  0.20901  0.04013  Biso   1.000  C
  C6       1.0000 0.29310  0.20550  0.96941  Biso   1.000  C
  H6       1.0000 0.32250  0.17570  0.94840  Biso   1.000  H
  C7       1.0000 0.27520  0.25380  0.07059  Biso   1.000  C
  H7       1.0000 0.29230  0.25680  0.11810  Biso   1.000  H
  C8       1.0000 0.89310  0.01634  0.13711  Biso   1.000  C
  H8       1.0000 0.91630  0.98160  0.14880  Biso   1.000  H
  C9       1.0000 0.86140  0.08899  0.08270  Biso   1.000  C
  H9       1.0000 0.85820  0.11410  0.04850  Biso   1.000  H
  C10      1.0000 0.82040  0.09681  0.14330  Biso   1.000  C
  H10      1.0000 0.78560  0.12800  0.15880  Biso   1.000  H
  C11      1.0000 0.80940  0.03900  0.24654  Biso   1.000  C
  H11      1.0000 0.85640  0.06520  0.27840  Biso   1.000  H
  H12      1.0000 0.85040  0.00510  0.26110  Biso   1.000  H
  C12      1.0000 0.64750  0.03861  0.24846  Biso   1.000  C
  C13      1.0000 0.57340  0.08576  0.24990  Biso   1.000  C
  H13      1.0000 0.62350  0.11740  0.25080  Biso   1.000  H
  C14      1.0000 0.57300  0.99161  0.24870  Biso   1.000  C
  H14      1.0000 0.62200  0.96000  0.24700  Biso   1.000  H
  C15      1.0000 0.06170  0.89262  0.07907  Biso   1.000  C
  H15      1.0000 0.96550  0.88190  0.06720  Biso   1.000  H
  C16      1.0000 0.25380  0.93919  0.09448  Biso   1.000  C
  H16      1.0000 0.31620  0.96770  0.09530  Biso   1.000  H
  C17      1.0000 0.29490  0.89038  0.11721  Biso   1.000  C
  H17      1.0000 0.38830  0.87930  0.13570  Biso   1.000  H
  C18      1.0000 0.16390  0.80364  0.11692  Biso   1.000  C
  H18      1.0000 0.06590  0.79360  0.12170  Biso   1.000  H
  H19      1.0000 0.22890  0.79370  0.15850  Biso   1.000  H
  C19      1.0000 0.20760  0.77481  0.05586  Biso   1.000  C
  C20      1.0000 0.11750  0.77522  0.99345  Biso   1.000  C
  H20      1.0000 0.02780  0.79200  0.98860  Biso   1.000  H
  C21      1.0000 0.33980  0.74943  0.06271  Biso   1.000  C
  H21      1.0000 0.40080  0.74870  0.10500  Biso   1.000  H
  N7       1.0000 0.69820  0.54897  0.02124  Biso   1.000  N
  N8       1.0000 0.84970  0.61378  0.05792  Biso   1.000  N
  N9       1.0000 0.40900  0.53813  0.07881  Biso   1.000  N
  N10      1.0000 0.33900  0.55066  0.17780  Biso   1.000  N
  N11      1.0000 0.60700  0.44067  0.07009  Biso   1.000  N
  N12      1.0000 0.67060  0.36080  0.10740  Biso   1.000  N
  C22      1.0000 0.71890  0.59227  0.05918  Biso   1.000  C
  H22      1.0000 0.65100  0.60600  0.08360  Biso   1.000  H
  C23      1.0000 0.82470  0.54327  0.99482  Biso   1.000  C
  H23      1.0000 0.84350  0.51620  0.96610  Biso   1.000  H
  C24      1.0000 0.91770  0.58300  0.01698  Biso   1.000  C
  H24      1.0000 0.00990  0.58820  0.00630  Biso   1.000  H
  C25      1.0000 0.89580  0.66544  0.08413  Biso   1.000  C
  H25      1.0000 0.99980  0.66900  0.08570  Biso   1.000  H
  H26      1.0000 0.87670  0.66890  0.13050  Biso   1.000  H
  C26      1.0000 0.81770  0.70901  0.04013  Biso   1.000  C
  C27      1.0000 0.79310  0.70550  0.96941  Biso   1.000  C
  H27      1.0000 0.82250  0.67570  0.94840  Biso   1.000  H
  C28      1.0000 0.77520  0.75380  0.07059  Biso   1.000  C
  H28      1.0000 0.79230  0.75680  0.11810  Biso   1.000  H
  C29      1.0000 0.39310  0.51634  0.13711  Biso   1.000  C
  H29      1.0000 0.41630  0.48160  0.14880  Biso   1.000  H
  C30      1.0000 0.36140  0.58899  0.08270  Biso   1.000  C
  H30      1.0000 0.35820  0.61410  0.04850  Biso   1.000  H
  C31      1.0000 0.32040  0.59681  0.14330  Biso   1.000  C
  H31      1.0000 0.28560  0.62800  0.15880  Biso   1.000  H
  C32      1.0000 0.30940  0.53900  0.24654  Biso   1.000  C
  H32      1.0000 0.35640  0.56520  0.27840  Biso   1.000  H
  H33      1.0000 0.35040  0.50510  0.26110  Biso   1.000  H
  C33      1.0000 0.14750  0.53861  0.24846  Biso   1.000  C
  C34      1.0000 0.07340  0.58576  0.24990  Biso   1.000  C
  H34      1.0000 0.12350  0.61740  0.25080  Biso   1.000  H
  C35      1.0000 0.07300  0.49161  0.24870  Biso   1.000  C
  H35      1.0000 0.12200  0.46000  0.24700  Biso   1.000  H
  C36      1.0000 0.56170  0.39262  0.07907  Biso   1.000  C
  H36      1.0000 0.46550  0.38190  0.06720  Biso   1.000  H
  C37      1.0000 0.75380  0.43919  0.09448  Biso   1.000  C
  H37      1.0000 0.81620  0.46770  0.09530  Biso   1.000  H
  C38      1.0000 0.79490  0.39038  0.11721  Biso   1.000  C
  H38      1.0000 0.88830  0.37930  0.13570  Biso   1.000  H
  C39      1.0000 0.66390  0.30364  0.11692  Biso   1.000  C
  H39      1.0000 0.56590  0.29360  0.12170  Biso   1.000  H
  H40      1.0000 0.72890  0.29370  0.15850  Biso   1.000  H
  C40      1.0000 0.70760  0.27481  0.05586  Biso   1.000  C
  C41      1.0000 0.61750  0.27522  0.99345  Biso   1.000  C
  H41      1.0000 0.52780  0.29200  0.98860  Biso   1.000  H
  C42      1.0000 0.83980  0.24943  0.06271  Biso   1.000  C
  H42      1.0000 0.90080  0.24870  0.10500  Biso   1.000  H
  N13      1.0000 0.80180  0.04897  0.47876  Biso   1.000  N
  N14      1.0000 0.65030  0.11378  0.44208  Biso   1.000  N
  N15      1.0000 0.09100  0.03813  0.42119  Biso   1.000  N
  N16      1.0000 0.16100  0.05066  0.32220  Biso   1.000  N
  N17      1.0000 0.89300  0.94067  0.42991  Biso   1.000  N
  N18      1.0000 0.82940  0.86080  0.39260  Biso   1.000  N
  C43      1.0000 0.78110  0.09227  0.44082  Biso   1.000  C
  H43      1.0000 0.84900  0.10600  0.41640  Biso   1.000  H
  C44      1.0000 0.67530  0.04327  0.50518  Biso   1.000  C
  H44      1.0000 0.65650  0.01620  0.53390  Biso   1.000  H
  C45      1.0000 0.58230  0.08300  0.48302  Biso   1.000  C
  H45      1.0000 0.49010  0.08820  0.49370  Biso   1.000  H
  C46      1.0000 0.60420  0.16544  0.41587  Biso   1.000  C
  H46      1.0000 0.50020  0.16900  0.41430  Biso   1.000  H
  H47      1.0000 0.62330  0.16890  0.36950  Biso   1.000  H
  C47      1.0000 0.68230  0.20901  0.45987  Biso   1.000  C
  C48      1.0000 0.70690  0.20550  0.53059  Biso   1.000  C
  H48      1.0000 0.67750  0.17570  0.55160  Biso   1.000  H
  C49      1.0000 0.72480  0.25380  0.42941  Biso   1.000  C
  H49      1.0000 0.70770  0.25680  0.38190  Biso   1.000  H
  C50      1.0000 0.10690  0.01634  0.36289  Biso   1.000  C
  H50      1.0000 0.08370  0.98160  0.35120  Biso   1.000  H
  C51      1.0000 0.13860  0.08899  0.41730  Biso   1.000  C
  H51      1.0000 0.14180  0.11410  0.45150  Biso   1.000  H
  C52      1.0000 0.17960  0.09681  0.35670  Biso   1.000  C
  H52      1.0000 0.21440  0.12800  0.34120  Biso   1.000  H
  C53      1.0000 0.19060  0.03900  0.25346  Biso   1.000  C
  H53      1.0000 0.14360  0.06520  0.22160  Biso   1.000  H
  H54      1.0000 0.14960  0.00510  0.23890  Biso   1.000  H
  C54      1.0000 0.35250  0.03861  0.25154  Biso   1.000  C
  C55      1.0000 0.42660  0.08576  0.25010  Biso   1.000  C
  H55      1.0000 0.37650  0.11740  0.24920  Biso   1.000  H
  C56      1.0000 0.42700  0.99161  0.25130  Biso   1.000  C
  H56      1.0000 0.37800  0.96000  0.25300  Biso   1.000  H
  C57      1.0000 0.93830  0.89262  0.42093  Biso   1.000  C
  H57      1.0000 0.03450  0.88190  0.43280  Biso   1.000  H
  C58      1.0000 0.74620  0.93919  0.40552  Biso   1.000  C
  H58      1.0000 0.68380  0.96770  0.40470  Biso   1.000  H
  C59      1.0000 0.70510  0.89038  0.38279  Biso   1.000  C
  H59      1.0000 0.61170  0.87930  0.36430  Biso   1.000  H
  C60      1.0000 0.83610  0.80364  0.38308  Biso   1.000  C
  H60      1.0000 0.93410  0.79360  0.37830  Biso   1.000  H
  H61      1.0000 0.77110  0.79370  0.34150  Biso   1.000  H
  C61      1.0000 0.79240  0.77481  0.44414  Biso   1.000  C
  C62      1.0000 0.88250  0.77522  0.50655  Biso   1.000  C
  H62      1.0000 0.97220  0.79200  0.51140  Biso   1.000  H
  C63      1.0000 0.66020  0.74943  0.43729  Biso   1.000  C
  H63      1.0000 0.59920  0.74870  0.39500  Biso   1.000  H
  N19      1.0000 0.30180  0.54897  0.47876  Biso   1.000  N
  N20      1.0000 0.15030  0.61378  0.44208  Biso   1.000  N
  N21      1.0000 0.59100  0.53813  0.42119  Biso   1.000  N
  N22      1.0000 0.66100  0.55066  0.32220  Biso   1.000  N
  N23      1.0000 0.39300  0.44067  0.42991  Biso   1.000  N
  N24      1.0000 0.32940  0.36080  0.39260  Biso   1.000  N
  C64      1.0000 0.28110  0.59227  0.44082  Biso   1.000  C
  H64      1.0000 0.34900  0.60600  0.41640  Biso   1.000  H
  C65      1.0000 0.17530  0.54327  0.50518  Biso   1.000  C
  H65      1.0000 0.15650  0.51620  0.53390  Biso   1.000  H
  C66      1.0000 0.08230  0.58300  0.48302  Biso   1.000  C
  H66      1.0000 0.99010  0.58820  0.49370  Biso   1.000  H
  C67      1.0000 0.10420  0.66544  0.41587  Biso   1.000  C
  H67      1.0000 0.00020  0.66900  0.41430  Biso   1.000  H
  H68      1.0000 0.12330  0.66890  0.36950  Biso   1.000  H
  C68      1.0000 0.18230  0.70901  0.45987  Biso   1.000  C
  C69      1.0000 0.20690  0.70550  0.53059  Biso   1.000  C
  H69      1.0000 0.17750  0.67570  0.55160  Biso   1.000  H
  C70      1.0000 0.22480  0.75380  0.42941  Biso   1.000  C
  H70      1.0000 0.20770  0.75680  0.38190  Biso   1.000  H
  C71      1.0000 0.60690  0.51634  0.36289  Biso   1.000  C
  H71      1.0000 0.58370  0.48160  0.35120  Biso   1.000  H
  C72      1.0000 0.63860  0.58899  0.41730  Biso   1.000  C
  H72      1.0000 0.64180  0.61410  0.45150  Biso   1.000  H
  C73      1.0000 0.67960  0.59681  0.35670  Biso   1.000  C
  H73      1.0000 0.71440  0.62800  0.34120  Biso   1.000  H
  C74      1.0000 0.69060  0.53900  0.25346  Biso   1.000  C
  H74      1.0000 0.64360  0.56520  0.22160  Biso   1.000  H
  H75      1.0000 0.64960  0.50510  0.23890  Biso   1.000  H
  C75      1.0000 0.85250  0.53861  0.25154  Biso   1.000  C
  C76      1.0000 0.92660  0.58576  0.25010  Biso   1.000  C
  H76      1.0000 0.87650  0.61740  0.24920  Biso   1.000  H
  C77      1.0000 0.92700  0.49161  0.25130  Biso   1.000  C
  H77      1.0000 0.87800  0.46000  0.25300  Biso   1.000  H
  C78      1.0000 0.43830  0.39262  0.42093  Biso   1.000  C
  H78      1.0000 0.53450  0.38190  0.43280  Biso   1.000  H
  C79      1.0000 0.24620  0.43919  0.40552  Biso   1.000  C
  H79      1.0000 0.18380  0.46770  0.40470  Biso   1.000  H
  C80      1.0000 0.20510  0.39038  0.38279  Biso   1.000  C
  H80      1.0000 0.11170  0.37930  0.36430  Biso   1.000  H
  C81      1.0000 0.33610  0.30364  0.38308  Biso   1.000  C
  H81      1.0000 0.43410  0.29360  0.37830  Biso   1.000  H
  H82      1.0000 0.27110  0.29370  0.34150  Biso   1.000  H
  C82      1.0000 0.29240  0.27481  0.44414  Biso   1.000  C
  C83      1.0000 0.38250  0.27522  0.50655  Biso   1.000  C
  H83      1.0000 0.47220  0.29200  0.51140  Biso   1.000  H
  C84      1.0000 0.16020  0.24943  0.43729  Biso   1.000  C
  H84      1.0000 0.09920  0.24870  0.39500  Biso   1.000  H
  N25      1.0000 0.80180  0.95103  0.97876  Biso   1.000  N
  N26      1.0000 0.65030  0.88622  0.94208  Biso   1.000  N
  N27      1.0000 0.09100  0.96187  0.92119  Biso   1.000  N
  N28      1.0000 0.16100  0.94934  0.82220  Biso   1.000  N
  N29      1.0000 0.89300  0.05933  0.92991  Biso   1.000  N
  N30      1.0000 0.82940  0.13920  0.89260  Biso   1.000  N
  C85      1.0000 0.78110  0.90773  0.94082  Biso   1.000  C
  H85      1.0000 0.84900  0.89400  0.91640  Biso   1.000  H
  C86      1.0000 0.67530  0.95673  0.00518  Biso   1.000  C
  H86      1.0000 0.65650  0.98380  0.03390  Biso   1.000  H
  C87      1.0000 0.58230  0.91700  0.98302  Biso   1.000  C
  H87      1.0000 0.49010  0.91180  0.99370  Biso   1.000  H
  C88      1.0000 0.60420  0.83456  0.91587  Biso   1.000  C
  H88      1.0000 0.50020  0.83100  0.91430  Biso   1.000  H
  H89      1.0000 0.62330  0.83110  0.86950  Biso   1.000  H
  C89      1.0000 0.68230  0.79099  0.95987  Biso   1.000  C
  C90      1.0000 0.70690  0.79450  0.03059  Biso   1.000  C
  H90      1.0000 0.67750  0.82430  0.05160  Biso   1.000  H
  C91      1.0000 0.72480  0.74620  0.92941  Biso   1.000  C
  H91      1.0000 0.70770  0.74320  0.88190  Biso   1.000  H
  C92      1.0000 0.10690  0.98366  0.86289  Biso   1.000  C
  H92      1.0000 0.08370  0.01840  0.85120  Biso   1.000  H
  C93      1.0000 0.13860  0.91101  0.91730  Biso   1.000  C
  H93      1.0000 0.14180  0.88590  0.95150  Biso   1.000  H
  C94      1.0000 0.17960  0.90319  0.85670  Biso   1.000  C
  H94      1.0000 0.21440  0.87200  0.84120  Biso   1.000  H
  C95      1.0000 0.19060  0.96100  0.75346  Biso   1.000  C
  H95      1.0000 0.14360  0.93480  0.72160  Biso   1.000  H
  H96      1.0000 0.14960  0.99490  0.73890  Biso   1.000  H
  C96      1.0000 0.35250  0.96139  0.75154  Biso   1.000  C
  C97      1.0000 0.42660  0.91424  0.75010  Biso   1.000  C
  H97      1.0000 0.37650  0.88260  0.74920  Biso   1.000  H
  C98      1.0000 0.42700  0.00839  0.75130  Biso   1.000  C
  H98      1.0000 0.37800  0.04000  0.75300  Biso   1.000  H
  C99      1.0000 0.93830  0.10738  0.92093  Biso   1.000  C
  H99      1.0000 0.03450  0.11810  0.93280  Biso   1.000  H
  C100     1.0000 0.74620  0.06081  0.90552  Biso   1.000  C
  H100     1.0000 0.68380  0.03230  0.90470  Biso   1.000  H
  C101     1.0000 0.70510  0.10962  0.88279  Biso   1.000  C
  H101     1.0000 0.61170  0.12070  0.86430  Biso   1.000  H
  C102     1.0000 0.83610  0.19636  0.88308  Biso   1.000  C
  H102     1.0000 0.93410  0.20640  0.87830  Biso   1.000  H
  H103     1.0000 0.77110  0.20630  0.84150  Biso   1.000  H
  C103     1.0000 0.79240  0.22519  0.94414  Biso   1.000  C
  C104     1.0000 0.88250  0.22478  0.00655  Biso   1.000  C
  H104     1.0000 0.97220  0.20800  0.01140  Biso   1.000  H
  C105     1.0000 0.66020  0.25057  0.93729  Biso   1.000  C
  H105     1.0000 0.59920  0.25130  0.89500  Biso   1.000  H
  N31      1.0000 0.30180  0.45103  0.97876  Biso   1.000  N
  N32      1.0000 0.15030  0.38622  0.94208  Biso   1.000  N
  N33      1.0000 0.59100  0.46187  0.92119  Biso   1.000  N
  N34      1.0000 0.66100  0.44934  0.82220  Biso   1.000  N
  N35      1.0000 0.39300  0.55933  0.92991  Biso   1.000  N
  N36      1.0000 0.32940  0.63920  0.89260  Biso   1.000  N
  C106     1.0000 0.28110  0.40773  0.94082  Biso   1.000  C
  H106     1.0000 0.34900  0.39400  0.91640  Biso   1.000  H
  C107     1.0000 0.17530  0.45673  0.00518  Biso   1.000  C
  H107     1.0000 0.15650  0.48380  0.03390  Biso   1.000  H
  C108     1.0000 0.08230  0.41700  0.98302  Biso   1.000  C
  H108     1.0000 0.99010  0.41180  0.99370  Biso   1.000  H
  C109     1.0000 0.10420  0.33456  0.91587  Biso   1.000  C
  H109     1.0000 0.00020  0.33100  0.91430  Biso   1.000  H
  H110     1.0000 0.12330  0.33110  0.86950  Biso   1.000  H
  C110     1.0000 0.18230  0.29099  0.95987  Biso   1.000  C
  C111     1.0000 0.20690  0.29450  0.03059  Biso   1.000  C
  H111     1.0000 0.17750  0.32430  0.05160  Biso   1.000  H
  C112     1.0000 0.22480  0.24620  0.92941  Biso   1.000  C
  H112     1.0000 0.20770  0.24320  0.88190  Biso   1.000  H
  C113     1.0000 0.60690  0.48366  0.86289  Biso   1.000  C
  H113     1.0000 0.58370  0.51840  0.85120  Biso   1.000  H
  C114     1.0000 0.63860  0.41101  0.91730  Biso   1.000  C
  H114     1.0000 0.64180  0.38590  0.95150  Biso   1.000  H
  C115     1.0000 0.67960  0.40319  0.85670  Biso   1.000  C
  H115     1.0000 0.71440  0.37200  0.84120  Biso   1.000  H
  C116     1.0000 0.69060  0.46100  0.75346  Biso   1.000  C
  H116     1.0000 0.64360  0.43480  0.72160  Biso   1.000  H
  H117     1.0000 0.64960  0.49490  0.73890  Biso   1.000  H
  C117     1.0000 0.85250  0.46139  0.75154  Biso   1.000  C
  C118     1.0000 0.92660  0.41424  0.75010  Biso   1.000  C
  H118     1.0000 0.87650  0.38260  0.74920  Biso   1.000  H
  C119     1.0000 0.92700  0.50839  0.75130  Biso   1.000  C
  H119     1.0000 0.87800  0.54000  0.75300  Biso   1.000  H
  C120     1.0000 0.43830  0.60738  0.92093  Biso   1.000  C
  H120     1.0000 0.53450  0.61810  0.93280  Biso   1.000  H
  C121     1.0000 0.24620  0.56081  0.90552  Biso   1.000  C
  H121     1.0000 0.18380  0.53230  0.90470  Biso   1.000  H
  C122     1.0000 0.20510  0.60962  0.88279  Biso   1.000  C
  H122     1.0000 0.11170  0.62070  0.86430  Biso   1.000  H
  C123     1.0000 0.33610  0.69636  0.88308  Biso   1.000  C
  H123     1.0000 0.43410  0.70640  0.87830  Biso   1.000  H
  H124     1.0000 0.27110  0.70630  0.84150  Biso   1.000  H
  C124     1.0000 0.29240  0.72519  0.94414  Biso   1.000  C
  C125     1.0000 0.38250  0.72478  0.00655  Biso   1.000  C
  H125     1.0000 0.47220  0.70800  0.01140  Biso   1.000  H
  C126     1.0000 0.16020  0.75057  0.93729  Biso   1.000  C
  H126     1.0000 0.09920  0.75130  0.89500  Biso   1.000  H
  N37      1.0000 0.19820  0.95103  0.52124  Biso   1.000  N
  N38      1.0000 0.34970  0.88622  0.55792  Biso   1.000  N
  N39      1.0000 0.90900  0.96187  0.57881  Biso   1.000  N
  N40      1.0000 0.83900  0.94934  0.67780  Biso   1.000  N
  N41      1.0000 0.10700  0.05933  0.57009  Biso   1.000  N
  N42      1.0000 0.17060  0.13920  0.60740  Biso   1.000  N
  C127     1.0000 0.21890  0.90773  0.55918  Biso   1.000  C
  H127     1.0000 0.15100  0.89400  0.58360  Biso   1.000  H
  C128     1.0000 0.32470  0.95673  0.49482  Biso   1.000  C
  H128     1.0000 0.34350  0.98380  0.46610  Biso   1.000  H
  C129     1.0000 0.41770  0.91700  0.51698  Biso   1.000  C
  H129     1.0000 0.50990  0.91180  0.50630  Biso   1.000  H
  C130     1.0000 0.39580  0.83456  0.58413  Biso   1.000  C
  H130     1.0000 0.49980  0.83100  0.58570  Biso   1.000  H
  H131     1.0000 0.37670  0.83110  0.63050  Biso   1.000  H
  C131     1.0000 0.31770  0.79099  0.54013  Biso   1.000  C
  C132     1.0000 0.29310  0.79450  0.46941  Biso   1.000  C
  H132     1.0000 0.32250  0.82430  0.44840  Biso   1.000  H
  C133     1.0000 0.27520  0.74620  0.57059  Biso   1.000  C
  H133     1.0000 0.29230  0.74320  0.61810  Biso   1.000  H
  C134     1.0000 0.89310  0.98366  0.63711  Biso   1.000  C
  H134     1.0000 0.91630  0.01840  0.64880  Biso   1.000  H
  C135     1.0000 0.86140  0.91101  0.58270  Biso   1.000  C
  H135     1.0000 0.85820  0.88590  0.54850  Biso   1.000  H
  C136     1.0000 0.82040  0.90319  0.64330  Biso   1.000  C
  H136     1.0000 0.78560  0.87200  0.65880  Biso   1.000  H
  C137     1.0000 0.80940  0.96100  0.74654  Biso   1.000  C
  H137     1.0000 0.85640  0.93480  0.77840  Biso   1.000  H
  H138     1.0000 0.85040  0.99490  0.76110  Biso   1.000  H
  C138     1.0000 0.64750  0.96139  0.74846  Biso   1.000  C
  C139     1.0000 0.57340  0.91424  0.74990  Biso   1.000  C
  H139     1.0000 0.62350  0.88260  0.75080  Biso   1.000  H
  C140     1.0000 0.57300  0.00839  0.74870  Biso   1.000  C
  H140     1.0000 0.62200  0.04000  0.74700  Biso   1.000  H
  C141     1.0000 0.06170  0.10738  0.57907  Biso   1.000  C
  H141     1.0000 0.96550  0.11810  0.56720  Biso   1.000  H
  C142     1.0000 0.25380  0.06081  0.59448  Biso   1.000  C
  H142     1.0000 0.31620  0.03230  0.59530  Biso   1.000  H
  C143     1.0000 0.29490  0.10962  0.61721  Biso   1.000  C
  H143     1.0000 0.38830  0.12070  0.63570  Biso   1.000  H
  C144     1.0000 0.16390  0.19636  0.61692  Biso   1.000  C
  H144     1.0000 0.06590  0.20640  0.62170  Biso   1.000  H
  H145     1.0000 0.22890  0.20630  0.65850  Biso   1.000  H
  C145     1.0000 0.20760  0.22519  0.55586  Biso   1.000  C
  C146     1.0000 0.11750  0.22478  0.49345  Biso   1.000  C
  H146     1.0000 0.02780  0.20800  0.48860  Biso   1.000  H
  C147     1.0000 0.33980  0.25057  0.56271  Biso   1.000  C
  H147     1.0000 0.40080  0.25130  0.60500  Biso   1.000  H
  N43      1.0000 0.69820  0.45103  0.52124  Biso   1.000  N
  N44      1.0000 0.84970  0.38622  0.55792  Biso   1.000  N
  N45      1.0000 0.40900  0.46187  0.57881  Biso   1.000  N
  N46      1.0000 0.33900  0.44934  0.67780  Biso   1.000  N
  N47      1.0000 0.60700  0.55933  0.57009  Biso   1.000  N
  N48      1.0000 0.67060  0.63920  0.60740  Biso   1.000  N
  C148     1.0000 0.71890  0.40773  0.55918  Biso   1.000  C
  H148     1.0000 0.65100  0.39400  0.58360  Biso   1.000  H
  C149     1.0000 0.82470  0.45673  0.49482  Biso   1.000  C
  H149     1.0000 0.84350  0.48380  0.46610  Biso   1.000  H
  C150     1.0000 0.91770  0.41700  0.51698  Biso   1.000  C
  H150     1.0000 0.00990  0.41180  0.50630  Biso   1.000  H
  C151     1.0000 0.89580  0.33456  0.58413  Biso   1.000  C
  H151     1.0000 0.99980  0.33100  0.58570  Biso   1.000  H
  H152     1.0000 0.87670  0.33110  0.63050  Biso   1.000  H
  C152     1.0000 0.81770  0.29099  0.54013  Biso   1.000  C
  C153     1.0000 0.79310  0.29450  0.46941  Biso   1.000  C
  H153     1.0000 0.82250  0.32430  0.44840  Biso   1.000  H
  C154     1.0000 0.77520  0.24620  0.57059  Biso   1.000  C
  H154     1.0000 0.79230  0.24320  0.61810  Biso   1.000  H
  C155     1.0000 0.39310  0.48366  0.63711  Biso   1.000  C
  H155     1.0000 0.41630  0.51840  0.64880  Biso   1.000  H
  C156     1.0000 0.36140  0.41101  0.58270  Biso   1.000  C
  H156     1.0000 0.35820  0.38590  0.54850  Biso   1.000  H
  C157     1.0000 0.32040  0.40319  0.64330  Biso   1.000  C
  H157     1.0000 0.28560  0.37200  0.65880  Biso   1.000  H
  C158     1.0000 0.30940  0.46100  0.74654  Biso   1.000  C
  H158     1.0000 0.35640  0.43480  0.77840  Biso   1.000  H
  H159     1.0000 0.35040  0.49490  0.76110  Biso   1.000  H
  C159     1.0000 0.14750  0.46139  0.74846  Biso   1.000  C
  C160     1.0000 0.07340  0.41424  0.74990  Biso   1.000  C
  H160     1.0000 0.12350  0.38260  0.75080  Biso   1.000  H
  C161     1.0000 0.07300  0.50839  0.74870  Biso   1.000  C
  H161     1.0000 0.12200  0.54000  0.74700  Biso   1.000  H
  C162     1.0000 0.56170  0.60738  0.57907  Biso   1.000  C
  H162     1.0000 0.46550  0.61810  0.56720  Biso   1.000  H
  C163     1.0000 0.75380  0.56081  0.59448  Biso   1.000  C
  H163     1.0000 0.81620  0.53230  0.59530  Biso   1.000  H
  C164     1.0000 0.79490  0.60962  0.61721  Biso   1.000  C
  H164     1.0000 0.88830  0.62070  0.63570  Biso   1.000  H
  C165     1.0000 0.66390  0.69636  0.61692  Biso   1.000  C
  H165     1.0000 0.56590  0.70640  0.62170  Biso   1.000  H
  H166     1.0000 0.72890  0.70630  0.65850  Biso   1.000  H
  C166     1.0000 0.70760  0.72519  0.55586  Biso   1.000  C
  C167     1.0000 0.61750  0.72478  0.49345  Biso   1.000  C
  H167     1.0000 0.52780  0.70800  0.48860  Biso   1.000  H
  C168     1.0000 0.83980  0.75057  0.56271  Biso   1.000  C
  H168     1.0000 0.90080  0.75130  0.60500  Biso   1.000  H
  Co1      1.0000 0.00000  0.00000  0.00000  Biso   1.000  Co
  Co2      1.0000 0.50000  0.50000  0.00000  Biso   1.000  Co
  Co3      1.0000 0.00000  0.00000  0.50000  Biso   1.000  Co
  Co4      1.0000 0.50000  0.50000  0.50000  Biso   1.000  Co
