data_image0
_cell_length_a       10.2589
_cell_length_b       29.5851
_cell_length_c       13.7578
_cell_angle_alpha    90
_cell_angle_beta     103.303
_cell_angle_gamma    90

_symmetry_space_group_name_H-M    "P 1"
_symmetry_int_tables_number       1

loop_
  _symmetry_equiv_pos_as_xyz
  'x, y, z'

loop_
  _atom_site_label
  _atom_site_occupancy
  _atom_site_fract_x
  _atom_site_fract_y
  _atom_site_fract_z
  _atom_site_thermal_displace_type
  _atom_site_B_iso_or_equiv
  _atom_site_type_symbol
  Zn1      1.0000 0.79622  0.26838  0.26846  Biso   1.000  Zn
  Zn2      1.0000 0.68684  0.09447  0.09329  Biso   1.000  Zn
  Zn3      1.0000 0.82015  0.08198  0.39448  Biso   1.000  Zn
  Zn4      1.0000 0.72800  0.16214  0.61576  Biso   1.000  Zn
  Zn5      1.0000 0.84374  0.16473  0.91434  Biso   1.000  Zn
  Zn6      1.0000 0.25191  0.01475  0.24118  Biso   1.000  Zn
  P1       1.0000 0.82687  0.18873  0.12521  Biso   1.000  P
  H1       1.0000 0.89770  0.17290  0.21090  Biso   1.000  H
  P2       1.0000 0.71906  0.18517  0.39526  Biso   1.000  P
  H2       1.0000 0.62080  0.17670  0.31690  Biso   1.000  H
  P3       1.0000 0.95969  0.04908  0.22477  Biso   1.000  P
  H3       1.0000 0.93790  0.00580  0.23820  Biso   1.000  H
  P4       1.0000 0.54324  0.04949  0.24885  Biso   1.000  P
  H4       1.0000 0.54660  0.00960  0.20640  Biso   1.000  H
  P5       1.0000 0.50919  0.30651  0.25890  Biso   1.000  P
  H5       1.0000 0.49320  0.26330  0.27760  Biso   1.000  H
  P6       1.0000 0.08454  0.29299  0.26958  Biso   1.000  P
  H6       1.0000 0.07090  0.25220  0.22940  Biso   1.000  H
  P7       1.0000 0.82055  0.06020  0.61488  Biso   1.000  P
  H7       1.0000 0.91620  0.07080  0.69350  Biso   1.000  H
  P8       1.0000 0.68169  0.07033  0.87999  Biso   1.000  P
  H8       1.0000 0.60290  0.08210  0.79370  Biso   1.000  H
  O1       1.0000 0.79100  0.23746  0.14300  Biso   1.000  O
  O2       1.0000 0.70080  0.16015  0.09620  Biso   1.000  O
  O3       1.0000 0.91400  0.18548  0.04990  Biso   1.000  O
  O4       1.0000 0.78210  0.22966  0.37700  Biso   1.000  O
  O5       1.0000 0.65860  0.18942  0.48530  Biso   1.000  O
  O6       1.0000 0.81910  0.14695  0.40480  Biso   1.000  O
  O7       1.0000 0.85290  0.06450  0.13770  Biso   1.000  O
  O8       1.0000 0.09480  0.05247  0.19960  Biso   1.000  O
  O9       1.0000 0.95820  0.07276  0.32130  Biso   1.000  O
  O10      1.0000 0.55460  0.08488  0.17140  Biso   1.000  O
  O11      1.0000 0.40960  0.05290  0.27710  Biso   1.000  O
  O12      1.0000 0.65730  0.05057  0.33920  Biso   1.000  O
  O13      1.0000 0.40820  0.31814  0.16500  Biso   1.000  O
  O14      1.0000 0.65120  0.31216  0.24310  Biso   1.000  O
  O15      1.0000 0.49480  0.33284  0.34980  Biso   1.000  O
  O16      1.0000 0.09070  0.32567  0.18650  Biso   1.000  O
  O17      1.0000 0.21170  0.29227  0.35050  Biso   1.000  O
  O18      1.0000 0.96080  0.30160  0.30900  Biso   1.000  O
  O19      1.0000 0.71670  0.09703  0.60220  Biso   1.000  O
  O20      1.0000 0.88470  0.05660  0.52670  Biso   1.000  O
  O21      1.0000 0.76440  0.01496  0.63640  Biso   1.000  O
  O22      1.0000 0.79950  0.10225  0.89950  Biso   1.000  O
  O23      1.0000 0.72660  0.02232  0.86920  Biso   1.000  O
  O24      1.0000 0.59910  0.07387  0.95867  Biso   1.000  O
  Zn7      1.0000 0.70378  0.76838  0.23154  Biso   1.000  Zn
  Zn8      1.0000 0.81316  0.59447  0.40671  Biso   1.000  Zn
  Zn9      1.0000 0.67985  0.58198  0.10552  Biso   1.000  Zn
  Zn10     1.0000 0.77200  0.66214  0.88424  Biso   1.000  Zn
  Zn11     1.0000 0.65626  0.66473  0.58566  Biso   1.000  Zn
  Zn12     1.0000 0.24809  0.51475  0.25882  Biso   1.000  Zn
  P9       1.0000 0.67313  0.68873  0.37479  Biso   1.000  P
  H9       1.0000 0.60230  0.67290  0.28910  Biso   1.000  H
  P10      1.0000 0.78094  0.68517  0.10474  Biso   1.000  P
  H10      1.0000 0.87920  0.67670  0.18310  Biso   1.000  H
  P11      1.0000 0.54031  0.54908  0.27523  Biso   1.000  P
  H11      1.0000 0.56210  0.50580  0.26180  Biso   1.000  H
  P12      1.0000 0.95676  0.54949  0.25115  Biso   1.000  P
  H12      1.0000 0.95340  0.50960  0.29360  Biso   1.000  H
  P13      1.0000 0.99081  0.80651  0.24110  Biso   1.000  P
  H13      1.0000 0.00680  0.76330  0.22240  Biso   1.000  H
  P14      1.0000 0.41546  0.79299  0.23042  Biso   1.000  P
  H14      1.0000 0.42910  0.75220  0.27060  Biso   1.000  H
  P15      1.0000 0.67945  0.56020  0.88512  Biso   1.000  P
  H15      1.0000 0.58380  0.57080  0.80650  Biso   1.000  H
  P16      1.0000 0.81831  0.57033  0.62001  Biso   1.000  P
  H16      1.0000 0.89710  0.58210  0.70630  Biso   1.000  H
  O25      1.0000 0.70900  0.73746  0.35700  Biso   1.000  O
  O26      1.0000 0.79920  0.66015  0.40380  Biso   1.000  O
  O27      1.0000 0.58600  0.68548  0.45010  Biso   1.000  O
  O28      1.0000 0.71790  0.72966  0.12300  Biso   1.000  O
  O29      1.0000 0.84140  0.68942  0.01470  Biso   1.000  O
  O30      1.0000 0.68090  0.64695  0.09520  Biso   1.000  O
  O31      1.0000 0.64710  0.56450  0.36230  Biso   1.000  O
  O32      1.0000 0.40520  0.55247  0.30040  Biso   1.000  O
  O33      1.0000 0.54180  0.57276  0.17870  Biso   1.000  O
  O34      1.0000 0.94540  0.58488  0.32860  Biso   1.000  O
  O35      1.0000 0.09040  0.55290  0.22290  Biso   1.000  O
  O36      1.0000 0.84270  0.55057  0.16080  Biso   1.000  O
  O37      1.0000 0.09180  0.81814  0.33500  Biso   1.000  O
  O38      1.0000 0.84880  0.81216  0.25690  Biso   1.000  O
  O39      1.0000 0.00520  0.83284  0.15020  Biso   1.000  O
  O40      1.0000 0.40930  0.82567  0.31350  Biso   1.000  O
  O41      1.0000 0.28830  0.79227  0.14950  Biso   1.000  O
  O42      1.0000 0.53920  0.80160  0.19100  Biso   1.000  O
  O43      1.0000 0.78330  0.59703  0.89780  Biso   1.000  O
  O44      1.0000 0.61530  0.55660  0.97330  Biso   1.000  O
  O45      1.0000 0.73560  0.51496  0.86360  Biso   1.000  O
  O46      1.0000 0.70050  0.60225  0.60050  Biso   1.000  O
  O47      1.0000 0.77340  0.52232  0.63080  Biso   1.000  O
  O48      1.0000 0.90090  0.57387  0.54133  Biso   1.000  O
  Zn13     1.0000 0.20378  0.73162  0.73154  Biso   1.000  Zn
  Zn14     1.0000 0.31316  0.90553  0.90671  Biso   1.000  Zn
  Zn15     1.0000 0.17985  0.91802  0.60552  Biso   1.000  Zn
  Zn16     1.0000 0.27200  0.83786  0.38424  Biso   1.000  Zn
  Zn17     1.0000 0.15626  0.83527  0.08566  Biso   1.000  Zn
  Zn18     1.0000 0.74809  0.98525  0.75882  Biso   1.000  Zn
  P17      1.0000 0.17313  0.81127  0.87479  Biso   1.000  P
  H17      1.0000 0.10230  0.82710  0.78910  Biso   1.000  H
  P18      1.0000 0.28094  0.81483  0.60474  Biso   1.000  P
  H18      1.0000 0.37920  0.82330  0.68310  Biso   1.000  H
  P19      1.0000 0.04031  0.95092  0.77523  Biso   1.000  P
  H19      1.0000 0.06210  0.99420  0.76180  Biso   1.000  H
  P20      1.0000 0.45676  0.95051  0.75115  Biso   1.000  P
  H20      1.0000 0.45340  0.99040  0.79360  Biso   1.000  H
  P21      1.0000 0.49081  0.69349  0.74110  Biso   1.000  P
  H21      1.0000 0.50680  0.73670  0.72240  Biso   1.000  H
  P22      1.0000 0.91546  0.70701  0.73042  Biso   1.000  P
  H22      1.0000 0.92910  0.74780  0.77060  Biso   1.000  H
  P23      1.0000 0.17945  0.93980  0.38512  Biso   1.000  P
  H23      1.0000 0.08380  0.92920  0.30650  Biso   1.000  H
  P24      1.0000 0.31831  0.92967  0.12001  Biso   1.000  P
  H24      1.0000 0.39710  0.91790  0.20630  Biso   1.000  H
  O49      1.0000 0.20900  0.76254  0.85700  Biso   1.000  O
  O50      1.0000 0.29920  0.83985  0.90380  Biso   1.000  O
  O51      1.0000 0.08600  0.81452  0.95010  Biso   1.000  O
  O52      1.0000 0.21790  0.77034  0.62300  Biso   1.000  O
  O53      1.0000 0.34140  0.81058  0.51470  Biso   1.000  O
  O54      1.0000 0.18090  0.85305  0.59520  Biso   1.000  O
  O55      1.0000 0.14710  0.93550  0.86230  Biso   1.000  O
  O56      1.0000 0.90520  0.94753  0.80040  Biso   1.000  O
  O57      1.0000 0.04180  0.92724  0.67870  Biso   1.000  O
  O58      1.0000 0.44540  0.91512  0.82860  Biso   1.000  O
  O59      1.0000 0.59040  0.94710  0.72290  Biso   1.000  O
  O60      1.0000 0.34270  0.94943  0.66080  Biso   1.000  O
  O61      1.0000 0.59180  0.68186  0.83500  Biso   1.000  O
  O62      1.0000 0.34880  0.68784  0.75690  Biso   1.000  O
  O63      1.0000 0.50520  0.66716  0.65020  Biso   1.000  O
  O64      1.0000 0.90930  0.67433  0.81350  Biso   1.000  O
  O65      1.0000 0.78830  0.70773  0.64950  Biso   1.000  O
  O66      1.0000 0.03920  0.69840  0.69100  Biso   1.000  O
  O67      1.0000 0.28330  0.90297  0.39780  Biso   1.000  O
  O68      1.0000 0.11530  0.94340  0.47330  Biso   1.000  O
  O69      1.0000 0.23560  0.98504  0.36360  Biso   1.000  O
  O70      1.0000 0.20050  0.89775  0.10050  Biso   1.000  O
  O71      1.0000 0.27340  0.97768  0.13080  Biso   1.000  O
  O72      1.0000 0.40090  0.92613  0.04133  Biso   1.000  O
  Zn19     1.0000 0.29622  0.23162  0.76846  Biso   1.000  Zn
  Zn20     1.0000 0.18684  0.40553  0.59329  Biso   1.000  Zn
  Zn21     1.0000 0.32015  0.41802  0.89448  Biso   1.000  Zn
  Zn22     1.0000 0.22800  0.33786  0.11576  Biso   1.000  Zn
  Zn23     1.0000 0.34374  0.33527  0.41434  Biso   1.000  Zn
  Zn24     1.0000 0.75191  0.48525  0.74118  Biso   1.000  Zn
  P25      1.0000 0.32687  0.31127  0.62521  Biso   1.000  P
  H25      1.0000 0.39770  0.32710  0.71090  Biso   1.000  H
  P26      1.0000 0.21906  0.31483  0.89526  Biso   1.000  P
  H26      1.0000 0.12080  0.32330  0.81690  Biso   1.000  H
  P27      1.0000 0.45969  0.45092  0.72477  Biso   1.000  P
  H27      1.0000 0.43790  0.49420  0.73820  Biso   1.000  H
  P28      1.0000 0.04324  0.45051  0.74885  Biso   1.000  P
  H28      1.0000 0.04660  0.49040  0.70640  Biso   1.000  H
  P29      1.0000 0.00919  0.19349  0.75890  Biso   1.000  P
  H29      1.0000 0.99320  0.23670  0.77760  Biso   1.000  H
  P30      1.0000 0.58454  0.20701  0.76958  Biso   1.000  P
  H30      1.0000 0.57090  0.24780  0.72940  Biso   1.000  H
  P31      1.0000 0.32055  0.43980  0.11488  Biso   1.000  P
  H31      1.0000 0.41620  0.42920  0.19350  Biso   1.000  H
  P32      1.0000 0.18169  0.42967  0.37999  Biso   1.000  P
  H32      1.0000 0.10290  0.41790  0.29370  Biso   1.000  H
  O73      1.0000 0.29100  0.26254  0.64300  Biso   1.000  O
  O74      1.0000 0.20080  0.33985  0.59620  Biso   1.000  O
  O75      1.0000 0.41400  0.31452  0.54990  Biso   1.000  O
  O76      1.0000 0.28210  0.27034  0.87700  Biso   1.000  O
  O77      1.0000 0.15860  0.31058  0.98530  Biso   1.000  O
  O78      1.0000 0.31910  0.35305  0.90480  Biso   1.000  O
  O79      1.0000 0.35290  0.43550  0.63770  Biso   1.000  O
  O80      1.0000 0.59480  0.44753  0.69960  Biso   1.000  O
  O81      1.0000 0.45820  0.42724  0.82130  Biso   1.000  O
  O82      1.0000 0.05460  0.41512  0.67140  Biso   1.000  O
  O83      1.0000 0.90960  0.44710  0.77710  Biso   1.000  O
  O84      1.0000 0.15730  0.44943  0.83920  Biso   1.000  O
  O85      1.0000 0.90820  0.18186  0.66500  Biso   1.000  O
  O86      1.0000 0.15120  0.18784  0.74310  Biso   1.000  O
  O87      1.0000 0.99480  0.16716  0.84980  Biso   1.000  O
  O88      1.0000 0.59070  0.17433  0.68650  Biso   1.000  O
  O89      1.0000 0.71170  0.20773  0.85050  Biso   1.000  O
  O90      1.0000 0.46080  0.19840  0.80900  Biso   1.000  O
  O91      1.0000 0.21670  0.40297  0.10220  Biso   1.000  O
  O92      1.0000 0.38470  0.44340  0.02670  Biso   1.000  O
  O93      1.0000 0.26440  0.48504  0.13640  Biso   1.000  O
  O94      1.0000 0.29950  0.39775  0.39950  Biso   1.000  O
  O95      1.0000 0.22660  0.47768  0.36920  Biso   1.000  O
  O96      1.0000 0.09910  0.42613  0.45867  Biso   1.000  O
