data_image0
_cell_length_a       8.5269
_cell_length_b       26.774
_cell_length_c       12.05
_cell_angle_alpha    90
_cell_angle_beta     105.38
_cell_angle_gamma    90

_symmetry_space_group_name_H-M    "P 1"
_symmetry_int_tables_number       1

loop_
  _symmetry_equiv_pos_as_xyz
  'x, y, z'

loop_
  _atom_site_label
  _atom_site_occupancy
  _atom_site_fract_x
  _atom_site_fract_y
  _atom_site_fract_z
  _atom_site_thermal_displace_type
  _atom_site_B_iso_or_equiv
  _atom_site_type_symbol
  Gd1      1.0000 0.21817  0.48156  0.48323  Biso   1.000  Gd
  Cu1      1.0000 0.90559  0.30212  0.98927  Biso   1.000  Cu
  O1       1.0000 0.01060  0.44080  0.34190  Biso   1.000  O
  O2       1.0000 0.78220  0.44840  0.39930  Biso   1.000  O
  O3       1.0000 0.04650  0.45690  0.59630  Biso   1.000  O
  O4       1.0000 0.82360  0.44870  0.65140  Biso   1.000  O
  O5       1.0000 0.42670  0.46820  0.65780  Biso   1.000  O
  O6       1.0000 0.58820  0.52600  0.61860  Biso   1.000  O
  N1       1.0000 0.78370  0.33760  0.09120  Biso   1.000  N
  N2       1.0000 0.03260  0.33850  0.89020  Biso   1.000  N
  N3       1.0000 0.82010  0.53760  0.97310  Biso   1.000  N
  C1       1.0000 0.85820  0.37100  0.17430  Biso   1.000  C
  H1       1.0000 0.96660  0.37890  0.18150  Biso   1.000  H
  C2       1.0000 0.78030  0.39340  0.24780  Biso   1.000  C
  C3       1.0000 0.61930  0.38160  0.23770  Biso   1.000  C
  H2       1.0000 0.56250  0.39690  0.28450  Biso   1.000  H
  C4       1.0000 0.54440  0.34660  0.15650  Biso   1.000  C
  H3       1.0000 0.43720  0.33740  0.15000  Biso   1.000  H
  C5       1.0000 0.62830  0.32530  0.08480  Biso   1.000  C
  H4       1.0000 0.57610  0.30180  0.03070  Biso   1.000  H
  C6       1.0000 0.86480  0.43020  0.33640  Biso   1.000  C
  C7       1.0000 0.96380  0.37340  0.81180  Biso   1.000  C
  H5       1.0000 0.85650  0.38250  0.80510  Biso   1.000  H
  C8       1.0000 0.04660  0.39650  0.74020  Biso   1.000  C
  C9       1.0000 0.20610  0.38230  0.74980  Biso   1.000  C
  H6       1.0000 0.26480  0.39710  0.70360  Biso   1.000  H
  C10      1.0000 0.27680  0.34600  0.82840  Biso   1.000  C
  H7       1.0000 0.38290  0.33540  0.83530  Biso   1.000  H
  C11      1.0000 0.18570  0.32580  0.89650  Biso   1.000  C
  H8       1.0000 0.23430  0.30170  0.95020  Biso   1.000  H
  C12      1.0000 0.96780  0.43620  0.65810  Biso   1.000  C
  C13      1.0000 0.74210  0.53580  0.85600  Biso   1.000  C
  H9       1.0000 0.76660  0.55950  0.80690  Biso   1.000  H
  C14      1.0000 0.63110  0.49990  0.81260  Biso   1.000  C
  C15      1.0000 0.60010  0.46530  0.89010  Biso   1.000  C
  H10      1.0000 0.52090  0.44120  0.86160  Biso   1.000  H
  C16      1.0000 0.67400  0.46400  0.00040  Biso   1.000  C
  H11      1.0000 0.65530  0.43860  0.04790  Biso   1.000  H
  C17      1.0000 0.77600  0.50040  0.04040  Biso   1.000  C
  H12      1.0000 0.82270  0.50160  0.11940  Biso   1.000  H
  C18      1.0000 0.54330  0.49730  0.68870  Biso   1.000  C
  Gd2      1.0000 0.78183  0.98156  0.51677  Biso   1.000  Gd
  Cu2      1.0000 0.09441  0.80212  0.01073  Biso   1.000  Cu
  O7       1.0000 0.98940  0.94080  0.65810  Biso   1.000  O
  O8       1.0000 0.21780  0.94840  0.60070  Biso   1.000  O
  O9       1.0000 0.95350  0.95690  0.40370  Biso   1.000  O
  O10      1.0000 0.17640  0.94870  0.34860  Biso   1.000  O
  O11      1.0000 0.57330  0.96820  0.34220  Biso   1.000  O
  O12      1.0000 0.41180  0.02600  0.38140  Biso   1.000  O
  N4       1.0000 0.21630  0.83760  0.90880  Biso   1.000  N
  N5       1.0000 0.96740  0.83850  0.10980  Biso   1.000  N
  N6       1.0000 0.17990  0.03760  0.02690  Biso   1.000  N
  C19      1.0000 0.14180  0.87100  0.82570  Biso   1.000  C
  H13      1.0000 0.03340  0.87890  0.81850  Biso   1.000  H
  C20      1.0000 0.21970  0.89340  0.75220  Biso   1.000  C
  C21      1.0000 0.38070  0.88160  0.76230  Biso   1.000  C
  H14      1.0000 0.43750  0.89690  0.71550  Biso   1.000  H
  C22      1.0000 0.45560  0.84660  0.84350  Biso   1.000  C
  H15      1.0000 0.56280  0.83740  0.85000  Biso   1.000  H
  C23      1.0000 0.37170  0.82530  0.91520  Biso   1.000  C
  H16      1.0000 0.42390  0.80180  0.96930  Biso   1.000  H
  C24      1.0000 0.13520  0.93020  0.66360  Biso   1.000  C
  C25      1.0000 0.03620  0.87340  0.18820  Biso   1.000  C
  H17      1.0000 0.14350  0.88250  0.19490  Biso   1.000  H
  C26      1.0000 0.95340  0.89650  0.25980  Biso   1.000  C
  C27      1.0000 0.79390  0.88230  0.25020  Biso   1.000  C
  H18      1.0000 0.73520  0.89710  0.29640  Biso   1.000  H
  C28      1.0000 0.72320  0.84600  0.17160  Biso   1.000  C
  H19      1.0000 0.61710  0.83540  0.16470  Biso   1.000  H
  C29      1.0000 0.81430  0.82580  0.10350  Biso   1.000  C
  H20      1.0000 0.76570  0.80170  0.04980  Biso   1.000  H
  C30      1.0000 0.03220  0.93620  0.34190  Biso   1.000  C
  C31      1.0000 0.25790  0.03580  0.14400  Biso   1.000  C
  H21      1.0000 0.23340  0.05950  0.19310  Biso   1.000  H
  C32      1.0000 0.36890  0.99990  0.18740  Biso   1.000  C
  C33      1.0000 0.39990  0.96530  0.10990  Biso   1.000  C
  H22      1.0000 0.47910  0.94120  0.13840  Biso   1.000  H
  C34      1.0000 0.32600  0.96400  0.99960  Biso   1.000  C
  H23      1.0000 0.34470  0.93860  0.95210  Biso   1.000  H
  C35      1.0000 0.22400  0.00040  0.95960  Biso   1.000  C
  H24      1.0000 0.17730  0.00160  0.88060  Biso   1.000  H
  C36      1.0000 0.45670  0.99730  0.31130  Biso   1.000  C
  Gd3      1.0000 0.78183  0.51844  0.51677  Biso   1.000  Gd
  Cu3      1.0000 0.09441  0.69788  0.01073  Biso   1.000  Cu
  O13      1.0000 0.98940  0.55920  0.65810  Biso   1.000  O
  O14      1.0000 0.21780  0.55160  0.60070  Biso   1.000  O
  O15      1.0000 0.95350  0.54310  0.40370  Biso   1.000  O
  O16      1.0000 0.17640  0.55130  0.34860  Biso   1.000  O
  O17      1.0000 0.57330  0.53180  0.34220  Biso   1.000  O
  O18      1.0000 0.41180  0.47400  0.38140  Biso   1.000  O
  N7       1.0000 0.21630  0.66240  0.90880  Biso   1.000  N
  N8       1.0000 0.96740  0.66150  0.10980  Biso   1.000  N
  N9       1.0000 0.17990  0.46240  0.02690  Biso   1.000  N
  C37      1.0000 0.14180  0.62900  0.82570  Biso   1.000  C
  H25      1.0000 0.03340  0.62110  0.81850  Biso   1.000  H
  C38      1.0000 0.21970  0.60660  0.75220  Biso   1.000  C
  C39      1.0000 0.38070  0.61840  0.76230  Biso   1.000  C
  H26      1.0000 0.43750  0.60310  0.71550  Biso   1.000  H
  C40      1.0000 0.45560  0.65340  0.84350  Biso   1.000  C
  H27      1.0000 0.56280  0.66260  0.85000  Biso   1.000  H
  C41      1.0000 0.37170  0.67470  0.91520  Biso   1.000  C
  H28      1.0000 0.42390  0.69820  0.96930  Biso   1.000  H
  C42      1.0000 0.13520  0.56980  0.66360  Biso   1.000  C
  C43      1.0000 0.03620  0.62660  0.18820  Biso   1.000  C
  H29      1.0000 0.14350  0.61750  0.19490  Biso   1.000  H
  C44      1.0000 0.95340  0.60350  0.25980  Biso   1.000  C
  C45      1.0000 0.79390  0.61770  0.25020  Biso   1.000  C
  H30      1.0000 0.73520  0.60290  0.29640  Biso   1.000  H
  C46      1.0000 0.72320  0.65400  0.17160  Biso   1.000  C
  H31      1.0000 0.61710  0.66460  0.16470  Biso   1.000  H
  C47      1.0000 0.81430  0.67420  0.10350  Biso   1.000  C
  H32      1.0000 0.76570  0.69830  0.04980  Biso   1.000  H
  C48      1.0000 0.03220  0.56380  0.34190  Biso   1.000  C
  C49      1.0000 0.25790  0.46420  0.14400  Biso   1.000  C
  H33      1.0000 0.23340  0.44050  0.19310  Biso   1.000  H
  C50      1.0000 0.36890  0.50010  0.18740  Biso   1.000  C
  C51      1.0000 0.39990  0.53470  0.10990  Biso   1.000  C
  H34      1.0000 0.47910  0.55880  0.13840  Biso   1.000  H
  C52      1.0000 0.32600  0.53600  0.99960  Biso   1.000  C
  H35      1.0000 0.34470  0.56140  0.95210  Biso   1.000  H
  C53      1.0000 0.22400  0.49960  0.95960  Biso   1.000  C
  H36      1.0000 0.17730  0.49840  0.88060  Biso   1.000  H
  C54      1.0000 0.45670  0.50270  0.31130  Biso   1.000  C
  Gd4      1.0000 0.21817  0.01844  0.48323  Biso   1.000  Gd
  Cu4      1.0000 0.90559  0.19788  0.98927  Biso   1.000  Cu
  O19      1.0000 0.01060  0.05920  0.34190  Biso   1.000  O
  O20      1.0000 0.78220  0.05160  0.39930  Biso   1.000  O
  O21      1.0000 0.04650  0.04310  0.59630  Biso   1.000  O
  O22      1.0000 0.82360  0.05130  0.65140  Biso   1.000  O
  O23      1.0000 0.42670  0.03180  0.65780  Biso   1.000  O
  O24      1.0000 0.58820  0.97400  0.61860  Biso   1.000  O
  N10      1.0000 0.78370  0.16240  0.09120  Biso   1.000  N
  N11      1.0000 0.03260  0.16150  0.89020  Biso   1.000  N
  N12      1.0000 0.82010  0.96240  0.97310  Biso   1.000  N
  C55      1.0000 0.85820  0.12900  0.17430  Biso   1.000  C
  H37      1.0000 0.96660  0.12110  0.18150  Biso   1.000  H
  C56      1.0000 0.78030  0.10660  0.24780  Biso   1.000  C
  C57      1.0000 0.61930  0.11840  0.23770  Biso   1.000  C
  H38      1.0000 0.56250  0.10310  0.28450  Biso   1.000  H
  C58      1.0000 0.54440  0.15340  0.15650  Biso   1.000  C
  H39      1.0000 0.43720  0.16260  0.15000  Biso   1.000  H
  C59      1.0000 0.62830  0.17470  0.08480  Biso   1.000  C
  H40      1.0000 0.57610  0.19820  0.03070  Biso   1.000  H
  C60      1.0000 0.86480  0.06980  0.33640  Biso   1.000  C
  C61      1.0000 0.96380  0.12660  0.81180  Biso   1.000  C
  H41      1.0000 0.85650  0.11750  0.80510  Biso   1.000  H
  C62      1.0000 0.04660  0.10350  0.74020  Biso   1.000  C
  C63      1.0000 0.20610  0.11770  0.74980  Biso   1.000  C
  H42      1.0000 0.26480  0.10290  0.70360  Biso   1.000  H
  C64      1.0000 0.27680  0.15400  0.82840  Biso   1.000  C
  H43      1.0000 0.38290  0.16460  0.83530  Biso   1.000  H
  C65      1.0000 0.18570  0.17420  0.89650  Biso   1.000  C
  H44      1.0000 0.23430  0.19830  0.95020  Biso   1.000  H
  C66      1.0000 0.96780  0.06380  0.65810  Biso   1.000  C
  C67      1.0000 0.74210  0.96420  0.85600  Biso   1.000  C
  H45      1.0000 0.76660  0.94050  0.80690  Biso   1.000  H
  C68      1.0000 0.63110  0.00010  0.81260  Biso   1.000  C
  C69      1.0000 0.60010  0.03470  0.89010  Biso   1.000  C
  H46      1.0000 0.52090  0.05880  0.86160  Biso   1.000  H
  C70      1.0000 0.67400  0.03600  0.00040  Biso   1.000  C
  H47      1.0000 0.65530  0.06140  0.04790  Biso   1.000  H
  C71      1.0000 0.77600  0.99960  0.04040  Biso   1.000  C
  H48      1.0000 0.82270  0.99840  0.11940  Biso   1.000  H
  C72      1.0000 0.54330  0.00270  0.68870  Biso   1.000  C
  I1       1.0000 0.13166  0.25000  0.14925  Biso   1.000  I
  I2       1.0000 0.68200  0.25000  0.83175  Biso   1.000  I
  I3       1.0000 0.86834  0.75000  0.85075  Biso   1.000  I
  I4       1.0000 0.31800  0.75000  0.16825  Biso   1.000  I
