data_image0
_cell_length_a       46.009
_cell_length_b       9.7333
_cell_length_c       20.7159
_cell_angle_alpha    90
_cell_angle_beta     105.77
_cell_angle_gamma    90

_symmetry_space_group_name_H-M    "P 1"
_symmetry_int_tables_number       1

loop_
  _symmetry_equiv_pos_as_xyz
  'x, y, z'

loop_
  _atom_site_label
  _atom_site_occupancy
  _atom_site_fract_x
  _atom_site_fract_y
  _atom_site_fract_z
  _atom_site_thermal_displace_type
  _atom_site_B_iso_or_equiv
  _atom_site_type_symbol
  Gd1      1.0000 0.49661  0.75163  0.48342  Biso   1.000  Gd
  Cu1      1.0000 0.21630  0.40674  0.36270  Biso   1.000  Cu
  Cu2      1.0000 0.26634  0.33117  0.46705  Biso   1.000  Cu
  Cu3      1.0000 0.25300  0.57667  0.33148  Biso   1.000  Cu
  I1       1.0000 0.21658  0.42144  0.49133  Biso   1.000  I
  I2       1.0000 0.26768  0.32180  0.33751  Biso   1.000  I
  I3       1.0000 0.19896  0.65422  0.31126  Biso   1.000  I
  O1       1.0000 0.45644  0.65510  0.52980  Biso   1.000  O
  O2       1.0000 0.47824  0.84570  0.57730  Biso   1.000  O
  O3       1.0000 0.45110  0.88320  0.43680  Biso   1.000  O
  O4       1.0000 0.46650  0.09190  0.47220  Biso   1.000  O
  O5       1.0000 0.52149  0.59960  0.56510  Biso   1.000  O
  O6       1.0000 0.53161  0.38740  0.60280  Biso   1.000  O
  N1       1.0000 0.30014  0.46300  0.51050  Biso   1.000  N
  N2       1.0000 0.28736  0.70580  0.34480  Biso   1.000  N
  N3       1.0000 0.68378  0.22980  0.81860  Biso   1.000  N
  C1       1.0000 0.32917  0.42290  0.52930  Biso   1.000  C
  H1       1.0000 0.33330  0.32940  0.52910  Biso   1.000  H
  C2       1.0000 0.35340  0.51300  0.54890  Biso   1.000  C
  H2       1.0000 0.37300  0.47890  0.56220  Biso   1.000  H
  C3       1.0000 0.34850  0.65120  0.54880  Biso   1.000  C
  C4       1.0000 0.31851  0.69570  0.53080  Biso   1.000  C
  H3       1.0000 0.31390  0.78860  0.53150  Biso   1.000  H
  C5       1.0000 0.29601  0.59930  0.51200  Biso   1.000  C
  H4       1.0000 0.27620  0.63120  0.49930  Biso   1.000  H
  C6       1.0000 0.37363  0.75180  0.56610  Biso   1.000  C
  C7       1.0000 0.40178  0.71640  0.55820  Biso   1.000  C
  H5       1.0000 0.40420  0.63090  0.54030  Biso   1.000  H
  C8       1.0000 0.42651  0.80490  0.57630  Biso   1.000  C
  C9       1.0000 0.42271  0.93530  0.60160  Biso   1.000  C
  H6       1.0000 0.43880  0.99640  0.61340  Biso   1.000  H
  C10      1.0000 0.39448  0.97250  0.60880  Biso   1.000  C
  H7       1.0000 0.39180  0.05890  0.62540  Biso   1.000  H
  C11      1.0000 0.37049  0.88160  0.59150  Biso   1.000  C
  H8       1.0000 0.35190  0.90790  0.59690  Biso   1.000  H
  C12      1.0000 0.45563  0.76530  0.56120  Biso   1.000  C
  C13      1.0000 0.31645  0.66580  0.36260  Biso   1.000  C
  H9       1.0000 0.32080  0.57230  0.36460  Biso   1.000  H
  C14      1.0000 0.33988  0.75740  0.37760  Biso   1.000  C
  H10      1.0000 0.35960  0.72430  0.38970  Biso   1.000  H
  C15      1.0000 0.33519  0.89600  0.37540  Biso   1.000  C
  C16      1.0000 0.30525  0.93800  0.35620  Biso   1.000  C
  H11      1.0000 0.30060  0.03110  0.35280  Biso   1.000  H
  C17      1.0000 0.28263  0.84220  0.34230  Biso   1.000  C
  H12      1.0000 0.26280  0.87330  0.33030  Biso   1.000  H
  C18      1.0000 0.36037  0.99930  0.39570  Biso   1.000  C
  C19      1.0000 0.39052  0.96070  0.40960  Biso   1.000  C
  H13      1.0000 0.39520  0.86910  0.40440  Biso   1.000  H
  C20      1.0000 0.41347  0.05250  0.43070  Biso   1.000  C
  C21      1.0000 0.40691  0.19050  0.43740  Biso   1.000  C
  H14      1.0000 0.42240  0.25420  0.45160  Biso   1.000  H
  C22      1.0000 0.37747  0.23100  0.42280  Biso   1.000  C
  H15      1.0000 0.37300  0.32320  0.42700  Biso   1.000  H
  C23      1.0000 0.35415  0.13820  0.40180  Biso   1.000  C
  H16      1.0000 0.33420  0.16830  0.39180  Biso   1.000  H
  C24      1.0000 0.44576  0.00750  0.44730  Biso   1.000  C
  C25      1.0000 0.65498  0.19120  0.79660  Biso   1.000  C
  H17      1.0000 0.65060  0.09850  0.79930  Biso   1.000  H
  C26      1.0000 0.63126  0.27900  0.77020  Biso   1.000  C
  H18      1.0000 0.61170  0.24470  0.75520  Biso   1.000  H
  C27      1.0000 0.63650  0.41740  0.76590  Biso   1.000  C
  C28      1.0000 0.66646  0.45960  0.78800  Biso   1.000  C
  H19      1.0000 0.67140  0.55160  0.78480  Biso   1.000  H
  C29      1.0000 0.68886  0.36550  0.81430  Biso   1.000  C
  H20      1.0000 0.70860  0.39720  0.83000  Biso   1.000  H
  C30      1.0000 0.61172  0.51400  0.73770  Biso   1.000  C
  C31      1.0000 0.58622  0.47300  0.68850  Biso   1.000  C
  H21      1.0000 0.58490  0.38260  0.67340  Biso   1.000  H
  C32      1.0000 0.56284  0.56200  0.66150  Biso   1.000  C
  C33      1.0000 0.56455  0.69570  0.68440  Biso   1.000  C
  H22      1.0000 0.54890  0.75690  0.66640  Biso   1.000  H
  C34      1.0000 0.58940  0.73860  0.73400  Biso   1.000  C
  H23      1.0000 0.59010  0.82790  0.75030  Biso   1.000  H
  C35      1.0000 0.61322  0.65030  0.75990  Biso   1.000  C
  H24      1.0000 0.63020  0.68140  0.79200  Biso   1.000  H
  C36      1.0000 0.53672  0.51390  0.60590  Biso   1.000  C
  Gd2      1.0000 0.99661  0.25163  0.48342  Biso   1.000  Gd
  Cu4      1.0000 0.71630  0.90674  0.36270  Biso   1.000  Cu
  Cu5      1.0000 0.76634  0.83117  0.46705  Biso   1.000  Cu
  Cu6      1.0000 0.75300  0.07667  0.33148  Biso   1.000  Cu
  I4       1.0000 0.71658  0.92144  0.49133  Biso   1.000  I
  I5       1.0000 0.76768  0.82180  0.33751  Biso   1.000  I
  I6       1.0000 0.69896  0.15422  0.31126  Biso   1.000  I
  O7       1.0000 0.95644  0.15510  0.52980  Biso   1.000  O
  O8       1.0000 0.97824  0.34570  0.57730  Biso   1.000  O
  O9       1.0000 0.95110  0.38320  0.43680  Biso   1.000  O
  O10      1.0000 0.96650  0.59190  0.47220  Biso   1.000  O
  O11      1.0000 0.02149  0.09960  0.56510  Biso   1.000  O
  O12      1.0000 0.03161  0.88740  0.60280  Biso   1.000  O
  N4       1.0000 0.80014  0.96300  0.51050  Biso   1.000  N
  N5       1.0000 0.78736  0.20580  0.34480  Biso   1.000  N
  N6       1.0000 0.18378  0.72980  0.81860  Biso   1.000  N
  C37      1.0000 0.82917  0.92290  0.52930  Biso   1.000  C
  H25      1.0000 0.83330  0.82940  0.52910  Biso   1.000  H
  C38      1.0000 0.85340  0.01300  0.54890  Biso   1.000  C
  H26      1.0000 0.87300  0.97890  0.56220  Biso   1.000  H
  C39      1.0000 0.84850  0.15120  0.54880  Biso   1.000  C
  C40      1.0000 0.81851  0.19570  0.53080  Biso   1.000  C
  H27      1.0000 0.81390  0.28860  0.53150  Biso   1.000  H
  C41      1.0000 0.79601  0.09930  0.51200  Biso   1.000  C
  H28      1.0000 0.77620  0.13120  0.49930  Biso   1.000  H
  C42      1.0000 0.87363  0.25180  0.56610  Biso   1.000  C
  C43      1.0000 0.90178  0.21640  0.55820  Biso   1.000  C
  H29      1.0000 0.90420  0.13090  0.54030  Biso   1.000  H
  C44      1.0000 0.92651  0.30490  0.57630  Biso   1.000  C
  C45      1.0000 0.92271  0.43530  0.60160  Biso   1.000  C
  H30      1.0000 0.93880  0.49640  0.61340  Biso   1.000  H
  C46      1.0000 0.89448  0.47250  0.60880  Biso   1.000  C
  H31      1.0000 0.89180  0.55890  0.62540  Biso   1.000  H
  C47      1.0000 0.87049  0.38160  0.59150  Biso   1.000  C
  H32      1.0000 0.85190  0.40790  0.59690  Biso   1.000  H
  C48      1.0000 0.95563  0.26530  0.56120  Biso   1.000  C
  C49      1.0000 0.81645  0.16580  0.36260  Biso   1.000  C
  H33      1.0000 0.82080  0.07230  0.36460  Biso   1.000  H
  C50      1.0000 0.83988  0.25740  0.37760  Biso   1.000  C
  H34      1.0000 0.85960  0.22430  0.38970  Biso   1.000  H
  C51      1.0000 0.83519  0.39600  0.37540  Biso   1.000  C
  C52      1.0000 0.80525  0.43800  0.35620  Biso   1.000  C
  H35      1.0000 0.80060  0.53110  0.35280  Biso   1.000  H
  C53      1.0000 0.78263  0.34220  0.34230  Biso   1.000  C
  H36      1.0000 0.76280  0.37330  0.33030  Biso   1.000  H
  C54      1.0000 0.86037  0.49930  0.39570  Biso   1.000  C
  C55      1.0000 0.89052  0.46070  0.40960  Biso   1.000  C
  H37      1.0000 0.89520  0.36910  0.40440  Biso   1.000  H
  C56      1.0000 0.91347  0.55250  0.43070  Biso   1.000  C
  C57      1.0000 0.90691  0.69050  0.43740  Biso   1.000  C
  H38      1.0000 0.92240  0.75420  0.45160  Biso   1.000  H
  C58      1.0000 0.87747  0.73100  0.42280  Biso   1.000  C
  H39      1.0000 0.87300  0.82320  0.42700  Biso   1.000  H
  C59      1.0000 0.85415  0.63820  0.40180  Biso   1.000  C
  H40      1.0000 0.83420  0.66830  0.39180  Biso   1.000  H
  C60      1.0000 0.94576  0.50750  0.44730  Biso   1.000  C
  C61      1.0000 0.15498  0.69120  0.79660  Biso   1.000  C
  H41      1.0000 0.15060  0.59850  0.79930  Biso   1.000  H
  C62      1.0000 0.13126  0.77900  0.77020  Biso   1.000  C
  H42      1.0000 0.11170  0.74470  0.75520  Biso   1.000  H
  C63      1.0000 0.13650  0.91740  0.76590  Biso   1.000  C
  C64      1.0000 0.16646  0.95960  0.78800  Biso   1.000  C
  H43      1.0000 0.17140  0.05160  0.78480  Biso   1.000  H
  C65      1.0000 0.18886  0.86550  0.81430  Biso   1.000  C
  H44      1.0000 0.20860  0.89720  0.83000  Biso   1.000  H
  C66      1.0000 0.11172  0.01400  0.73770  Biso   1.000  C
  C67      1.0000 0.08622  0.97300  0.68850  Biso   1.000  C
  H45      1.0000 0.08490  0.88260  0.67340  Biso   1.000  H
  C68      1.0000 0.06284  0.06200  0.66150  Biso   1.000  C
  C69      1.0000 0.06455  0.19570  0.68440  Biso   1.000  C
  H46      1.0000 0.04890  0.25690  0.66640  Biso   1.000  H
  C70      1.0000 0.08940  0.23860  0.73400  Biso   1.000  C
  H47      1.0000 0.09010  0.32790  0.75030  Biso   1.000  H
  C71      1.0000 0.11322  0.15030  0.75990  Biso   1.000  C
  H48      1.0000 0.13020  0.18140  0.79200  Biso   1.000  H
  C72      1.0000 0.03672  0.01390  0.60590  Biso   1.000  C
  Gd3      1.0000 0.50339  0.75163  0.01658  Biso   1.000  Gd
  Cu7      1.0000 0.78370  0.40674  0.13730  Biso   1.000  Cu
  Cu8      1.0000 0.73366  0.33117  0.03295  Biso   1.000  Cu
  Cu9      1.0000 0.74700  0.57667  0.16852  Biso   1.000  Cu
  I7       1.0000 0.78342  0.42144  0.00867  Biso   1.000  I
  I8       1.0000 0.73232  0.32180  0.16249  Biso   1.000  I
  I9       1.0000 0.80104  0.65422  0.18874  Biso   1.000  I
  O13      1.0000 0.54356  0.65510  0.97020  Biso   1.000  O
  O14      1.0000 0.52176  0.84570  0.92270  Biso   1.000  O
  O15      1.0000 0.54890  0.88320  0.06320  Biso   1.000  O
  O16      1.0000 0.53350  0.09190  0.02780  Biso   1.000  O
  O17      1.0000 0.47851  0.59960  0.93490  Biso   1.000  O
  O18      1.0000 0.46839  0.38740  0.89720  Biso   1.000  O
  N7       1.0000 0.69986  0.46300  0.98950  Biso   1.000  N
  N8       1.0000 0.71264  0.70580  0.15520  Biso   1.000  N
  N9       1.0000 0.31622  0.22980  0.68140  Biso   1.000  N
  C73      1.0000 0.67083  0.42290  0.97070  Biso   1.000  C
  H49      1.0000 0.66670  0.32940  0.97090  Biso   1.000  H
  C74      1.0000 0.64660  0.51300  0.95110  Biso   1.000  C
  H50      1.0000 0.62700  0.47890  0.93780  Biso   1.000  H
  C75      1.0000 0.65150  0.65120  0.95120  Biso   1.000  C
  C76      1.0000 0.68149  0.69570  0.96920  Biso   1.000  C
  H51      1.0000 0.68610  0.78860  0.96850  Biso   1.000  H
  C77      1.0000 0.70399  0.59930  0.98800  Biso   1.000  C
  H52      1.0000 0.72380  0.63120  0.00070  Biso   1.000  H
  C78      1.0000 0.62637  0.75180  0.93390  Biso   1.000  C
  C79      1.0000 0.59822  0.71640  0.94180  Biso   1.000  C
  H53      1.0000 0.59580  0.63090  0.95970  Biso   1.000  H
  C80      1.0000 0.57349  0.80490  0.92370  Biso   1.000  C
  C81      1.0000 0.57729  0.93530  0.89840  Biso   1.000  C
  H54      1.0000 0.56120  0.99640  0.88660  Biso   1.000  H
  C82      1.0000 0.60552  0.97250  0.89120  Biso   1.000  C
  H55      1.0000 0.60820  0.05890  0.87460  Biso   1.000  H
  C83      1.0000 0.62951  0.88160  0.90850  Biso   1.000  C
  H56      1.0000 0.64810  0.90790  0.90310  Biso   1.000  H
  C84      1.0000 0.54437  0.76530  0.93880  Biso   1.000  C
  C85      1.0000 0.68355  0.66580  0.13740  Biso   1.000  C
  H57      1.0000 0.67920  0.57230  0.13540  Biso   1.000  H
  C86      1.0000 0.66012  0.75740  0.12240  Biso   1.000  C
  H58      1.0000 0.64040  0.72430  0.11030  Biso   1.000  H
  C87      1.0000 0.66481  0.89600  0.12460  Biso   1.000  C
  C88      1.0000 0.69475  0.93800  0.14380  Biso   1.000  C
  H59      1.0000 0.69940  0.03110  0.14720  Biso   1.000  H
  C89      1.0000 0.71737  0.84220  0.15770  Biso   1.000  C
  H60      1.0000 0.73720  0.87330  0.16970  Biso   1.000  H
  C90      1.0000 0.63963  0.99930  0.10430  Biso   1.000  C
  C91      1.0000 0.60948  0.96070  0.09040  Biso   1.000  C
  H61      1.0000 0.60480  0.86910  0.09560  Biso   1.000  H
  C92      1.0000 0.58653  0.05250  0.06930  Biso   1.000  C
  C93      1.0000 0.59309  0.19050  0.06260  Biso   1.000  C
  H62      1.0000 0.57760  0.25420  0.04840  Biso   1.000  H
  C94      1.0000 0.62253  0.23100  0.07720  Biso   1.000  C
  H63      1.0000 0.62700  0.32320  0.07300  Biso   1.000  H
  C95      1.0000 0.64585  0.13820  0.09820  Biso   1.000  C
  H64      1.0000 0.66580  0.16830  0.10820  Biso   1.000  H
  C96      1.0000 0.55424  0.00750  0.05270  Biso   1.000  C
  C97      1.0000 0.34502  0.19120  0.70340  Biso   1.000  C
  H65      1.0000 0.34940  0.09850  0.70070  Biso   1.000  H
  C98      1.0000 0.36874  0.27900  0.72980  Biso   1.000  C
  H66      1.0000 0.38830  0.24470  0.74480  Biso   1.000  H
  C99      1.0000 0.36350  0.41740  0.73410  Biso   1.000  C
  C100     1.0000 0.33354  0.45960  0.71200  Biso   1.000  C
  H67      1.0000 0.32860  0.55160  0.71520  Biso   1.000  H
  C101     1.0000 0.31114  0.36550  0.68570  Biso   1.000  C
  H68      1.0000 0.29140  0.39720  0.67000  Biso   1.000  H
  C102     1.0000 0.38828  0.51400  0.76230  Biso   1.000  C
  C103     1.0000 0.41378  0.47300  0.81150  Biso   1.000  C
  H69      1.0000 0.41510  0.38260  0.82660  Biso   1.000  H
  C104     1.0000 0.43716  0.56200  0.83850  Biso   1.000  C
  C105     1.0000 0.43545  0.69570  0.81560  Biso   1.000  C
  H70      1.0000 0.45110  0.75690  0.83360  Biso   1.000  H
  C106     1.0000 0.41060  0.73860  0.76600  Biso   1.000  C
  H71      1.0000 0.40990  0.82790  0.74970  Biso   1.000  H
  C107     1.0000 0.38678  0.65030  0.74010  Biso   1.000  C
  H72      1.0000 0.36980  0.68140  0.70800  Biso   1.000  H
  C108     1.0000 0.46328  0.51390  0.89410  Biso   1.000  C
  Gd4      1.0000 0.00339  0.25163  0.01658  Biso   1.000  Gd
  Cu10     1.0000 0.28370  0.90674  0.13730  Biso   1.000  Cu
  Cu11     1.0000 0.23366  0.83117  0.03295  Biso   1.000  Cu
  Cu12     1.0000 0.24700  0.07667  0.16852  Biso   1.000  Cu
  I10      1.0000 0.28342  0.92144  0.00867  Biso   1.000  I
  I11      1.0000 0.23232  0.82180  0.16249  Biso   1.000  I
  I12      1.0000 0.30104  0.15422  0.18874  Biso   1.000  I
  O19      1.0000 0.04356  0.15510  0.97020  Biso   1.000  O
  O20      1.0000 0.02176  0.34570  0.92270  Biso   1.000  O
  O21      1.0000 0.04890  0.38320  0.06320  Biso   1.000  O
  O22      1.0000 0.03350  0.59190  0.02780  Biso   1.000  O
  O23      1.0000 0.97851  0.09960  0.93490  Biso   1.000  O
  O24      1.0000 0.96839  0.88740  0.89720  Biso   1.000  O
  N10      1.0000 0.19986  0.96300  0.98950  Biso   1.000  N
  N11      1.0000 0.21264  0.20580  0.15520  Biso   1.000  N
  N12      1.0000 0.81622  0.72980  0.68140  Biso   1.000  N
  C109     1.0000 0.17083  0.92290  0.97070  Biso   1.000  C
  H73      1.0000 0.16670  0.82940  0.97090  Biso   1.000  H
  C110     1.0000 0.14660  0.01300  0.95110  Biso   1.000  C
  H74      1.0000 0.12700  0.97890  0.93780  Biso   1.000  H
  C111     1.0000 0.15150  0.15120  0.95120  Biso   1.000  C
  C112     1.0000 0.18149  0.19570  0.96920  Biso   1.000  C
  H75      1.0000 0.18610  0.28860  0.96850  Biso   1.000  H
  C113     1.0000 0.20399  0.09930  0.98800  Biso   1.000  C
  H76      1.0000 0.22380  0.13120  0.00070  Biso   1.000  H
  C114     1.0000 0.12637  0.25180  0.93390  Biso   1.000  C
  C115     1.0000 0.09822  0.21640  0.94180  Biso   1.000  C
  H77      1.0000 0.09580  0.13090  0.95970  Biso   1.000  H
  C116     1.0000 0.07349  0.30490  0.92370  Biso   1.000  C
  C117     1.0000 0.07729  0.43530  0.89840  Biso   1.000  C
  H78      1.0000 0.06120  0.49640  0.88660  Biso   1.000  H
  C118     1.0000 0.10552  0.47250  0.89120  Biso   1.000  C
  H79      1.0000 0.10820  0.55890  0.87460  Biso   1.000  H
  C119     1.0000 0.12951  0.38160  0.90850  Biso   1.000  C
  H80      1.0000 0.14810  0.40790  0.90310  Biso   1.000  H
  C120     1.0000 0.04437  0.26530  0.93880  Biso   1.000  C
  C121     1.0000 0.18355  0.16580  0.13740  Biso   1.000  C
  H81      1.0000 0.17920  0.07230  0.13540  Biso   1.000  H
  C122     1.0000 0.16012  0.25740  0.12240  Biso   1.000  C
  H82      1.0000 0.14040  0.22430  0.11030  Biso   1.000  H
  C123     1.0000 0.16481  0.39600  0.12460  Biso   1.000  C
  C124     1.0000 0.19475  0.43800  0.14380  Biso   1.000  C
  H83      1.0000 0.19940  0.53110  0.14720  Biso   1.000  H
  C125     1.0000 0.21737  0.34220  0.15770  Biso   1.000  C
  H84      1.0000 0.23720  0.37330  0.16970  Biso   1.000  H
  C126     1.0000 0.13963  0.49930  0.10430  Biso   1.000  C
  C127     1.0000 0.10948  0.46070  0.09040  Biso   1.000  C
  H85      1.0000 0.10480  0.36910  0.09560  Biso   1.000  H
  C128     1.0000 0.08653  0.55250  0.06930  Biso   1.000  C
  C129     1.0000 0.09309  0.69050  0.06260  Biso   1.000  C
  H86      1.0000 0.07760  0.75420  0.04840  Biso   1.000  H
  C130     1.0000 0.12253  0.73100  0.07720  Biso   1.000  C
  H87      1.0000 0.12700  0.82320  0.07300  Biso   1.000  H
  C131     1.0000 0.14585  0.63820  0.09820  Biso   1.000  C
  H88      1.0000 0.16580  0.66830  0.10820  Biso   1.000  H
  C132     1.0000 0.05424  0.50750  0.05270  Biso   1.000  C
  C133     1.0000 0.84502  0.69120  0.70340  Biso   1.000  C
  H89      1.0000 0.84940  0.59850  0.70070  Biso   1.000  H
  C134     1.0000 0.86874  0.77900  0.72980  Biso   1.000  C
  H90      1.0000 0.88830  0.74470  0.74480  Biso   1.000  H
  C135     1.0000 0.86350  0.91740  0.73410  Biso   1.000  C
  C136     1.0000 0.83354  0.95960  0.71200  Biso   1.000  C
  H91      1.0000 0.82860  0.05160  0.71520  Biso   1.000  H
  C137     1.0000 0.81114  0.86550  0.68570  Biso   1.000  C
  H92      1.0000 0.79140  0.89720  0.67000  Biso   1.000  H
  C138     1.0000 0.88828  0.01400  0.76230  Biso   1.000  C
  C139     1.0000 0.91378  0.97300  0.81150  Biso   1.000  C
  H93      1.0000 0.91510  0.88260  0.82660  Biso   1.000  H
  C140     1.0000 0.93716  0.06200  0.83850  Biso   1.000  C
  C141     1.0000 0.93545  0.19570  0.81560  Biso   1.000  C
  H94      1.0000 0.95110  0.25690  0.83360  Biso   1.000  H
  C142     1.0000 0.91060  0.23860  0.76600  Biso   1.000  C
  H95      1.0000 0.90990  0.32790  0.74970  Biso   1.000  H
  C143     1.0000 0.88678  0.15030  0.74010  Biso   1.000  C
  H96      1.0000 0.86980  0.18140  0.70800  Biso   1.000  H
  C144     1.0000 0.96328  0.01390  0.89410  Biso   1.000  C
  Gd5      1.0000 0.50339  0.24837  0.51658  Biso   1.000  Gd
  Cu13     1.0000 0.78370  0.59326  0.63730  Biso   1.000  Cu
  Cu14     1.0000 0.73366  0.66883  0.53295  Biso   1.000  Cu
  Cu15     1.0000 0.74700  0.42333  0.66852  Biso   1.000  Cu
  I13      1.0000 0.78342  0.57856  0.50867  Biso   1.000  I
  I14      1.0000 0.73232  0.67820  0.66249  Biso   1.000  I
  I15      1.0000 0.80104  0.34578  0.68874  Biso   1.000  I
  O25      1.0000 0.54356  0.34490  0.47020  Biso   1.000  O
  O26      1.0000 0.52176  0.15430  0.42270  Biso   1.000  O
  O27      1.0000 0.54890  0.11680  0.56320  Biso   1.000  O
  O28      1.0000 0.53350  0.90810  0.52780  Biso   1.000  O
  O29      1.0000 0.47851  0.40040  0.43490  Biso   1.000  O
  O30      1.0000 0.46839  0.61260  0.39720  Biso   1.000  O
  N13      1.0000 0.69986  0.53700  0.48950  Biso   1.000  N
  N14      1.0000 0.71264  0.29420  0.65520  Biso   1.000  N
  N15      1.0000 0.31622  0.77020  0.18140  Biso   1.000  N
  C145     1.0000 0.67083  0.57710  0.47070  Biso   1.000  C
  H97      1.0000 0.66670  0.67060  0.47090  Biso   1.000  H
  C146     1.0000 0.64660  0.48700  0.45110  Biso   1.000  C
  H98      1.0000 0.62700  0.52110  0.43780  Biso   1.000  H
  C147     1.0000 0.65150  0.34880  0.45120  Biso   1.000  C
  C148     1.0000 0.68149  0.30430  0.46920  Biso   1.000  C
  H99      1.0000 0.68610  0.21140  0.46850  Biso   1.000  H
  C149     1.0000 0.70399  0.40070  0.48800  Biso   1.000  C
  H100     1.0000 0.72380  0.36880  0.50070  Biso   1.000  H
  C150     1.0000 0.62637  0.24820  0.43390  Biso   1.000  C
  C151     1.0000 0.59822  0.28360  0.44180  Biso   1.000  C
  H101     1.0000 0.59580  0.36910  0.45970  Biso   1.000  H
  C152     1.0000 0.57349  0.19510  0.42370  Biso   1.000  C
  C153     1.0000 0.57729  0.06470  0.39840  Biso   1.000  C
  H102     1.0000 0.56120  0.00360  0.38660  Biso   1.000  H
  C154     1.0000 0.60552  0.02750  0.39120  Biso   1.000  C
  H103     1.0000 0.60820  0.94110  0.37460  Biso   1.000  H
  C155     1.0000 0.62951  0.11840  0.40850  Biso   1.000  C
  H104     1.0000 0.64810  0.09210  0.40310  Biso   1.000  H
  C156     1.0000 0.54437  0.23470  0.43880  Biso   1.000  C
  C157     1.0000 0.68355  0.33420  0.63740  Biso   1.000  C
  H105     1.0000 0.67920  0.42770  0.63540  Biso   1.000  H
  C158     1.0000 0.66012  0.24260  0.62240  Biso   1.000  C
  H106     1.0000 0.64040  0.27570  0.61030  Biso   1.000  H
  C159     1.0000 0.66481  0.10400  0.62460  Biso   1.000  C
  C160     1.0000 0.69475  0.06200  0.64380  Biso   1.000  C
  H107     1.0000 0.69940  0.96890  0.64720  Biso   1.000  H
  C161     1.0000 0.71737  0.15780  0.65770  Biso   1.000  C
  H108     1.0000 0.73720  0.12670  0.66970  Biso   1.000  H
  C162     1.0000 0.63963  0.00070  0.60430  Biso   1.000  C
  C163     1.0000 0.60948  0.03930  0.59040  Biso   1.000  C
  H109     1.0000 0.60480  0.13090  0.59560  Biso   1.000  H
  C164     1.0000 0.58653  0.94750  0.56930  Biso   1.000  C
  C165     1.0000 0.59309  0.80950  0.56260  Biso   1.000  C
  H110     1.0000 0.57760  0.74580  0.54840  Biso   1.000  H
  C166     1.0000 0.62253  0.76900  0.57720  Biso   1.000  C
  H111     1.0000 0.62700  0.67680  0.57300  Biso   1.000  H
  C167     1.0000 0.64585  0.86180  0.59820  Biso   1.000  C
  H112     1.0000 0.66580  0.83170  0.60820  Biso   1.000  H
  C168     1.0000 0.55424  0.99250  0.55270  Biso   1.000  C
  C169     1.0000 0.34502  0.80880  0.20340  Biso   1.000  C
  H113     1.0000 0.34940  0.90150  0.20070  Biso   1.000  H
  C170     1.0000 0.36874  0.72100  0.22980  Biso   1.000  C
  H114     1.0000 0.38830  0.75530  0.24480  Biso   1.000  H
  C171     1.0000 0.36350  0.58260  0.23410  Biso   1.000  C
  C172     1.0000 0.33354  0.54040  0.21200  Biso   1.000  C
  H115     1.0000 0.32860  0.44840  0.21520  Biso   1.000  H
  C173     1.0000 0.31114  0.63450  0.18570  Biso   1.000  C
  H116     1.0000 0.29140  0.60280  0.17000  Biso   1.000  H
  C174     1.0000 0.38828  0.48600  0.26230  Biso   1.000  C
  C175     1.0000 0.41378  0.52700  0.31150  Biso   1.000  C
  H117     1.0000 0.41510  0.61740  0.32660  Biso   1.000  H
  C176     1.0000 0.43716  0.43800  0.33850  Biso   1.000  C
  C177     1.0000 0.43545  0.30430  0.31560  Biso   1.000  C
  H118     1.0000 0.45110  0.24310  0.33360  Biso   1.000  H
  C178     1.0000 0.41060  0.26140  0.26600  Biso   1.000  C
  H119     1.0000 0.40990  0.17210  0.24970  Biso   1.000  H
  C179     1.0000 0.38678  0.34970  0.24010  Biso   1.000  C
  H120     1.0000 0.36980  0.31860  0.20800  Biso   1.000  H
  C180     1.0000 0.46328  0.48610  0.39410  Biso   1.000  C
  Gd6      1.0000 0.00339  0.74837  0.51658  Biso   1.000  Gd
  Cu16     1.0000 0.28370  0.09326  0.63730  Biso   1.000  Cu
  Cu17     1.0000 0.23366  0.16883  0.53295  Biso   1.000  Cu
  Cu18     1.0000 0.24700  0.92333  0.66852  Biso   1.000  Cu
  I16      1.0000 0.28342  0.07856  0.50867  Biso   1.000  I
  I17      1.0000 0.23232  0.17820  0.66249  Biso   1.000  I
  I18      1.0000 0.30104  0.84578  0.68874  Biso   1.000  I
  O31      1.0000 0.04356  0.84490  0.47020  Biso   1.000  O
  O32      1.0000 0.02176  0.65430  0.42270  Biso   1.000  O
  O33      1.0000 0.04890  0.61680  0.56320  Biso   1.000  O
  O34      1.0000 0.03350  0.40810  0.52780  Biso   1.000  O
  O35      1.0000 0.97851  0.90040  0.43490  Biso   1.000  O
  O36      1.0000 0.96839  0.11260  0.39720  Biso   1.000  O
  N16      1.0000 0.19986  0.03700  0.48950  Biso   1.000  N
  N17      1.0000 0.21264  0.79420  0.65520  Biso   1.000  N
  N18      1.0000 0.81622  0.27020  0.18140  Biso   1.000  N
  C181     1.0000 0.17083  0.07710  0.47070  Biso   1.000  C
  H121     1.0000 0.16670  0.17060  0.47090  Biso   1.000  H
  C182     1.0000 0.14660  0.98700  0.45110  Biso   1.000  C
  H122     1.0000 0.12700  0.02110  0.43780  Biso   1.000  H
  C183     1.0000 0.15150  0.84880  0.45120  Biso   1.000  C
  C184     1.0000 0.18149  0.80430  0.46920  Biso   1.000  C
  H123     1.0000 0.18610  0.71140  0.46850  Biso   1.000  H
  C185     1.0000 0.20399  0.90070  0.48800  Biso   1.000  C
  H124     1.0000 0.22380  0.86880  0.50070  Biso   1.000  H
  C186     1.0000 0.12637  0.74820  0.43390  Biso   1.000  C
  C187     1.0000 0.09822  0.78360  0.44180  Biso   1.000  C
  H125     1.0000 0.09580  0.86910  0.45970  Biso   1.000  H
  C188     1.0000 0.07349  0.69510  0.42370  Biso   1.000  C
  C189     1.0000 0.07729  0.56470  0.39840  Biso   1.000  C
  H126     1.0000 0.06120  0.50360  0.38660  Biso   1.000  H
  C190     1.0000 0.10552  0.52750  0.39120  Biso   1.000  C
  H127     1.0000 0.10820  0.44110  0.37460  Biso   1.000  H
  C191     1.0000 0.12951  0.61840  0.40850  Biso   1.000  C
  H128     1.0000 0.14810  0.59210  0.40310  Biso   1.000  H
  C192     1.0000 0.04437  0.73470  0.43880  Biso   1.000  C
  C193     1.0000 0.18355  0.83420  0.63740  Biso   1.000  C
  H129     1.0000 0.17920  0.92770  0.63540  Biso   1.000  H
  C194     1.0000 0.16012  0.74260  0.62240  Biso   1.000  C
  H130     1.0000 0.14040  0.77570  0.61030  Biso   1.000  H
  C195     1.0000 0.16481  0.60400  0.62460  Biso   1.000  C
  C196     1.0000 0.19475  0.56200  0.64380  Biso   1.000  C
  H131     1.0000 0.19940  0.46890  0.64720  Biso   1.000  H
  C197     1.0000 0.21737  0.65780  0.65770  Biso   1.000  C
  H132     1.0000 0.23720  0.62670  0.66970  Biso   1.000  H
  C198     1.0000 0.13963  0.50070  0.60430  Biso   1.000  C
  C199     1.0000 0.10948  0.53930  0.59040  Biso   1.000  C
  H133     1.0000 0.10480  0.63090  0.59560  Biso   1.000  H
  C200     1.0000 0.08653  0.44750  0.56930  Biso   1.000  C
  C201     1.0000 0.09309  0.30950  0.56260  Biso   1.000  C
  H134     1.0000 0.07760  0.24580  0.54840  Biso   1.000  H
  C202     1.0000 0.12253  0.26900  0.57720  Biso   1.000  C
  H135     1.0000 0.12700  0.17680  0.57300  Biso   1.000  H
  C203     1.0000 0.14585  0.36180  0.59820  Biso   1.000  C
  H136     1.0000 0.16580  0.33170  0.60820  Biso   1.000  H
  C204     1.0000 0.05424  0.49250  0.55270  Biso   1.000  C
  C205     1.0000 0.84502  0.30880  0.20340  Biso   1.000  C
  H137     1.0000 0.84940  0.40150  0.20070  Biso   1.000  H
  C206     1.0000 0.86874  0.22100  0.22980  Biso   1.000  C
  H138     1.0000 0.88830  0.25530  0.24480  Biso   1.000  H
  C207     1.0000 0.86350  0.08260  0.23410  Biso   1.000  C
  C208     1.0000 0.83354  0.04040  0.21200  Biso   1.000  C
  H139     1.0000 0.82860  0.94840  0.21520  Biso   1.000  H
  C209     1.0000 0.81114  0.13450  0.18570  Biso   1.000  C
  H140     1.0000 0.79140  0.10280  0.17000  Biso   1.000  H
  C210     1.0000 0.88828  0.98600  0.26230  Biso   1.000  C
  C211     1.0000 0.91378  0.02700  0.31150  Biso   1.000  C
  H141     1.0000 0.91510  0.11740  0.32660  Biso   1.000  H
  C212     1.0000 0.93716  0.93800  0.33850  Biso   1.000  C
  C213     1.0000 0.93545  0.80430  0.31560  Biso   1.000  C
  H142     1.0000 0.95110  0.74310  0.33360  Biso   1.000  H
  C214     1.0000 0.91060  0.76140  0.26600  Biso   1.000  C
  H143     1.0000 0.90990  0.67210  0.24970  Biso   1.000  H
  C215     1.0000 0.88678  0.84970  0.24010  Biso   1.000  C
  H144     1.0000 0.86980  0.81860  0.20800  Biso   1.000  H
  C216     1.0000 0.96328  0.98610  0.39410  Biso   1.000  C
  Gd7      1.0000 0.49661  0.24837  0.98342  Biso   1.000  Gd
  Cu19     1.0000 0.21630  0.59326  0.86270  Biso   1.000  Cu
  Cu20     1.0000 0.26634  0.66883  0.96705  Biso   1.000  Cu
  Cu21     1.0000 0.25300  0.42333  0.83148  Biso   1.000  Cu
  I19      1.0000 0.21658  0.57856  0.99133  Biso   1.000  I
  I20      1.0000 0.26768  0.67820  0.83751  Biso   1.000  I
  I21      1.0000 0.19896  0.34578  0.81126  Biso   1.000  I
  O37      1.0000 0.45644  0.34490  0.02980  Biso   1.000  O
  O38      1.0000 0.47824  0.15430  0.07730  Biso   1.000  O
  O39      1.0000 0.45110  0.11680  0.93680  Biso   1.000  O
  O40      1.0000 0.46650  0.90810  0.97220  Biso   1.000  O
  O41      1.0000 0.52149  0.40040  0.06510  Biso   1.000  O
  O42      1.0000 0.53161  0.61260  0.10280  Biso   1.000  O
  N19      1.0000 0.30014  0.53700  0.01050  Biso   1.000  N
  N20      1.0000 0.28736  0.29420  0.84480  Biso   1.000  N
  N21      1.0000 0.68378  0.77020  0.31860  Biso   1.000  N
  C217     1.0000 0.32917  0.57710  0.02930  Biso   1.000  C
  H145     1.0000 0.33330  0.67060  0.02910  Biso   1.000  H
  C218     1.0000 0.35340  0.48700  0.04890  Biso   1.000  C
  H146     1.0000 0.37300  0.52110  0.06220  Biso   1.000  H
  C219     1.0000 0.34850  0.34880  0.04880  Biso   1.000  C
  C220     1.0000 0.31851  0.30430  0.03080  Biso   1.000  C
  H147     1.0000 0.31390  0.21140  0.03150  Biso   1.000  H
  C221     1.0000 0.29601  0.40070  0.01200  Biso   1.000  C
  H148     1.0000 0.27620  0.36880  0.99930  Biso   1.000  H
  C222     1.0000 0.37363  0.24820  0.06610  Biso   1.000  C
  C223     1.0000 0.40178  0.28360  0.05820  Biso   1.000  C
  H149     1.0000 0.40420  0.36910  0.04030  Biso   1.000  H
  C224     1.0000 0.42651  0.19510  0.07630  Biso   1.000  C
  C225     1.0000 0.42271  0.06470  0.10160  Biso   1.000  C
  H150     1.0000 0.43880  0.00360  0.11340  Biso   1.000  H
  C226     1.0000 0.39448  0.02750  0.10880  Biso   1.000  C
  H151     1.0000 0.39180  0.94110  0.12540  Biso   1.000  H
  C227     1.0000 0.37049  0.11840  0.09150  Biso   1.000  C
  H152     1.0000 0.35190  0.09210  0.09690  Biso   1.000  H
  C228     1.0000 0.45563  0.23470  0.06120  Biso   1.000  C
  C229     1.0000 0.31645  0.33420  0.86260  Biso   1.000  C
  H153     1.0000 0.32080  0.42770  0.86460  Biso   1.000  H
  C230     1.0000 0.33988  0.24260  0.87760  Biso   1.000  C
  H154     1.0000 0.35960  0.27570  0.88970  Biso   1.000  H
  C231     1.0000 0.33519  0.10400  0.87540  Biso   1.000  C
  C232     1.0000 0.30525  0.06200  0.85620  Biso   1.000  C
  H155     1.0000 0.30060  0.96890  0.85280  Biso   1.000  H
  C233     1.0000 0.28263  0.15780  0.84230  Biso   1.000  C
  H156     1.0000 0.26280  0.12670  0.83030  Biso   1.000  H
  C234     1.0000 0.36037  0.00070  0.89570  Biso   1.000  C
  C235     1.0000 0.39052  0.03930  0.90960  Biso   1.000  C
  H157     1.0000 0.39520  0.13090  0.90440  Biso   1.000  H
  C236     1.0000 0.41347  0.94750  0.93070  Biso   1.000  C
  C237     1.0000 0.40691  0.80950  0.93740  Biso   1.000  C
  H158     1.0000 0.42240  0.74580  0.95160  Biso   1.000  H
  C238     1.0000 0.37747  0.76900  0.92280  Biso   1.000  C
  H159     1.0000 0.37300  0.67680  0.92700  Biso   1.000  H
  C239     1.0000 0.35415  0.86180  0.90180  Biso   1.000  C
  H160     1.0000 0.33420  0.83170  0.89180  Biso   1.000  H
  C240     1.0000 0.44576  0.99250  0.94730  Biso   1.000  C
  C241     1.0000 0.65498  0.80880  0.29660  Biso   1.000  C
  H161     1.0000 0.65060  0.90150  0.29930  Biso   1.000  H
  C242     1.0000 0.63126  0.72100  0.27020  Biso   1.000  C
  H162     1.0000 0.61170  0.75530  0.25520  Biso   1.000  H
  C243     1.0000 0.63650  0.58260  0.26590  Biso   1.000  C
  C244     1.0000 0.66646  0.54040  0.28800  Biso   1.000  C
  H163     1.0000 0.67140  0.44840  0.28480  Biso   1.000  H
  C245     1.0000 0.68886  0.63450  0.31430  Biso   1.000  C
  H164     1.0000 0.70860  0.60280  0.33000  Biso   1.000  H
  C246     1.0000 0.61172  0.48600  0.23770  Biso   1.000  C
  C247     1.0000 0.58622  0.52700  0.18850  Biso   1.000  C
  H165     1.0000 0.58490  0.61740  0.17340  Biso   1.000  H
  C248     1.0000 0.56284  0.43800  0.16150  Biso   1.000  C
  C249     1.0000 0.56455  0.30430  0.18440  Biso   1.000  C
  H166     1.0000 0.54890  0.24310  0.16640  Biso   1.000  H
  C250     1.0000 0.58940  0.26140  0.23400  Biso   1.000  C
  H167     1.0000 0.59010  0.17210  0.25030  Biso   1.000  H
  C251     1.0000 0.61322  0.34970  0.25990  Biso   1.000  C
  H168     1.0000 0.63020  0.31860  0.29200  Biso   1.000  H
  C252     1.0000 0.53672  0.48610  0.10590  Biso   1.000  C
  Gd8      1.0000 0.99661  0.74837  0.98342  Biso   1.000  Gd
  Cu22     1.0000 0.71630  0.09326  0.86270  Biso   1.000  Cu
  Cu23     1.0000 0.76634  0.16883  0.96705  Biso   1.000  Cu
  Cu24     1.0000 0.75300  0.92333  0.83148  Biso   1.000  Cu
  I22      1.0000 0.71658  0.07856  0.99133  Biso   1.000  I
  I23      1.0000 0.76768  0.17820  0.83751  Biso   1.000  I
  I24      1.0000 0.69896  0.84578  0.81126  Biso   1.000  I
  O43      1.0000 0.95644  0.84490  0.02980  Biso   1.000  O
  O44      1.0000 0.97824  0.65430  0.07730  Biso   1.000  O
  O45      1.0000 0.95110  0.61680  0.93680  Biso   1.000  O
  O46      1.0000 0.96650  0.40810  0.97220  Biso   1.000  O
  O47      1.0000 0.02149  0.90040  0.06510  Biso   1.000  O
  O48      1.0000 0.03161  0.11260  0.10280  Biso   1.000  O
  N22      1.0000 0.80014  0.03700  0.01050  Biso   1.000  N
  N23      1.0000 0.78736  0.79420  0.84480  Biso   1.000  N
  N24      1.0000 0.18378  0.27020  0.31860  Biso   1.000  N
  C253     1.0000 0.82917  0.07710  0.02930  Biso   1.000  C
  H169     1.0000 0.83330  0.17060  0.02910  Biso   1.000  H
  C254     1.0000 0.85340  0.98700  0.04890  Biso   1.000  C
  H170     1.0000 0.87300  0.02110  0.06220  Biso   1.000  H
  C255     1.0000 0.84850  0.84880  0.04880  Biso   1.000  C
  C256     1.0000 0.81851  0.80430  0.03080  Biso   1.000  C
  H171     1.0000 0.81390  0.71140  0.03150  Biso   1.000  H
  C257     1.0000 0.79601  0.90070  0.01200  Biso   1.000  C
  H172     1.0000 0.77620  0.86880  0.99930  Biso   1.000  H
  C258     1.0000 0.87363  0.74820  0.06610  Biso   1.000  C
  C259     1.0000 0.90178  0.78360  0.05820  Biso   1.000  C
  H173     1.0000 0.90420  0.86910  0.04030  Biso   1.000  H
  C260     1.0000 0.92651  0.69510  0.07630  Biso   1.000  C
  C261     1.0000 0.92271  0.56470  0.10160  Biso   1.000  C
  H174     1.0000 0.93880  0.50360  0.11340  Biso   1.000  H
  C262     1.0000 0.89448  0.52750  0.10880  Biso   1.000  C
  H175     1.0000 0.89180  0.44110  0.12540  Biso   1.000  H
  C263     1.0000 0.87049  0.61840  0.09150  Biso   1.000  C
  H176     1.0000 0.85190  0.59210  0.09690  Biso   1.000  H
  C264     1.0000 0.95563  0.73470  0.06120  Biso   1.000  C
  C265     1.0000 0.81645  0.83420  0.86260  Biso   1.000  C
  H177     1.0000 0.82080  0.92770  0.86460  Biso   1.000  H
  C266     1.0000 0.83988  0.74260  0.87760  Biso   1.000  C
  H178     1.0000 0.85960  0.77570  0.88970  Biso   1.000  H
  C267     1.0000 0.83519  0.60400  0.87540  Biso   1.000  C
  C268     1.0000 0.80525  0.56200  0.85620  Biso   1.000  C
  H179     1.0000 0.80060  0.46890  0.85280  Biso   1.000  H
  C269     1.0000 0.78263  0.65780  0.84230  Biso   1.000  C
  H180     1.0000 0.76280  0.62670  0.83030  Biso   1.000  H
  C270     1.0000 0.86037  0.50070  0.89570  Biso   1.000  C
  C271     1.0000 0.89052  0.53930  0.90960  Biso   1.000  C
  H181     1.0000 0.89520  0.63090  0.90440  Biso   1.000  H
  C272     1.0000 0.91347  0.44750  0.93070  Biso   1.000  C
  C273     1.0000 0.90691  0.30950  0.93740  Biso   1.000  C
  H182     1.0000 0.92240  0.24580  0.95160  Biso   1.000  H
  C274     1.0000 0.87747  0.26900  0.92280  Biso   1.000  C
  H183     1.0000 0.87300  0.17680  0.92700  Biso   1.000  H
  C275     1.0000 0.85415  0.36180  0.90180  Biso   1.000  C
  H184     1.0000 0.83420  0.33170  0.89180  Biso   1.000  H
  C276     1.0000 0.94576  0.49250  0.94730  Biso   1.000  C
  C277     1.0000 0.15498  0.30880  0.29660  Biso   1.000  C
  H185     1.0000 0.15060  0.40150  0.29930  Biso   1.000  H
  C278     1.0000 0.13126  0.22100  0.27020  Biso   1.000  C
  H186     1.0000 0.11170  0.25530  0.25520  Biso   1.000  H
  C279     1.0000 0.13650  0.08260  0.26590  Biso   1.000  C
  C280     1.0000 0.16646  0.04040  0.28800  Biso   1.000  C
  H187     1.0000 0.17140  0.94840  0.28480  Biso   1.000  H
  C281     1.0000 0.18886  0.13450  0.31430  Biso   1.000  C
  H188     1.0000 0.20860  0.10280  0.33000  Biso   1.000  H
  C282     1.0000 0.11172  0.98600  0.23770  Biso   1.000  C
  C283     1.0000 0.08622  0.02700  0.18850  Biso   1.000  C
  H189     1.0000 0.08490  0.11740  0.17340  Biso   1.000  H
  C284     1.0000 0.06284  0.93800  0.16150  Biso   1.000  C
  C285     1.0000 0.06455  0.80430  0.18440  Biso   1.000  C
  H190     1.0000 0.04890  0.74310  0.16640  Biso   1.000  H
  C286     1.0000 0.08940  0.76140  0.23400  Biso   1.000  C
  H191     1.0000 0.09010  0.67210  0.25030  Biso   1.000  H
  C287     1.0000 0.11322  0.84970  0.25990  Biso   1.000  C
  H192     1.0000 0.13020  0.81860  0.29200  Biso   1.000  H
  C288     1.0000 0.03672  0.98610  0.10590  Biso   1.000  C
