data_image0
_cell_length_a       9.6323
_cell_length_b       16.676
_cell_length_c       21.182
_cell_angle_alpha    104.08
_cell_angle_beta     100.39
_cell_angle_gamma    97.03

_symmetry_space_group_name_H-M    "P 1"
_symmetry_int_tables_number       1

loop_
  _symmetry_equiv_pos_as_xyz
  'x, y, z'

loop_
  _atom_site_label
  _atom_site_occupancy
  _atom_site_fract_x
  _atom_site_fract_y
  _atom_site_fract_z
  _atom_site_thermal_displace_type
  _atom_site_B_iso_or_equiv
  _atom_site_type_symbol
  Gd1      1.0000 0.77664  0.01350  0.49731  Biso   1.000  Gd
  Cu1      1.0000 0.46200  0.31722  0.09884  Biso   1.000  Cu
  Cu2      1.0000 0.51374  0.44241  0.04037  Biso   1.000  Cu
  Cu3      1.0000 0.31938  0.44455  0.12205  Biso   1.000  Cu
  Cu4      1.0000 0.25496  0.32682  0.00169  Biso   1.000  Cu
  I1       1.0000 0.58871  0.47754  0.17426  Biso   1.000  I
  I2       1.0000 0.48967  0.27962  0.97062  Biso   1.000  I
  I3       1.0000 0.19593  0.28844  0.11258  Biso   1.000  I
  I4       1.0000 0.26220  0.48978  0.99999  Biso   1.000  I
  O1       1.0000 0.85930  0.08360  0.42211  Biso   1.000  O
  O2       1.0000 0.07660  0.05090  0.43990  Biso   1.000  O
  O3       1.0000 0.95160  0.12450  0.57207  Biso   1.000  O
  O4       1.0000 0.17040  0.09140  0.58677  Biso   1.000  O
  O5       1.0000 0.66940  0.04320  0.59008  Biso   1.000  O
  O6       1.0000 0.44110  0.98430  0.57023  Biso   1.000  O
  N1       1.0000 0.59780  0.25340  0.14120  Biso   1.000  N
  N2       1.0000 0.79200  0.47410  0.83160  Biso   1.000  N
  N3       1.0000 0.07730  0.26190  0.93240  Biso   1.000  N
  C1       1.0000 0.56180  0.19930  0.17490  Biso   1.000  C
  H1       1.0000 0.46580  0.18620  0.17590  Biso   1.000  H
  C2       1.0000 0.65960  0.16160  0.20860  Biso   1.000  C
  H2       1.0000 0.62750  0.12320  0.23030  Biso   1.000  H
  C3       1.0000 0.80390  0.18010  0.21030  Biso   1.000  C
  C4       1.0000 0.83550  0.23350  0.17300  Biso   1.000  C
  H3       1.0000 0.93010  0.24650  0.16970  Biso   1.000  H
  C5       1.0000 0.73510  0.26830  0.14080  Biso   1.000  C
  H4       1.0000 0.76470  0.30470  0.11690  Biso   1.000  H
  C6       1.0000 0.90920  0.14300  0.24620  Biso   1.000  C
  C7       1.0000 0.89530  0.12620  0.30640  Biso   1.000  C
  H5       1.0000 0.81400  0.13670  0.32270  Biso   1.000  H
  C8       1.0000 0.99840  0.09440  0.34240  Biso   1.000  C
  C9       1.0000 0.12060  0.07760  0.31790  Biso   1.000  C
  H6       1.0000 0.19100  0.05620  0.34180  Biso   1.000  H
  C10      1.0000 0.13590  0.09260  0.25880  Biso   1.000  C
  H7       1.0000 0.21720  0.08180  0.24260  Biso   1.000  H
  C11      1.0000 0.03080  0.12400  0.22240  Biso   1.000  C
  H8       1.0000 0.04170  0.13250  0.18160  Biso   1.000  H
  C12      1.0000 0.97810  0.07470  0.40660  Biso   1.000  C
  C13      1.0000 0.73800  0.39900  0.78900  Biso   1.000  C
  H9       1.0000 0.63880  0.38420  0.77570  Biso   1.000  H
  C14      1.0000 0.81920  0.34160  0.76310  Biso   1.000  C
  H10      1.0000 0.77490  0.29010  0.73360  Biso   1.000  H
  C15      1.0000 0.96580  0.36150  0.78150  Biso   1.000  C
  C16      1.0000 0.02220  0.44000  0.82630  Biso   1.000  C
  H11      1.0000 0.12100  0.45610  0.84100  Biso   1.000  H
  C17      1.0000 0.93470  0.49350  0.84880  Biso   1.000  C
  H12      1.0000 0.97640  0.54600  0.87750  Biso   1.000  H
  C18      1.0000 0.06230  0.30470  0.75690  Biso   1.000  C
  C19      1.0000 0.02470  0.24650  0.69590  Biso   1.000  C
  H13      1.0000 0.93400  0.24120  0.66960  Biso   1.000  H
  C20      1.0000 0.11860  0.19450  0.67190  Biso   1.000  C
  C21      1.0000 0.25380  0.20300  0.71110  Biso   1.000  C
  H14      1.0000 0.31730  0.16930  0.69570  Biso   1.000  H
  C22      1.0000 0.29610  0.26160  0.77350  Biso   1.000  C
  H15      1.0000 0.38750  0.26760  0.79950  Biso   1.000  H
  C23      1.0000 0.19930  0.31060  0.79580  Biso   1.000  C
  H16      1.0000 0.22590  0.34860  0.83790  Biso   1.000  H
  C24      1.0000 0.07600  0.13240  0.60500  Biso   1.000  C
  C25      1.0000 0.07800  0.19320  0.88450  Biso   1.000  C
  H17      1.0000 0.16530  0.17550  0.88210  Biso   1.000  H
  C26      1.0000 0.96010  0.14760  0.83910  Biso   1.000  C
  H18      1.0000 0.96840  0.10110  0.80620  Biso   1.000  H
  C27      1.0000 0.82560  0.17050  0.84160  Biso   1.000  C
  C28      1.0000 0.82390  0.24160  0.89170  Biso   1.000  C
  H19      1.0000 0.73790  0.25990  0.89640  Biso   1.000  H
  C29      1.0000 0.95100  0.28490  0.93440  Biso   1.000  C
  H20      1.0000 0.94780  0.33340  0.96660  Biso   1.000  H
  C30      1.0000 0.69330  0.12270  0.79530  Biso   1.000  C
  C31      1.0000 0.68670  0.09470  0.72650  Biso   1.000  C
  H21      1.0000 0.76800  0.10690  0.71030  Biso   1.000  H
  C32      1.0000 0.56250  0.04970  0.68250  Biso   1.000  C
  C33      1.0000 0.44000  0.03020  0.70590  Biso   1.000  C
  H22      1.0000 0.35570  0.00010  0.67650  Biso   1.000  H
  C34      1.0000 0.44600  0.05660  0.77430  Biso   1.000  C
  H23      1.0000 0.36570  0.04270  0.79070  Biso   1.000  H
  C35      1.0000 0.57050  0.10330  0.81800  Biso   1.000  C
  H24      1.0000 0.57170  0.12190  0.86320  Biso   1.000  H
  C36      1.0000 0.55700  0.02350  0.60890  Biso   1.000  C
  Gd2      1.0000 0.22336  0.98650  0.50269  Biso   1.000  Gd
  Cu5      1.0000 0.53800  0.68278  0.90116  Biso   1.000  Cu
  Cu6      1.0000 0.48626  0.55759  0.95963  Biso   1.000  Cu
  Cu7      1.0000 0.68062  0.55545  0.87795  Biso   1.000  Cu
  Cu8      1.0000 0.74504  0.67318  0.99831  Biso   1.000  Cu
  I5       1.0000 0.41129  0.52246  0.82574  Biso   1.000  I
  I6       1.0000 0.51033  0.72038  0.02938  Biso   1.000  I
  I7       1.0000 0.80407  0.71156  0.88742  Biso   1.000  I
  I8       1.0000 0.73780  0.51022  0.00001  Biso   1.000  I
  O7       1.0000 0.14070  0.91640  0.57789  Biso   1.000  O
  O8       1.0000 0.92340  0.94910  0.56010  Biso   1.000  O
  O9       1.0000 0.04840  0.87550  0.42793  Biso   1.000  O
  O10      1.0000 0.82960  0.90860  0.41323  Biso   1.000  O
  O11      1.0000 0.33060  0.95680  0.40992  Biso   1.000  O
  O12      1.0000 0.55890  0.01570  0.42977  Biso   1.000  O
  N4       1.0000 0.40220  0.74660  0.85880  Biso   1.000  N
  N5       1.0000 0.20800  0.52590  0.16840  Biso   1.000  N
  N6       1.0000 0.92270  0.73810  0.06760  Biso   1.000  N
  C37      1.0000 0.43820  0.80070  0.82510  Biso   1.000  C
  H25      1.0000 0.53420  0.81380  0.82410  Biso   1.000  H
  C38      1.0000 0.34040  0.83840  0.79140  Biso   1.000  C
  H26      1.0000 0.37250  0.87680  0.76970  Biso   1.000  H
  C39      1.0000 0.19610  0.81990  0.78970  Biso   1.000  C
  C40      1.0000 0.16450  0.76650  0.82700  Biso   1.000  C
  H27      1.0000 0.06990  0.75350  0.83030  Biso   1.000  H
  C41      1.0000 0.26490  0.73170  0.85920  Biso   1.000  C
  H28      1.0000 0.23530  0.69530  0.88310  Biso   1.000  H
  C42      1.0000 0.09080  0.85700  0.75380  Biso   1.000  C
  C43      1.0000 0.10470  0.87380  0.69360  Biso   1.000  C
  H29      1.0000 0.18600  0.86330  0.67730  Biso   1.000  H
  C44      1.0000 0.00160  0.90560  0.65760  Biso   1.000  C
  C45      1.0000 0.87940  0.92240  0.68210  Biso   1.000  C
  H30      1.0000 0.80900  0.94380  0.65820  Biso   1.000  H
  C46      1.0000 0.86410  0.90740  0.74120  Biso   1.000  C
  H31      1.0000 0.78280  0.91820  0.75740  Biso   1.000  H
  C47      1.0000 0.96920  0.87600  0.77760  Biso   1.000  C
  H32      1.0000 0.95830  0.86750  0.81840  Biso   1.000  H
  C48      1.0000 0.02190  0.92530  0.59340  Biso   1.000  C
  C49      1.0000 0.26200  0.60100  0.21100  Biso   1.000  C
  H33      1.0000 0.36120  0.61580  0.22430  Biso   1.000  H
  C50      1.0000 0.18080  0.65840  0.23690  Biso   1.000  C
  H34      1.0000 0.22510  0.70990  0.26640  Biso   1.000  H
  C51      1.0000 0.03420  0.63850  0.21850  Biso   1.000  C
  C52      1.0000 0.97780  0.56000  0.17370  Biso   1.000  C
  H35      1.0000 0.87900  0.54390  0.15900  Biso   1.000  H
  C53      1.0000 0.06530  0.50650  0.15120  Biso   1.000  C
  H36      1.0000 0.02360  0.45400  0.12250  Biso   1.000  H
  C54      1.0000 0.93770  0.69530  0.24310  Biso   1.000  C
  C55      1.0000 0.97530  0.75350  0.30410  Biso   1.000  C
  H37      1.0000 0.06600  0.75880  0.33040  Biso   1.000  H
  C56      1.0000 0.88140  0.80550  0.32810  Biso   1.000  C
  C57      1.0000 0.74620  0.79700  0.28890  Biso   1.000  C
  H38      1.0000 0.68270  0.83070  0.30430  Biso   1.000  H
  C58      1.0000 0.70390  0.73840  0.22650  Biso   1.000  C
  H39      1.0000 0.61250  0.73240  0.20050  Biso   1.000  H
  C59      1.0000 0.80070  0.68940  0.20420  Biso   1.000  C
  H40      1.0000 0.77410  0.65140  0.16210  Biso   1.000  H
  C60      1.0000 0.92400  0.86760  0.39500  Biso   1.000  C
  C61      1.0000 0.92200  0.80680  0.11550  Biso   1.000  C
  H41      1.0000 0.83470  0.82450  0.11790  Biso   1.000  H
  C62      1.0000 0.03990  0.85240  0.16090  Biso   1.000  C
  H42      1.0000 0.03160  0.89890  0.19380  Biso   1.000  H
  C63      1.0000 0.17440  0.82950  0.15840  Biso   1.000  C
  C64      1.0000 0.17610  0.75840  0.10830  Biso   1.000  C
  H43      1.0000 0.26210  0.74010  0.10360  Biso   1.000  H
  C65      1.0000 0.04900  0.71510  0.06560  Biso   1.000  C
  H44      1.0000 0.05220  0.66660  0.03340  Biso   1.000  H
  C66      1.0000 0.30670  0.87730  0.20470  Biso   1.000  C
  C67      1.0000 0.31330  0.90530  0.27350  Biso   1.000  C
  H45      1.0000 0.23200  0.89310  0.28970  Biso   1.000  H
  C68      1.0000 0.43750  0.95030  0.31750  Biso   1.000  C
  C69      1.0000 0.56000  0.96980  0.29410  Biso   1.000  C
  H46      1.0000 0.64430  0.99990  0.32350  Biso   1.000  H
  C70      1.0000 0.55400  0.94340  0.22570  Biso   1.000  C
  H47      1.0000 0.63430  0.95730  0.20930  Biso   1.000  H
  C71      1.0000 0.42950  0.89670  0.18200  Biso   1.000  C
  H48      1.0000 0.42830  0.87810  0.13680  Biso   1.000  H
  C72      1.0000 0.44300  0.97650  0.39110  Biso   1.000  C
