data_image0
_cell_length_a       4.925
_cell_length_b       22.0972
_cell_length_c       12.9038
_cell_angle_alpha    90
_cell_angle_beta     99.245
_cell_angle_gamma    90

_symmetry_space_group_name_H-M    "P 1"
_symmetry_int_tables_number       1

loop_
  _symmetry_equiv_pos_as_xyz
  'x, y, z'

loop_
  _atom_site_label
  _atom_site_occupancy
  _atom_site_fract_x
  _atom_site_fract_y
  _atom_site_fract_z
  _atom_site_thermal_displace_type
  _atom_site_B_iso_or_equiv
  _atom_site_type_symbol
  C1       1.0000 0.59050  0.77570  0.05080  Biso   1.000  C
  H1       1.0000 0.79100  0.77200  0.05920  Biso   1.000  H
  H2       1.0000 0.54000  0.81500  0.01800  Biso   1.000  H
  C2       1.0000 0.12820  0.48870  0.23180  Biso   1.000  C
  H3       1.0000 0.02700  0.50270  0.28400  Biso   1.000  H
  H4       1.0000 0.30200  0.47430  0.26600  Biso   1.000  H
  C3       1.0000 0.97390  0.43810  0.17040  Biso   1.000  C
  C4       1.0000 0.50450  0.77440  0.15740  Biso   1.000  C
  O1       1.0000 0.53330  0.65530  0.01550  Biso   1.000  O
  O2       1.0000 0.12740  0.72460  0.95310  Biso   1.000  O
  O3       1.0000 0.53500  0.72210  0.85810  Biso   1.000  O
  O4       1.0000 0.89400  0.57655  0.10550  Biso   1.000  O
  O5       1.0000 0.31380  0.52450  0.05400  Biso   1.000  O
  O6       1.0000 0.36390  0.59580  0.21040  Biso   1.000  O
  O7       1.0000 0.72080  0.43330  0.16600  Biso   1.000  O
  O8       1.0000 0.12010  0.40200  0.12260  Biso   1.000  O
  O9       1.0000 0.43190  0.82420  0.19370  Biso   1.000  O
  O10      1.0000 0.50570  0.72590  0.20730  Biso   1.000  O
  O11      1.0000 0.98050  0.66050  0.28720  Biso   1.000  O
  O12      1.0000 0.99600  0.70240  0.19620  Biso   1.000  O
  O13      1.0000 0.84600  0.61960  0.33500  Biso   1.000  O
  P1       1.0000 0.43490  0.71574  0.96464  Biso   1.000  P
  P2       1.0000 0.17950  0.55041  0.14435  Biso   1.000  P
  Zn1      1.0000 0.67299  0.64296  0.17289  Biso   1.000  Zn
  Zn2      1.0000 0.59232  0.56676  0.96815  Biso   1.000  Zn
  Zn3      1.0000 0.88310  0.68660  0.84028  Biso   1.000  Zn
  C5       1.0000 0.90950  0.27570  0.44920  Biso   1.000  C
  H5       1.0000 0.70900  0.27200  0.44080  Biso   1.000  H
  H6       1.0000 0.96000  0.31500  0.48200  Biso   1.000  H
  C6       1.0000 0.37180  0.98870  0.26820  Biso   1.000  C
  H7       1.0000 0.47300  0.00270  0.21600  Biso   1.000  H
  H8       1.0000 0.19800  0.97430  0.23400  Biso   1.000  H
  C7       1.0000 0.52610  0.93810  0.32960  Biso   1.000  C
  C8       1.0000 0.99550  0.27440  0.34260  Biso   1.000  C
  O14      1.0000 0.96670  0.15530  0.48450  Biso   1.000  O
  O15      1.0000 0.37260  0.22460  0.54690  Biso   1.000  O
  O16      1.0000 0.96500  0.22210  0.64190  Biso   1.000  O
  O17      1.0000 0.60600  0.07655  0.39450  Biso   1.000  O
  O18      1.0000 0.18620  0.02450  0.44600  Biso   1.000  O
  O19      1.0000 0.13610  0.09580  0.28960  Biso   1.000  O
  O20      1.0000 0.77920  0.93330  0.33400  Biso   1.000  O
  O21      1.0000 0.37990  0.90200  0.37740  Biso   1.000  O
  O22      1.0000 0.06810  0.32420  0.30630  Biso   1.000  O
  O23      1.0000 0.99430  0.22590  0.29270  Biso   1.000  O
  O24      1.0000 0.51950  0.16050  0.21280  Biso   1.000  O
  O25      1.0000 0.50400  0.20240  0.30380  Biso   1.000  O
  O26      1.0000 0.65400  0.11960  0.16500  Biso   1.000  O
  P3       1.0000 0.06510  0.21574  0.53536  Biso   1.000  P
  P4       1.0000 0.32050  0.05041  0.35565  Biso   1.000  P
  Zn4      1.0000 0.82701  0.14296  0.32711  Biso   1.000  Zn
  Zn5      1.0000 0.90768  0.06676  0.53185  Biso   1.000  Zn
  Zn6      1.0000 0.61690  0.18660  0.65972  Biso   1.000  Zn
  C9       1.0000 0.40950  0.22430  0.94920  Biso   1.000  C
  H9       1.0000 0.20900  0.22800  0.94080  Biso   1.000  H
  H10      1.0000 0.46000  0.18500  0.98200  Biso   1.000  H
  C10      1.0000 0.87180  0.51130  0.76820  Biso   1.000  C
  H11      1.0000 0.97300  0.49730  0.71600  Biso   1.000  H
  H12      1.0000 0.69800  0.52570  0.73400  Biso   1.000  H
  C11      1.0000 0.02610  0.56190  0.82960  Biso   1.000  C
  C12      1.0000 0.49550  0.22560  0.84260  Biso   1.000  C
  O27      1.0000 0.46670  0.34470  0.98450  Biso   1.000  O
  O28      1.0000 0.87260  0.27540  0.04690  Biso   1.000  O
  O29      1.0000 0.46500  0.27790  0.14190  Biso   1.000  O
  O30      1.0000 0.10600  0.42345  0.89450  Biso   1.000  O
  O31      1.0000 0.68620  0.47550  0.94600  Biso   1.000  O
  O32      1.0000 0.63610  0.40420  0.78960  Biso   1.000  O
  O33      1.0000 0.27920  0.56670  0.83400  Biso   1.000  O
  O34      1.0000 0.87990  0.59800  0.87740  Biso   1.000  O
  O35      1.0000 0.56810  0.17580  0.80630  Biso   1.000  O
  O36      1.0000 0.49430  0.27410  0.79270  Biso   1.000  O
  O37      1.0000 0.01950  0.33950  0.71280  Biso   1.000  O
  O38      1.0000 0.00400  0.29760  0.80380  Biso   1.000  O
  O39      1.0000 0.15400  0.38040  0.66500  Biso   1.000  O
  P5       1.0000 0.56510  0.28426  0.03536  Biso   1.000  P
  P6       1.0000 0.82050  0.44959  0.85565  Biso   1.000  P
  Zn7      1.0000 0.32701  0.35704  0.82711  Biso   1.000  Zn
  Zn8      1.0000 0.40768  0.43324  0.03185  Biso   1.000  Zn
  Zn9      1.0000 0.11690  0.31340  0.15972  Biso   1.000  Zn
  C13      1.0000 0.09050  0.72430  0.55080  Biso   1.000  C
  H13      1.0000 0.29100  0.72800  0.55920  Biso   1.000  H
  H14      1.0000 0.04000  0.68500  0.51800  Biso   1.000  H
  C14      1.0000 0.62820  0.01130  0.73180  Biso   1.000  C
  H15      1.0000 0.52700  0.99730  0.78400  Biso   1.000  H
  H16      1.0000 0.80200  0.02570  0.76600  Biso   1.000  H
  C15      1.0000 0.47390  0.06190  0.67040  Biso   1.000  C
  C16      1.0000 0.00450  0.72560  0.65740  Biso   1.000  C
  O40      1.0000 0.03330  0.84470  0.51550  Biso   1.000  O
  O41      1.0000 0.62740  0.77540  0.45310  Biso   1.000  O
  O42      1.0000 0.03500  0.77790  0.35810  Biso   1.000  O
  O43      1.0000 0.39400  0.92345  0.60550  Biso   1.000  O
  O44      1.0000 0.81380  0.97550  0.55400  Biso   1.000  O
  O45      1.0000 0.86390  0.90420  0.71040  Biso   1.000  O
  O46      1.0000 0.22080  0.06670  0.66600  Biso   1.000  O
  O47      1.0000 0.62010  0.09800  0.62260  Biso   1.000  O
  O48      1.0000 0.93190  0.67580  0.69370  Biso   1.000  O
  O49      1.0000 0.00570  0.77410  0.70730  Biso   1.000  O
  O50      1.0000 0.48050  0.83950  0.78720  Biso   1.000  O
  O51      1.0000 0.49600  0.79760  0.69620  Biso   1.000  O
  O52      1.0000 0.34600  0.88040  0.83500  Biso   1.000  O
  P7       1.0000 0.93490  0.78426  0.46464  Biso   1.000  P
  P8       1.0000 0.67950  0.94959  0.64435  Biso   1.000  P
  Zn10     1.0000 0.17299  0.85704  0.67289  Biso   1.000  Zn
  Zn11     1.0000 0.09232  0.93324  0.46815  Biso   1.000  Zn
  Zn12     1.0000 0.38310  0.81340  0.34028  Biso   1.000  Zn
