data_VAGMAT_clean
_audit_creation_date              2014-07-02
_audit_creation_method            'Materials Studio'
_symmetry_space_group_name_H-M    'P1'
_symmetry_Int_Tables_number       1
_symmetry_cell_setting            triclinic
loop_
_symmetry_equiv_pos_as_xyz
  x,y,z
_cell_length_a                    17.2190
_cell_length_b                    23.0847
_cell_length_c                    23.0847
_cell_angle_alpha                 60.5405
_cell_angle_beta                  68.1021
_cell_angle_gamma                 68.1022
loop_
_atom_site_label
_atom_site_type_symbol
_atom_site_fract_x
_atom_site_fract_y
_atom_site_fract_z
_atom_site_U_iso_or_equiv
_atom_site_adp_type
_atom_site_occupancy
Zn1    Zn    0.97175   0.47000   0.97000   0.01267  Uiso   1.00
Zn2    Zn    0.41175   0.03000   0.53000   0.01267  Uiso   1.00
Zn3    Zn    0.02825   0.53000   0.03000   0.01267  Uiso   1.00
Zn4    Zn    0.58825   0.97000   0.47000   0.01267  Uiso   1.00
H1     H     0.24480   0.57730   0.66770   0.01267  Uiso   1.00
H2     H     0.23070   0.60960   0.85260   0.01267  Uiso   1.00
H3     H     0.14830   0.53340   0.76960   0.01267  Uiso   1.00
H4     H     0.33340   0.64310   0.75470   0.01267  Uiso   1.00
H5     H     0.38280   0.67450   0.51130   0.01267  Uiso   1.00
H6     H     0.45370   0.61230   0.44430   0.01267  Uiso   1.00
H7     H     0.48980   0.92270   0.83230   0.01267  Uiso   1.00
H8     H     0.69290   0.89040   0.64740   0.01267  Uiso   1.00
H9     H     0.45130   0.96660   0.73040   0.01267  Uiso   1.00
H10    H     0.73120   0.85690   0.74530   0.01267  Uiso   1.00
H11    H     0.56860   0.82550   0.98870   0.01267  Uiso   1.00
H12    H     0.51030   0.88770   0.05570   0.01267  Uiso   1.00
H13    H     0.75520   0.83230   0.92270   0.01267  Uiso   1.00
H14    H     0.76930   0.64740   0.89040   0.01267  Uiso   1.00
H15    H     0.85170   0.73040   0.96660   0.01267  Uiso   1.00
H16    H     0.66660   0.74530   0.85690   0.01267  Uiso   1.00
H17    H     0.61720   0.98870   0.82550   0.01267  Uiso   1.00
H18    H     0.54630   0.05570   0.88770   0.01267  Uiso   1.00
H19    H     0.51020   0.66770   0.57730   0.01267  Uiso   1.00
H20    H     0.30710   0.85260   0.60960   0.01267  Uiso   1.00
H21    H     0.54870   0.76960   0.53340   0.01267  Uiso   1.00
H22    H     0.26880   0.75470   0.64310   0.01267  Uiso   1.00
H23    H     0.43140   0.51130   0.67450   0.01267  Uiso   1.00
H24    H     0.48970   0.44430   0.61230   0.01267  Uiso   1.00
H25    H     0.75520   0.42270   0.33230   0.01267  Uiso   1.00
H26    H     0.76930   0.39040   0.14740   0.01267  Uiso   1.00
H27    H     0.85170   0.46660   0.23040   0.01267  Uiso   1.00
H28    H     0.66660   0.35690   0.24530   0.01267  Uiso   1.00
H29    H     0.61720   0.32550   0.48870   0.01267  Uiso   1.00
H30    H     0.54630   0.38770   0.55570   0.01267  Uiso   1.00
H31    H     0.51020   0.07730   0.16770   0.01267  Uiso   1.00
H32    H     0.30710   0.10960   0.35260   0.01267  Uiso   1.00
H33    H     0.54870   0.03340   0.26960   0.01267  Uiso   1.00
H34    H     0.26880   0.14310   0.25470   0.01267  Uiso   1.00
H35    H     0.43140   0.17450   0.01130   0.01267  Uiso   1.00
H36    H     0.48970   0.11230   0.94430   0.01267  Uiso   1.00
H37    H     0.24480   0.16770   0.07730   0.01267  Uiso   1.00
H38    H     0.23070   0.35260   0.10960   0.01267  Uiso   1.00
H39    H     0.14830   0.26960   0.03340   0.01267  Uiso   1.00
H40    H     0.33340   0.25470   0.14310   0.01267  Uiso   1.00
H41    H     0.38280   0.01130   0.17450   0.01267  Uiso   1.00
H42    H     0.45370   0.94430   0.11230   0.01267  Uiso   1.00
H43    H     0.48980   0.33230   0.42270   0.01267  Uiso   1.00
H44    H     0.69290   0.14740   0.39040   0.01267  Uiso   1.00
H45    H     0.45130   0.23040   0.46660   0.01267  Uiso   1.00
H46    H     0.73120   0.24530   0.35690   0.01267  Uiso   1.00
H47    H     0.56860   0.48870   0.32550   0.01267  Uiso   1.00
H48    H     0.51030   0.55570   0.38770   0.01267  Uiso   1.00
C1     C     0.11193   0.54329   0.88725   0.01267  Uiso   1.00
C2     C     0.24293   0.58283   0.70551   0.01267  Uiso   1.00
C3     C     0.29954   0.61563   0.70009   0.01267  Uiso   1.00
C4     C     0.23376   0.60209   0.81559   0.01267  Uiso   1.00
C5     C     0.17629   0.56948   0.82094   0.01267  Uiso   1.00
C6     C     0.18338   0.55792   0.76612   0.01267  Uiso   1.00
C7     C     0.29422   0.62297   0.75659   0.01267  Uiso   1.00
C8     C     0.40671   0.62790   0.53188   0.01267  Uiso   1.00
C9     C     0.44789   0.59004   0.49138   0.01267  Uiso   1.00
C10    C     0.54247   0.95671   0.61275   0.01267  Uiso   1.00
C11    C     0.53127   0.91717   0.79449   0.01267  Uiso   1.00
C12    C     0.61526   0.88437   0.79991   0.01267  Uiso   1.00
C13    C     0.65144   0.89791   0.68441   0.01267  Uiso   1.00
C14    C     0.56671   0.93052   0.67906   0.01267  Uiso   1.00
C15    C     0.50742   0.94208   0.73388   0.01267  Uiso   1.00
C16    C     0.67378   0.87703   0.74341   0.01267  Uiso   1.00
C17    C     0.56649   0.87210   0.96812   0.01267  Uiso   1.00
C18    C     0.52931   0.90996   0.00862   0.01267  Uiso   1.00
C19    C     0.88807   0.61275   0.95671   0.01267  Uiso   1.00
C20    C     0.75707   0.79449   0.91717   0.01267  Uiso   1.00
C21    C     0.70046   0.79991   0.88437   0.01267  Uiso   1.00
C22    C     0.76624   0.68441   0.89791   0.01267  Uiso   1.00
C23    C     0.82371   0.67906   0.93052   0.01267  Uiso   1.00
C24    C     0.81662   0.73388   0.94208   0.01267  Uiso   1.00
C25    C     0.70578   0.74341   0.87703   0.01267  Uiso   1.00
C26    C     0.59329   0.96812   0.87210   0.01267  Uiso   1.00
C27    C     0.55211   0.00862   0.90996   0.01267  Uiso   1.00
C28    C     0.45753   0.88725   0.54329   0.01267  Uiso   1.00
C29    C     0.46873   0.70551   0.58283   0.01267  Uiso   1.00
C30    C     0.38474   0.70009   0.61563   0.01267  Uiso   1.00
C31    C     0.34856   0.81559   0.60209   0.01267  Uiso   1.00
C32    C     0.43329   0.82094   0.56948   0.01267  Uiso   1.00
C33    C     0.49258   0.76612   0.55792   0.01267  Uiso   1.00
C34    C     0.32622   0.75659   0.62297   0.01267  Uiso   1.00
C35    C     0.43351   0.53188   0.62790   0.01267  Uiso   1.00
C36    C     0.47069   0.49138   0.59004   0.01267  Uiso   1.00
C37    C     0.88807   0.45671   0.11275   0.01267  Uiso   1.00
C38    C     0.75707   0.41717   0.29449   0.01267  Uiso   1.00
C39    C     0.70046   0.38437   0.29991   0.01267  Uiso   1.00
C40    C     0.76624   0.39791   0.18441   0.01267  Uiso   1.00
C41    C     0.82371   0.43052   0.17906   0.01267  Uiso   1.00
C42    C     0.81662   0.44208   0.23388   0.01267  Uiso   1.00
C43    C     0.70578   0.37703   0.24341   0.01267  Uiso   1.00
C44    C     0.59329   0.37210   0.46812   0.01267  Uiso   1.00
C45    C     0.55211   0.40996   0.50862   0.01267  Uiso   1.00
C46    C     0.45753   0.04329   0.38725   0.01267  Uiso   1.00
C47    C     0.46873   0.08283   0.20551   0.01267  Uiso   1.00
C48    C     0.38474   0.11563   0.20009   0.01267  Uiso   1.00
C49    C     0.34856   0.10209   0.31559   0.01267  Uiso   1.00
C50    C     0.43329   0.06948   0.32094   0.01267  Uiso   1.00
C51    C     0.49258   0.05792   0.26612   0.01267  Uiso   1.00
C52    C     0.32622   0.12297   0.25659   0.01267  Uiso   1.00
C53    C     0.43351   0.12790   0.03188   0.01267  Uiso   1.00
C54    C     0.47069   0.09004   0.99138   0.01267  Uiso   1.00
C55    C     0.11193   0.38725   0.04329   0.01267  Uiso   1.00
C56    C     0.24293   0.20551   0.08283   0.01267  Uiso   1.00
C57    C     0.29954   0.20009   0.11563   0.01267  Uiso   1.00
C58    C     0.23376   0.31559   0.10209   0.01267  Uiso   1.00
C59    C     0.17629   0.32094   0.06948   0.01267  Uiso   1.00
C60    C     0.18338   0.26612   0.05792   0.01267  Uiso   1.00
C61    C     0.29422   0.25659   0.12297   0.01267  Uiso   1.00
C62    C     0.40671   0.03188   0.12790   0.01267  Uiso   1.00
C63    C     0.44789   0.99138   0.09004   0.01267  Uiso   1.00
C64    C     0.54247   0.11275   0.45671   0.01267  Uiso   1.00
C65    C     0.53127   0.29449   0.41717   0.01267  Uiso   1.00
C66    C     0.61526   0.29991   0.38437   0.01267  Uiso   1.00
C67    C     0.65144   0.18441   0.39791   0.01267  Uiso   1.00
C68    C     0.56671   0.17906   0.43052   0.01267  Uiso   1.00
C69    C     0.50742   0.23388   0.44208   0.01267  Uiso   1.00
C70    C     0.67378   0.24341   0.37703   0.01267  Uiso   1.00
C71    C     0.56649   0.46812   0.37210   0.01267  Uiso   1.00
C72    C     0.52931   0.50862   0.40996   0.01267  Uiso   1.00
C73    C     0.40156   0.59844   0.59844   0.01267  Uiso   1.00
C74    C     0.47907   0.52093   0.52093   0.01267  Uiso   1.00
C75    C     0.59844   0.90156   0.90156   0.01267  Uiso   1.00
C76    C     0.52093   0.97907   0.97907   0.01267  Uiso   1.00
C77    C     0.59844   0.40156   0.40156   0.01267  Uiso   1.00
C78    C     0.52093   0.47907   0.47907   0.01267  Uiso   1.00
C79    C     0.40156   0.09844   0.09844   0.01267  Uiso   1.00
C80    C     0.47907   0.02093   0.02093   0.01267  Uiso   1.00
N1     N     0.36153   0.63847   0.63847   0.01267  Uiso   1.00
N2     N     0.63847   0.86153   0.86153   0.01267  Uiso   1.00
N3     N     0.63847   0.36153   0.36153   0.01267  Uiso   1.00
N4     N     0.36153   0.13847   0.13847   0.01267  Uiso   1.00
O1     O     0.06542   0.51133   0.88939   0.01267  Uiso   1.00
O2     O     0.10806   0.55693   0.93425   0.01267  Uiso   1.00
O3     O     0.46614   0.98867   0.61061   0.01267  Uiso   1.00
O4     O     0.59924   0.94307   0.56575   0.01267  Uiso   1.00
O5     O     0.93458   0.61061   0.98867   0.01267  Uiso   1.00
O6     O     0.89194   0.56575   0.94307   0.01267  Uiso   1.00
O7     O     0.53386   0.88939   0.51133   0.01267  Uiso   1.00
O8     O     0.40076   0.93425   0.55693   0.01267  Uiso   1.00
O9     O     0.93458   0.48867   0.11061   0.01267  Uiso   1.00
O10    O     0.89194   0.44307   0.06575   0.01267  Uiso   1.00
O11    O     0.53386   0.01133   0.38939   0.01267  Uiso   1.00
O12    O     0.40076   0.05693   0.43425   0.01267  Uiso   1.00
O13    O     0.06542   0.38939   0.01133   0.01267  Uiso   1.00
O14    O     0.10806   0.43425   0.05693   0.01267  Uiso   1.00
O15    O     0.46614   0.11061   0.48867   0.01267  Uiso   1.00
O16    O     0.59924   0.06575   0.44307   0.01267  Uiso   1.00
