data_image0
_cell_length_a       16.252
_cell_length_b       11.8738
_cell_length_c       9.5585
_cell_angle_alpha    90
_cell_angle_beta     114.588
_cell_angle_gamma    90

_symmetry_space_group_name_H-M    "P 1"
_symmetry_int_tables_number       1

loop_
  _symmetry_equiv_pos_as_xyz
  'x, y, z'

loop_
  _atom_site_label
  _atom_site_occupancy
  _atom_site_fract_x
  _atom_site_fract_y
  _atom_site_fract_z
  _atom_site_thermal_displace_type
  _atom_site_B_iso_or_equiv
  _atom_site_type_symbol
  O1       1.0000 0.40891  0.42821  0.80186  Biso   1.000  O
  O2       1.0000 0.39856  0.49613  0.57751  Biso   1.000  O
  O3       1.0000 0.35012  0.22442  0.81228  Biso   1.000  O
  H1       1.0000 0.38180  0.28150  0.85190  Biso   1.000  H
  C1       1.0000 0.31237  0.33450  0.57671  Biso   1.000  C
  C2       1.0000 0.30147  0.24208  0.65901  Biso   1.000  C
  C3       1.0000 0.26090  0.34103  0.41807  Biso   1.000  C
  C4       1.0000 0.37862  0.42636  0.65678  Biso   1.000  C
  O4       1.0000 0.26520  0.41500  0.31460  Biso   1.000  O
  H2       1.0000 0.30290  0.46560  0.36050  Biso   1.000  H
  O5       1.0000 0.90891  0.92821  0.80186  Biso   1.000  O
  O6       1.0000 0.89856  0.99613  0.57751  Biso   1.000  O
  O7       1.0000 0.85012  0.72442  0.81228  Biso   1.000  O
  H3       1.0000 0.88180  0.78150  0.85190  Biso   1.000  H
  C5       1.0000 0.81237  0.83450  0.57671  Biso   1.000  C
  C6       1.0000 0.80147  0.74208  0.65901  Biso   1.000  C
  C7       1.0000 0.76090  0.84103  0.41807  Biso   1.000  C
  C8       1.0000 0.87862  0.92636  0.65678  Biso   1.000  C
  O8       1.0000 0.76520  0.91500  0.31460  Biso   1.000  O
  H4       1.0000 0.80290  0.96560  0.36050  Biso   1.000  H
  O9       1.0000 0.59109  0.42821  0.69814  Biso   1.000  O
  O10      1.0000 0.60144  0.49613  0.92249  Biso   1.000  O
  O11      1.0000 0.64988  0.22442  0.68772  Biso   1.000  O
  H5       1.0000 0.61820  0.28150  0.64810  Biso   1.000  H
  C9       1.0000 0.68763  0.33450  0.92329  Biso   1.000  C
  C10      1.0000 0.69853  0.24208  0.84099  Biso   1.000  C
  C11      1.0000 0.73910  0.34103  0.08193  Biso   1.000  C
  C12      1.0000 0.62138  0.42636  0.84322  Biso   1.000  C
  O12      1.0000 0.73480  0.41500  0.18540  Biso   1.000  O
  H6       1.0000 0.69710  0.46560  0.13950  Biso   1.000  H
  O13      1.0000 0.09109  0.92821  0.69814  Biso   1.000  O
  O14      1.0000 0.10144  0.99613  0.92249  Biso   1.000  O
  O15      1.0000 0.14988  0.72442  0.68772  Biso   1.000  O
  H7       1.0000 0.11820  0.78150  0.64810  Biso   1.000  H
  C13      1.0000 0.18763  0.83450  0.92329  Biso   1.000  C
  C14      1.0000 0.19853  0.74208  0.84099  Biso   1.000  C
  C15      1.0000 0.23910  0.84103  0.08193  Biso   1.000  C
  C16      1.0000 0.12138  0.92636  0.84322  Biso   1.000  C
  O16      1.0000 0.23480  0.91500  0.18540  Biso   1.000  O
  H8       1.0000 0.19710  0.96560  0.13950  Biso   1.000  H
  O17      1.0000 0.59109  0.57179  0.19814  Biso   1.000  O
  O18      1.0000 0.60144  0.50387  0.42249  Biso   1.000  O
  O19      1.0000 0.64988  0.77558  0.18772  Biso   1.000  O
  H9       1.0000 0.61820  0.71850  0.14810  Biso   1.000  H
  C17      1.0000 0.68763  0.66550  0.42329  Biso   1.000  C
  C18      1.0000 0.69853  0.75792  0.34099  Biso   1.000  C
  C19      1.0000 0.73910  0.65897  0.58193  Biso   1.000  C
  C20      1.0000 0.62138  0.57364  0.34322  Biso   1.000  C
  O20      1.0000 0.73480  0.58500  0.68540  Biso   1.000  O
  H10      1.0000 0.69710  0.53440  0.63950  Biso   1.000  H
  O21      1.0000 0.09109  0.07179  0.19814  Biso   1.000  O
  O22      1.0000 0.10144  0.00387  0.42249  Biso   1.000  O
  O23      1.0000 0.14988  0.27558  0.18772  Biso   1.000  O
  H11      1.0000 0.11820  0.21850  0.14810  Biso   1.000  H
  C21      1.0000 0.18763  0.16550  0.42329  Biso   1.000  C
  C22      1.0000 0.19853  0.25792  0.34099  Biso   1.000  C
  C23      1.0000 0.23910  0.15897  0.58193  Biso   1.000  C
  C24      1.0000 0.12138  0.07364  0.34322  Biso   1.000  C
  O24      1.0000 0.23480  0.08500  0.68540  Biso   1.000  O
  H12      1.0000 0.19710  0.03440  0.63950  Biso   1.000  H
  O25      1.0000 0.40891  0.57179  0.30186  Biso   1.000  O
  O26      1.0000 0.39856  0.50387  0.07751  Biso   1.000  O
  O27      1.0000 0.35012  0.77558  0.31228  Biso   1.000  O
  H13      1.0000 0.38180  0.71850  0.35190  Biso   1.000  H
  C25      1.0000 0.31237  0.66550  0.07671  Biso   1.000  C
  C26      1.0000 0.30147  0.75792  0.15901  Biso   1.000  C
  C27      1.0000 0.26090  0.65897  0.91807  Biso   1.000  C
  C28      1.0000 0.37862  0.57364  0.15678  Biso   1.000  C
  O28      1.0000 0.26520  0.58500  0.81460  Biso   1.000  O
  H14      1.0000 0.30290  0.53440  0.86050  Biso   1.000  H
  O29      1.0000 0.90891  0.07179  0.30186  Biso   1.000  O
  O30      1.0000 0.89856  0.00387  0.07751  Biso   1.000  O
  O31      1.0000 0.85012  0.27558  0.31228  Biso   1.000  O
  H15      1.0000 0.88180  0.21850  0.35190  Biso   1.000  H
  C29      1.0000 0.81237  0.16550  0.07671  Biso   1.000  C
  C30      1.0000 0.80147  0.25792  0.15901  Biso   1.000  C
  C31      1.0000 0.76090  0.15897  0.91807  Biso   1.000  C
  C32      1.0000 0.87862  0.07364  0.15678  Biso   1.000  C
  O32      1.0000 0.76520  0.08500  0.81460  Biso   1.000  O
  H16      1.0000 0.80290  0.03440  0.86050  Biso   1.000  H
  Mg1      1.0000 0.50000  0.50000  0.00000  Biso   1.000  Mg
  Mg2      1.0000 0.00000  0.00000  0.00000  Biso   1.000  Mg
  Mg3      1.0000 0.50000  0.50000  0.50000  Biso   1.000  Mg
  Mg4      1.0000 0.00000  0.00000  0.50000  Biso   1.000  Mg
