data_VAGTAA_clean
_audit_creation_date              2014-07-02
_audit_creation_method            'Materials Studio'
_symmetry_space_group_name_H-M    'P1'
_symmetry_Int_Tables_number       1
_symmetry_cell_setting            triclinic
loop_
_symmetry_equiv_pos_as_xyz
  x,y,z
_cell_length_a                    9.5856
_cell_length_b                    10.0263
_cell_length_c                    10.0263
_cell_angle_alpha                 107.1440
_cell_angle_beta                  109.3330
_cell_angle_gamma                 70.6671
loop_
_atom_site_label
_atom_site_type_symbol
_atom_site_fract_x
_atom_site_fract_y
_atom_site_fract_z
_atom_site_U_iso_or_equiv
_atom_site_adp_type
_atom_site_occupancy
Mg1    Mg    0.50000  -0.00000  -0.00000   0.01267  Uiso   1.00
Mg2    Mg    0.00000   0.00000   0.00000   0.01267  Uiso   1.00
H1     H     0.63480   0.86660   0.32960   0.01267  Uiso   1.00
H2     H     0.15260   0.10840   0.33880   0.01267  Uiso   1.00
H3     H     0.86520   0.32960   0.86660   0.01267  Uiso   1.00
H4     H     0.34740   0.33880   0.10840   0.01267  Uiso   1.00
H5     H     0.36520   0.13340   0.67040   0.01267  Uiso   1.00
H6     H     0.84740   0.89160   0.66120   0.01267  Uiso   1.00
H7     H     0.13480   0.67040   0.13340   0.01267  Uiso   1.00
H8     H     0.65260   0.66120   0.89160   0.01267  Uiso   1.00
C1     C     0.34280   0.95160   0.19580   0.01267  Uiso   1.00
C2     C     0.42250   0.97770   0.35330   0.01267  Uiso   1.00
C3     C     0.58070   0.91970   0.39830   0.01267  Uiso   1.00
C4     C     0.34280   0.06060   0.45800   0.01267  Uiso   1.00
C5     C     0.15720   0.19580   0.95160   0.01267  Uiso   1.00
C6     C     0.07750   0.35330   0.97770   0.01267  Uiso   1.00
C7     C     0.91930   0.39830   0.91970   0.01267  Uiso   1.00
C8     C     0.15720   0.45800   0.06060   0.01267  Uiso   1.00
C9     C     0.65720   0.04840   0.80420   0.01267  Uiso   1.00
C10    C     0.57750   0.02230   0.64670   0.01267  Uiso   1.00
C11    C     0.41930   0.08030   0.60170   0.01267  Uiso   1.00
C12    C     0.65720   0.93940   0.54200   0.01267  Uiso   1.00
C13    C     0.84280   0.80420   0.04840   0.01267  Uiso   1.00
C14    C     0.92250   0.64670   0.02230   0.01267  Uiso   1.00
C15    C     0.08070   0.60170   0.08030   0.01267  Uiso   1.00
C16    C     0.84280   0.54200   0.93940   0.01267  Uiso   1.00
O1     O     0.41980   0.90260   0.10500   0.01267  Uiso   1.00
O2     O     0.19680   0.98000   0.16420   0.01267  Uiso   1.00
O3     O     0.18900   0.12590   0.42650   0.01267  Uiso   1.00
O4     O     0.08020   0.10500   0.90260   0.01267  Uiso   1.00
O5     O     0.30320   0.16420   0.98000   0.01267  Uiso   1.00
O6     O     0.31100   0.42650   0.12590   0.01267  Uiso   1.00
O7     O     0.58020   0.09740   0.89500   0.01267  Uiso   1.00
O8     O     0.80320   0.02000   0.83580   0.01267  Uiso   1.00
O9     O     0.81100   0.87410   0.57350   0.01267  Uiso   1.00
O10    O     0.91980   0.89500   0.09740   0.01267  Uiso   1.00
O11    O     0.69680   0.83580   0.02000   0.01267  Uiso   1.00
O12    O     0.68900   0.57350   0.87410   0.01267  Uiso   1.00
