data_image0
_cell_length_a       7.5943
_cell_length_b       7.8172
_cell_length_c       18.318
_cell_angle_alpha    90
_cell_angle_beta     99.111
_cell_angle_gamma    90

_symmetry_space_group_name_H-M    "P 1"
_symmetry_int_tables_number       1

loop_
  _symmetry_equiv_pos_as_xyz
  'x, y, z'

loop_
  _atom_site_label
  _atom_site_occupancy
  _atom_site_fract_x
  _atom_site_fract_y
  _atom_site_fract_z
  _atom_site_thermal_displace_type
  _atom_site_B_iso_or_equiv
  _atom_site_type_symbol
  Fe1      1.0000 0.36475  0.21560  0.38359  Biso   1.000  Fe
  Fe2      1.0000 0.71230  0.95835  0.43997  Biso   1.000  Fe
  Fe3      1.0000 0.62826  0.08735  0.11549  Biso   1.000  Fe
  Fe4      1.0000 0.27920  0.34940  0.05819  Biso   1.000  Fe
  P1       1.0000 0.44970  0.72850  0.05537  Biso   1.000  P
  P2       1.0000 0.55860  0.57520  0.44558  Biso   1.000  P
  O1       1.0000 0.43130  0.46150  0.39380  Biso   1.000  O
  O2       1.0000 0.18830  0.00730  0.36490  Biso   1.000  O
  O3       1.0000 0.57690  0.09640  0.34030  Biso   1.000  O
  O4       1.0000 0.49650  0.58990  0.52070  Biso   1.000  O
  O5       1.0000 0.30140  0.25950  0.26140  Biso   1.000  O
  O6       1.0000 0.13860  0.29090  0.44560  Biso   1.000  O
  O7       1.0000 0.57620  0.74630  0.41090  Biso   1.000  O
  O8       1.0000 0.94210  0.89600  0.39570  Biso   1.000  O
  O9       1.0000 0.87900  0.17780  0.46740  Biso   1.000  O
  O10      1.0000 0.58190  0.83500  0.10750  Biso   1.000  O
  O11      1.0000 0.80390  0.28740  0.13390  Biso   1.000  O
  O12      1.0000 0.40950  0.20100  0.15720  Biso   1.000  O
  O13      1.0000 0.51520  0.70710  0.98130  Biso   1.000  O
  O14      1.0000 0.68980  0.04200  0.23670  Biso   1.000  O
  O15      1.0000 0.85580  0.01570  0.04970  Biso   1.000  O
  O16      1.0000 0.41480  0.55720  0.08920  Biso   1.000  O
  O17      1.0000 0.05230  0.40520  0.10880  Biso   1.000  O
  O18      1.0000 0.11020  0.13780  0.02660  Biso   1.000  O
  O19      1.0000 0.26290  0.82310  0.04310  Biso   1.000  O
  H1       1.0000 0.27360  0.91740  0.02480  Biso   1.000  H
  O20      1.0000 0.75140  0.49520  0.45610  Biso   1.000  O
  H2       1.0000 0.74960  0.40040  0.47510  Biso   1.000  H
  C1       1.0000 0.94050  0.29050  0.10310  Biso   1.000  C
  C2       1.0000 0.97180  0.13180  0.05540  Biso   1.000  C
  C3       1.0000 0.02320  0.17690  0.44160  Biso   1.000  C
  C4       1.0000 0.05270  0.01470  0.39600  Biso   1.000  C
  C5       1.0000 0.41340  0.19800  0.22740  Biso   1.000  C
  C6       1.0000 0.57780  0.10190  0.27210  Biso   1.000  C
  Fe5      1.0000 0.63525  0.71560  0.61641  Biso   1.000  Fe
  Fe6      1.0000 0.28770  0.45835  0.56003  Biso   1.000  Fe
  Fe7      1.0000 0.37174  0.58735  0.88451  Biso   1.000  Fe
  Fe8      1.0000 0.72080  0.84940  0.94181  Biso   1.000  Fe
  P3       1.0000 0.55030  0.22850  0.94463  Biso   1.000  P
  P4       1.0000 0.44140  0.07520  0.55442  Biso   1.000  P
  O21      1.0000 0.56870  0.96150  0.60620  Biso   1.000  O
  O22      1.0000 0.81170  0.50730  0.63510  Biso   1.000  O
  O23      1.0000 0.42310  0.59640  0.65970  Biso   1.000  O
  O24      1.0000 0.50350  0.08990  0.47930  Biso   1.000  O
  O25      1.0000 0.69860  0.75950  0.73860  Biso   1.000  O
  O26      1.0000 0.86140  0.79090  0.55440  Biso   1.000  O
  O27      1.0000 0.42380  0.24630  0.58910  Biso   1.000  O
  O28      1.0000 0.05790  0.39600  0.60430  Biso   1.000  O
  O29      1.0000 0.12100  0.67780  0.53260  Biso   1.000  O
  O30      1.0000 0.41810  0.33500  0.89250  Biso   1.000  O
  O31      1.0000 0.19610  0.78740  0.86610  Biso   1.000  O
  O32      1.0000 0.59050  0.70100  0.84280  Biso   1.000  O
  O33      1.0000 0.48480  0.20710  0.01870  Biso   1.000  O
  O34      1.0000 0.31020  0.54200  0.76330  Biso   1.000  O
  O35      1.0000 0.14420  0.51570  0.95030  Biso   1.000  O
  O36      1.0000 0.58520  0.05720  0.91080  Biso   1.000  O
  O37      1.0000 0.94770  0.90520  0.89120  Biso   1.000  O
  O38      1.0000 0.88980  0.63780  0.97340  Biso   1.000  O
  O39      1.0000 0.73710  0.32310  0.95690  Biso   1.000  O
  H3       1.0000 0.72640  0.41740  0.97520  Biso   1.000  H
  O40      1.0000 0.24860  0.99520  0.54390  Biso   1.000  O
  H4       1.0000 0.25040  0.90040  0.52490  Biso   1.000  H
  C7       1.0000 0.05950  0.79050  0.89690  Biso   1.000  C
  C8       1.0000 0.02820  0.63180  0.94460  Biso   1.000  C
  C9       1.0000 0.97680  0.67690  0.55840  Biso   1.000  C
  C10      1.0000 0.94730  0.51470  0.60400  Biso   1.000  C
  C11      1.0000 0.58660  0.69800  0.77260  Biso   1.000  C
  C12      1.0000 0.42220  0.60190  0.72790  Biso   1.000  C
