data_image0
_cell_length_a       11.5432
_cell_length_b       11.6723
_cell_length_c       11.8414
_cell_angle_alpha    65.44
_cell_angle_beta     78.968
_cell_angle_gamma    72.175

_symmetry_space_group_name_H-M    "P 1"
_symmetry_int_tables_number       1

loop_
  _symmetry_equiv_pos_as_xyz
  'x, y, z'

loop_
  _atom_site_label
  _atom_site_occupancy
  _atom_site_fract_x
  _atom_site_fract_y
  _atom_site_fract_z
  _atom_site_thermal_displace_type
  _atom_site_B_iso_or_equiv
  _atom_site_type_symbol
  O1       1.0000 0.54650  0.40140  0.37840  Biso   1.000  O
  O2       1.0000 0.53970  0.42750  0.18390  Biso   1.000  O
  O3       1.0000 0.57880  0.65280  0.95210  Biso   1.000  O
  O4       1.0000 0.54910  0.86140  0.91580  Biso   1.000  O
  N1       1.0000 0.48090  0.65710  0.32880  Biso   1.000  N
  N2       1.0000 0.48350  0.83030  0.15280  Biso   1.000  N
  N3       1.0000 0.69120  0.50420  0.49730  Biso   1.000  N
  N4       1.0000 0.69600  0.94970  0.03330  Biso   1.000  N
  N5       1.0000 0.32450  0.62260  0.03080  Biso   1.000  N
  C1       1.0000 0.53470  0.47380  0.26250  Biso   1.000  C
  C2       1.0000 0.51190  0.61580  0.23170  Biso   1.000  C
  C3       1.0000 0.51400  0.72440  0.12190  Biso   1.000  C
  C4       1.0000 0.54890  0.74540  0.98910  Biso   1.000  C
  C5       1.0000 0.46420  0.78650  0.27740  Biso   1.000  C
  C6       1.0000 0.42960  0.87140  0.35200  Biso   1.000  C
  H1       1.0000 0.47000  0.94170  0.31230  Biso   1.000  H
  H2       1.0000 0.45860  0.82030  0.43450  Biso   1.000  H
  C7       1.0000 0.29270  0.92910  0.36410  Biso   1.000  C
  H3       1.0000 0.27590  0.98330  0.41090  Biso   1.000  H
  H4       1.0000 0.25240  0.86000  0.40630  Biso   1.000  H
  H5       1.0000 0.26350  0.98020  0.28270  Biso   1.000  H
  C8       1.0000 0.78110  0.40180  0.50210  Biso   1.000  C
  H6       1.0000 0.76250  0.32940  0.50280  Biso   1.000  H
  C9       1.0000 0.90330  0.39500  0.50620  Biso   1.000  C
  H7       1.0000 0.96290  0.31810  0.51360  Biso   1.000  H
  C10      1.0000 0.93510  0.50170  0.49920  Biso   1.000  C
  C11      1.0000 0.84050  0.60510  0.49620  Biso   1.000  C
  H8       1.0000 0.85520  0.67920  0.49610  Biso   1.000  H
  C12      1.0000 0.72270  0.60290  0.49330  Biso   1.000  C
  H9       1.0000 0.66130  0.67790  0.48810  Biso   1.000  H
  C13      1.0000 0.74510  0.86270  0.13690  Biso   1.000  C
  H10      1.0000 0.69340  0.83890  0.20860  Biso   1.000  H
  C14      1.0000 0.86850  0.80480  0.14570  Biso   1.000  C
  H11      1.0000 0.89700  0.74460  0.22220  Biso   1.000  H
  C15      1.0000 0.94980  0.83460  0.04330  Biso   1.000  C
  C16      1.0000 0.89960  0.93130  0.93610  Biso   1.000  C
  H12      1.0000 0.94920  0.95960  0.86370  Biso   1.000  H
  C17      1.0000 0.77470  0.98590  0.93740  Biso   1.000  C
  H13      1.0000 0.74420  0.05330  0.86500  Biso   1.000  H
  C18      1.0000 0.08140  0.76630  0.04380  Biso   1.000  C
  C19      1.0000 0.12750  0.64780  0.13780  Biso   1.000  C
  H14      1.0000 0.07710  0.61410  0.20780  Biso   1.000  H
  C20      1.0000 0.24590  0.58080  0.12810  Biso   1.000  C
  H15      1.0000 0.27370  0.50170  0.19250  Biso   1.000  H
  C21      1.0000 0.28140  0.73930  0.94290  Biso   1.000  C
  H16      1.0000 0.33460  0.77300  0.87580  Biso   1.000  H
  C22      1.0000 0.16300  0.81230  0.94630  Biso   1.000  C
  H17      1.0000 0.13820  0.89290  0.88260  Biso   1.000  H
  O5       1.0000 0.45350  0.59860  0.62160  Biso   1.000  O
  O6       1.0000 0.46030  0.57250  0.81610  Biso   1.000  O
  O7       1.0000 0.42120  0.34720  0.04790  Biso   1.000  O
  O8       1.0000 0.45090  0.13860  0.08420  Biso   1.000  O
  N6       1.0000 0.51910  0.34290  0.67120  Biso   1.000  N
  N7       1.0000 0.51650  0.16970  0.84720  Biso   1.000  N
  N8       1.0000 0.30880  0.49580  0.50270  Biso   1.000  N
  N9       1.0000 0.30400  0.05030  0.96670  Biso   1.000  N
  N10      1.0000 0.67550  0.37740  0.96920  Biso   1.000  N
  C23      1.0000 0.46530  0.52620  0.73750  Biso   1.000  C
  C24      1.0000 0.48810  0.38420  0.76830  Biso   1.000  C
  C25      1.0000 0.48600  0.27560  0.87810  Biso   1.000  C
  C26      1.0000 0.45110  0.25460  0.01090  Biso   1.000  C
  C27      1.0000 0.53580  0.21350  0.72260  Biso   1.000  C
  C28      1.0000 0.57040  0.12860  0.64800  Biso   1.000  C
  H18      1.0000 0.53000  0.05830  0.68770  Biso   1.000  H
  H19      1.0000 0.54140  0.17970  0.56550  Biso   1.000  H
  C29      1.0000 0.70730  0.07090  0.63590  Biso   1.000  C
  H20      1.0000 0.72410  0.01670  0.58910  Biso   1.000  H
  H21      1.0000 0.74760  0.14000  0.59370  Biso   1.000  H
  H22      1.0000 0.73650  0.01980  0.71730  Biso   1.000  H
  C30      1.0000 0.21890  0.59820  0.49790  Biso   1.000  C
  H23      1.0000 0.23750  0.67060  0.49720  Biso   1.000  H
  C31      1.0000 0.09670  0.60500  0.49380  Biso   1.000  C
  H24      1.0000 0.03710  0.68190  0.48640  Biso   1.000  H
  C32      1.0000 0.06490  0.49830  0.50080  Biso   1.000  C
  C33      1.0000 0.15950  0.39490  0.50380  Biso   1.000  C
  H25      1.0000 0.14480  0.32080  0.50390  Biso   1.000  H
  C34      1.0000 0.27730  0.39710  0.50670  Biso   1.000  C
  H26      1.0000 0.33870  0.32210  0.51190  Biso   1.000  H
  C35      1.0000 0.25490  0.13730  0.86310  Biso   1.000  C
  H27      1.0000 0.30660  0.16110  0.79140  Biso   1.000  H
  C36      1.0000 0.13150  0.19520  0.85430  Biso   1.000  C
  H28      1.0000 0.10300  0.25540  0.77780  Biso   1.000  H
  C37      1.0000 0.05020  0.16540  0.95670  Biso   1.000  C
  C38      1.0000 0.10040  0.06870  0.06390  Biso   1.000  C
  H29      1.0000 0.05080  0.04040  0.13630  Biso   1.000  H
  C39      1.0000 0.22530  0.01410  0.06260  Biso   1.000  C
  H30      1.0000 0.25580  0.94670  0.13500  Biso   1.000  H
  C40      1.0000 0.91860  0.23370  0.95620  Biso   1.000  C
  C41      1.0000 0.87250  0.35220  0.86220  Biso   1.000  C
  H31      1.0000 0.92290  0.38590  0.79220  Biso   1.000  H
  C42      1.0000 0.75410  0.41920  0.87190  Biso   1.000  C
  H32      1.0000 0.72630  0.49830  0.80750  Biso   1.000  H
  C43      1.0000 0.71860  0.26070  0.05710  Biso   1.000  C
  H33      1.0000 0.66540  0.22700  0.12420  Biso   1.000  H
  C44      1.0000 0.83700  0.18770  0.05370  Biso   1.000  C
  H34      1.0000 0.86180  0.10710  0.11740  Biso   1.000  H
  Co1      1.0000 0.50000  0.50000  0.50000  Biso   1.000  Co
  Co2      1.0000 0.50000  0.50000  0.00000  Biso   1.000  Co
  Co3      1.0000 0.50000  0.00000  0.00000  Biso   1.000  Co
