data_image0
_cell_length_a       11.583
_cell_length_b       11.74
_cell_length_c       13.638
_cell_angle_alpha    76.28
_cell_angle_beta     75.52
_cell_angle_gamma    65.567

_symmetry_space_group_name_H-M    "P 1"
_symmetry_int_tables_number       1

loop_
  _symmetry_equiv_pos_as_xyz
  'x, y, z'

loop_
  _atom_site_label
  _atom_site_occupancy
  _atom_site_fract_x
  _atom_site_fract_y
  _atom_site_fract_z
  _atom_site_thermal_displace_type
  _atom_site_B_iso_or_equiv
  _atom_site_type_symbol
  O1       1.0000 0.36880  0.40890  0.53740  Biso   1.000  O
  C1       1.0000 0.25120  0.48320  0.53860  Biso   1.000  C
  O2       1.0000 0.92910  0.68190  0.53070  Biso   1.000  O
  C2       1.0000 0.97730  0.75990  0.53020  Biso   1.000  C
  O3       1.0000 0.90580  0.87490  0.53830  Biso   1.000  O
  O4       1.0000 0.16090  0.44520  0.56220  Biso   1.000  O
  N1       1.0000 0.33210  0.65280  0.48680  Biso   1.000  N
  N2       1.0000 0.15470  0.82980  0.48620  Biso   1.000  N
  C3       1.0000 0.22660  0.62100  0.51080  Biso   1.000  C
  C4       1.0000 0.11620  0.73040  0.51060  Biso   1.000  C
  N3       1.0000 0.89920  0.45310  0.64870  Biso   1.000  N
  N4       1.0000 0.53100  0.48640  0.33440  Biso   1.000  N
  N5       1.0000 0.98190  0.01370  0.34330  Biso   1.000  N
  C5       1.0000 0.48910  0.58740  0.26930  Biso   1.000  C
  H1       1.0000 0.43270  0.66130  0.29510  Biso   1.000  H
  C6       1.0000 0.60100  0.48810  0.12500  Biso   1.000  C
  C7       1.0000 0.52150  0.59370  0.16550  Biso   1.000  C
  H2       1.0000 0.48900  0.67010  0.12310  Biso   1.000  H
  C8       1.0000 0.64560  0.49870  0.01340  Biso   1.000  C
  H3       1.0000 0.60610  0.57560  0.97390  Biso   1.000  H
  C9       1.0000 0.28290  0.78150  0.47030  Biso   1.000  C
  C10      1.0000 0.94930  0.35110  0.71340  Biso   1.000  C
  H4       1.0000 0.02550  0.28850  0.68860  Biso   1.000  H
  C11      1.0000 0.89680  0.33000  0.81570  Biso   1.000  C
  H5       1.0000 0.93490  0.25410  0.85690  Biso   1.000  H
  C12      1.0000 0.78860  0.54110  0.68800  Biso   1.000  C
  H6       1.0000 0.75010  0.61410  0.64410  Biso   1.000  H
  C13      1.0000 0.60450  0.38390  0.29410  Biso   1.000  C
  H7       1.0000 0.63160  0.30770  0.33790  Biso   1.000  H
  C14      1.0000 0.72970  0.53030  0.78780  Biso   1.000  C
  H8       1.0000 0.65230  0.59300  0.81060  Biso   1.000  H
  C15      1.0000 0.78840  0.42240  0.85520  Biso   1.000  C
  C16      1.0000 0.73660  0.40840  0.96490  Biso   1.000  C
  H9       1.0000 0.77090  0.32930  0.00340  Biso   1.000  H
  C17      1.0000 0.36560  0.85550  0.43740  Biso   1.000  C
  H10      1.0000 0.42880  0.82540  0.48120  Biso   1.000  H
  H11      1.0000 0.31390  0.94320  0.44150  Biso   1.000  H
  H12      1.0000 0.40810  0.84620  0.36800  Biso   1.000  H
  C18      1.0000 0.64310  0.38270  0.19270  Biso   1.000  C
  H13      1.0000 0.69990  0.30750  0.16890  Biso   1.000  H
  C19      1.0000 0.95380  0.01070  0.03900  Biso   1.000  C
  H14      1.0000 0.87300  0.02550  0.02680  Biso   1.000  H
  C20      1.0000 0.87030  0.02350  0.31610  Biso   1.000  C
  H15      1.0000 0.79860  0.02940  0.36710  Biso   1.000  H
  C21      1.0000 0.86070  0.02490  0.21990  Biso   1.000  C
  H16      1.0000 0.78270  0.03320  0.20620  Biso   1.000  H
  C22      1.0000 0.95990  0.01460  0.14370  Biso   1.000  C
  C23      1.0000 0.08010  0.00390  0.16860  Biso   1.000  C
  H17      1.0000 0.15330  0.99450  0.11860  Biso   1.000  H
  C24      1.0000 0.08170  0.00800  0.26740  Biso   1.000  C
  H18      1.0000 0.15610  0.00680  0.28260  Biso   1.000  H
  O5       1.0000 0.63120  0.59110  0.46260  Biso   1.000  O
  C25      1.0000 0.74880  0.51680  0.46140  Biso   1.000  C
  O6       1.0000 0.07090  0.31810  0.46930  Biso   1.000  O
  C26      1.0000 0.02270  0.24010  0.46980  Biso   1.000  C
  O7       1.0000 0.09420  0.12510  0.46170  Biso   1.000  O
  O8       1.0000 0.83910  0.55480  0.43780  Biso   1.000  O
  N6       1.0000 0.66790  0.34720  0.51320  Biso   1.000  N
  N7       1.0000 0.84530  0.17020  0.51380  Biso   1.000  N
  C27      1.0000 0.77340  0.37900  0.48920  Biso   1.000  C
  C28      1.0000 0.88380  0.26960  0.48940  Biso   1.000  C
  N8       1.0000 0.10080  0.54690  0.35130  Biso   1.000  N
  N9       1.0000 0.46900  0.51360  0.66560  Biso   1.000  N
  N10      1.0000 0.01810  0.98630  0.65670  Biso   1.000  N
  C29      1.0000 0.51090  0.41260  0.73070  Biso   1.000  C
  H19      1.0000 0.56730  0.33870  0.70490  Biso   1.000  H
  C30      1.0000 0.39900  0.51190  0.87500  Biso   1.000  C
  C31      1.0000 0.47850  0.40630  0.83450  Biso   1.000  C
  H20      1.0000 0.51100  0.32990  0.87690  Biso   1.000  H
  C32      1.0000 0.35440  0.50130  0.98660  Biso   1.000  C
  H21      1.0000 0.39390  0.42440  0.02610  Biso   1.000  H
  C33      1.0000 0.71710  0.21850  0.52970  Biso   1.000  C
  C34      1.0000 0.05070  0.64890  0.28660  Biso   1.000  C
  H22      1.0000 0.97450  0.71150  0.31140  Biso   1.000  H
  C35      1.0000 0.10320  0.67000  0.18430  Biso   1.000  C
  H23      1.0000 0.06510  0.74590  0.14310  Biso   1.000  H
  C36      1.0000 0.21140  0.45890  0.31200  Biso   1.000  C
  H24      1.0000 0.24990  0.38590  0.35590  Biso   1.000  H
  C37      1.0000 0.39550  0.61610  0.70590  Biso   1.000  C
  H25      1.0000 0.36840  0.69230  0.66210  Biso   1.000  H
  C38      1.0000 0.27030  0.46970  0.21220  Biso   1.000  C
  H26      1.0000 0.34770  0.40700  0.18940  Biso   1.000  H
  C39      1.0000 0.21160  0.57760  0.14480  Biso   1.000  C
  C40      1.0000 0.26340  0.59160  0.03510  Biso   1.000  C
  H27      1.0000 0.22910  0.67070  0.99660  Biso   1.000  H
  C41      1.0000 0.63440  0.14450  0.56260  Biso   1.000  C
  H28      1.0000 0.57120  0.17460  0.51880  Biso   1.000  H
  H29      1.0000 0.68610  0.05680  0.55850  Biso   1.000  H
  H30      1.0000 0.59190  0.15380  0.63200  Biso   1.000  H
  C42      1.0000 0.35690  0.61730  0.80730  Biso   1.000  C
  H31      1.0000 0.30010  0.69250  0.83110  Biso   1.000  H
  C43      1.0000 0.04620  0.98930  0.96100  Biso   1.000  C
  H32      1.0000 0.12700  0.97450  0.97320  Biso   1.000  H
  C44      1.0000 0.12970  0.97650  0.68390  Biso   1.000  C
  H33      1.0000 0.20140  0.97060  0.63290  Biso   1.000  H
  C45      1.0000 0.13930  0.97510  0.78010  Biso   1.000  C
  H34      1.0000 0.21730  0.96680  0.79380  Biso   1.000  H
  C46      1.0000 0.04010  0.98540  0.85630  Biso   1.000  C
  C47      1.0000 0.91990  0.99610  0.83140  Biso   1.000  C
  H35      1.0000 0.84670  0.00550  0.88140  Biso   1.000  H
  C48      1.0000 0.91830  0.99200  0.73260  Biso   1.000  C
  H36      1.0000 0.84390  0.99320  0.71740  Biso   1.000  H
  Co1      1.0000 0.00000  0.00000  0.50000  Biso   1.000  Co
  Co2      1.0000 0.00000  0.50000  0.50000  Biso   1.000  Co
  Co3      1.0000 0.50000  0.50000  0.50000  Biso   1.000  Co
