data_VAHPUR_clean
_audit_creation_date              2014-07-02
_audit_creation_method            'Materials Studio'
_symmetry_space_group_name_H-M    'P1'
_symmetry_Int_Tables_number       1
_symmetry_cell_setting            triclinic
loop_
_symmetry_equiv_pos_as_xyz
  x,y,z
_cell_length_a                    16.0430
_cell_length_b                    19.7227
_cell_length_c                    19.7227
_cell_angle_alpha                 80.4785
_cell_angle_beta                  66.0014
_cell_angle_gamma                 66.0013
loop_
_atom_site_label
_atom_site_type_symbol
_atom_site_fract_x
_atom_site_fract_y
_atom_site_fract_z
_atom_site_U_iso_or_equiv
_atom_site_adp_type
_atom_site_occupancy
Dy1    Dy    0.95911   0.70162   0.88457   0.01267  Uiso   1.00
Dy2    Dy    0.54529   0.29838   0.11544   0.01267  Uiso   1.00
Cu1    Cu    0.61270   0.59071   0.18723   0.01267  Uiso   1.00
Cu2    Cu    0.39064   0.40929   0.81277   0.01267  Uiso   1.00
H1     H     0.11950   0.58260   0.06780   0.01267  Uiso   1.00
H2     H     0.23850   0.55710   0.11590   0.01267  Uiso   1.00
H3     H     0.22350   0.72480   0.92400   0.01267  Uiso   1.00
H4     H     0.33640   0.70250   0.97370   0.01267  Uiso   1.00
H5     H     0.41500   0.50570   0.10250   0.01267  Uiso   1.00
H6     H     0.53420   0.49280   0.14480   0.01267  Uiso   1.00
H7     H     0.35930   0.72410   0.07950   0.01267  Uiso   1.00
H8     H     0.47450   0.70450   0.12770   0.01267  Uiso   1.00
H9     H     0.84300   0.58470   0.76770   0.01267  Uiso   1.00
H10    H     0.73430   0.54630   0.75310   0.01267  Uiso   1.00
H11    H     0.68350   0.61460   0.98460   0.01267  Uiso   1.00
H12    H     0.57240   0.57530   0.97150   0.01267  Uiso   1.00
H13    H     0.57070   0.57700   0.75380   0.01267  Uiso   1.00
H14    H     0.46560   0.53150   0.74230   0.01267  Uiso   1.00
H15    H     0.53990   0.47670   0.94990   0.01267  Uiso   1.00
H16    H     0.43140   0.43660   0.93620   0.01267  Uiso   1.00
H17    H     0.11070   0.75960   0.62880   0.01267  Uiso   1.00
H18    H     0.21960   0.73690   0.50590   0.01267  Uiso   1.00
H19    H     0.27610   0.56330   0.68790   0.01267  Uiso   1.00
H20    H     0.38350   0.54220   0.56700   0.01267  Uiso   1.00
H21    H     0.28650   0.65200   0.39920   0.01267  Uiso   1.00
H22    H     0.40060   0.62750   0.27850   0.01267  Uiso   1.00
H23    H     0.51130   0.59070   0.46550   0.01267  Uiso   1.00
H24    H     0.61650   0.57350   0.34490   0.01267  Uiso   1.00
H25    H     0.82750   0.96460   0.92140   0.01267  Uiso   1.00
H26    H     0.73250   0.08820   0.91220   0.01267  Uiso   1.00
H27    H     0.68750   0.90510   0.83250   0.01267  Uiso   1.00
H28    H     0.60550   0.02830   0.81090   0.01267  Uiso   1.00
H29    H     0.57370   0.19060   0.94640   0.01267  Uiso   1.00
H30    H     0.48170   0.30970   0.92710   0.01267  Uiso   1.00
H31    H     0.61820   0.14210   0.74250   0.01267  Uiso   1.00
H32    H     0.52270   0.26260   0.72980   0.01267  Uiso   1.00
H33    H     0.76990   0.41740   0.93220   0.01267  Uiso   1.00
H34    H     0.91150   0.44290   0.88410   0.01267  Uiso   1.00
H35    H     0.87230   0.27520   0.07600   0.01267  Uiso   1.00
H36    H     0.01260   0.29750   0.02630   0.01267  Uiso   1.00
H37    H     0.02320   0.49430   0.89750   0.01267  Uiso   1.00
H38    H     0.17180   0.50720   0.85520   0.01267  Uiso   1.00
H39    H     0.16290   0.27590   0.92050   0.01267  Uiso   1.00
H40    H     0.30670   0.29550   0.87230   0.01267  Uiso   1.00
H41    H     0.19540   0.41530   0.23230   0.01267  Uiso   1.00
H42    H     0.03370   0.45370   0.24690   0.01267  Uiso   1.00
H43    H     0.28270   0.38540   0.01540   0.01267  Uiso   1.00
H44    H     0.11920   0.42470   0.02850   0.01267  Uiso   1.00
H45    H     0.90150   0.42300   0.24620   0.01267  Uiso   1.00
H46    H     0.73940   0.46850   0.25770   0.01267  Uiso   1.00
H47    H     0.96650   0.52330   0.05010   0.01267  Uiso   1.00
H48    H     0.80420   0.56340   0.06380   0.01267  Uiso   1.00
H49    H     0.49910   0.24040   0.37120   0.01267  Uiso   1.00
H50    H     0.46240   0.26310   0.49410   0.01267  Uiso   1.00
H51    H     0.52730   0.43670   0.31210   0.01267  Uiso   1.00
H52    H     0.49270   0.45780   0.43300   0.01267  Uiso   1.00
H53    H     0.33770   0.34800   0.60080   0.01267  Uiso   1.00
H54    H     0.30660   0.37250   0.72150   0.01267  Uiso   1.00
H55    H     0.56750   0.40930   0.53450   0.01267  Uiso   1.00
H56    H     0.53490   0.42650   0.65510   0.01267  Uiso   1.00
H57    H     0.71350   0.03540   0.07860   0.01267  Uiso   1.00
H58    H     0.73290   0.91180   0.08780   0.01267  Uiso   1.00
H59    H     0.42510   0.09490   0.16750   0.01267  Uiso   1.00
H60    H     0.44470   0.97170   0.18910   0.01267  Uiso   1.00
H61    H     0.71070   0.80940   0.05360   0.01267  Uiso   1.00
H62    H     0.71850   0.69030   0.07290   0.01267  Uiso   1.00
H63    H     0.50280   0.85790   0.25750   0.01267  Uiso   1.00
H64    H     0.51510   0.73740   0.27020   0.01267  Uiso   1.00
C1     C     0.08340   0.67180   0.95680   0.01267  Uiso   1.00
C2     C     0.16050   0.65350   0.98950   0.01267  Uiso   1.00
C3     C     0.16450   0.60580   0.04780   0.01267  Uiso   1.00
C4     C     0.23500   0.59150   0.07770   0.01267  Uiso   1.00
C5     C     0.22620   0.69100   0.96260   0.01267  Uiso   1.00
C6     C     0.29310   0.67760   0.99280   0.01267  Uiso   1.00
C7     C     0.30030   0.62820   0.05120   0.01267  Uiso   1.00
C8     C     0.37320   0.61730   0.08290   0.01267  Uiso   1.00
C9     C     0.42747   0.54710   0.10516   0.01267  Uiso   1.00
C10    C     0.49930   0.53970   0.13090   0.01267  Uiso   1.00
C11    C     0.39350   0.67620   0.09200   0.01267  Uiso   1.00
C12    C     0.46500   0.66340   0.12000   0.01267  Uiso   1.00
C13    C     0.84950   0.62520   0.88420   0.01267  Uiso   1.00
C14    C     0.77534   0.60109   0.87803   0.01267  Uiso   1.00
C15    C     0.78870   0.58220   0.80880   0.01267  Uiso   1.00
C16    C     0.72310   0.55990   0.79990   0.01267  Uiso   1.00
C17    C     0.69410   0.60010   0.93830   0.01267  Uiso   1.00
C18    C     0.62660   0.57720   0.93000   0.01267  Uiso   1.00
C19    C     0.63920   0.55730   0.86070   0.01267  Uiso   1.00
C20    C     0.56810   0.53206   0.85294   0.01267  Uiso   1.00
C21    C     0.54440   0.54760   0.79140   0.01267  Uiso   1.00
C22    C     0.48090   0.51960   0.78460   0.01267  Uiso   1.00
C23    C     0.52570   0.48880   0.90720   0.01267  Uiso   1.00
C24    C     0.46150   0.46350   0.89790   0.01267  Uiso   1.00
C25    C     0.10780   0.67750   0.74810   0.01267  Uiso   1.00
C26    C     0.18080   0.66340   0.67080   0.01267  Uiso   1.00
C27    C     0.16550   0.71540   0.61620   0.01267  Uiso   1.00
C28    C     0.23140   0.70230   0.54250   0.01267  Uiso   1.00
C29    C     0.26410   0.59840   0.65180   0.01267  Uiso   1.00
C30    C     0.32860   0.58630   0.57930   0.01267  Uiso   1.00
C31    C     0.31450   0.63740   0.52420   0.01267  Uiso   1.00
C32    C     0.38550   0.62340   0.44620   0.01267  Uiso   1.00
C33    C     0.35350   0.63490   0.38970   0.01267  Uiso   1.00
C34    C     0.42330   0.62050   0.31670   0.01267  Uiso   1.00
C35    C     0.48670   0.59920   0.42820   0.01267  Uiso   1.00
C36    C     0.54950   0.58820   0.35560   0.01267  Uiso   1.00
C37    C     0.81860   0.84170   0.89410   0.01267  Uiso   1.00
C38    C     0.76310   0.92270   0.88310   0.01267  Uiso   1.00
C39    C     0.77900   0.97690   0.90210   0.01267  Uiso   1.00
C40    C     0.72470   0.05160   0.89380   0.01267  Uiso   1.00
C41    C     0.69810   0.94190   0.84790   0.01267  Uiso   1.00
C42    C     0.64820   0.01600   0.83560   0.01267  Uiso   1.00
C43    C     0.66060   0.07110   0.85930   0.01267  Uiso   1.00
C44    C     0.60570   0.15030   0.84710   0.01267  Uiso   1.00
C45    C     0.56420   0.20350   0.90170   0.01267  Uiso   1.00
C46    C     0.50880   0.27520   0.88960   0.01267  Uiso   1.00
C47    C     0.59000   0.17500   0.78160   0.01267  Uiso   1.00
C48    C     0.53290   0.24800   0.77400   0.01267  Uiso   1.00
C49    C     0.71200   0.32820   0.04320   0.01267  Uiso   1.00
C50    C     0.80350   0.34650   0.01050   0.01267  Uiso   1.00
C51    C     0.81810   0.39420   0.95220   0.01267  Uiso   1.00
C52    C     0.90420   0.40850   0.92230   0.01267  Uiso   1.00
C53    C     0.87980   0.30900   0.03740   0.01267  Uiso   1.00
C54    C     0.96350   0.32240   0.00720   0.01267  Uiso   1.00
C55    C     0.97970   0.37180   0.94880   0.01267  Uiso   1.00
C56    C     0.07340   0.38270   0.91710   0.01267  Uiso   1.00
C57    C     0.07973   0.45290   0.89484   0.01267  Uiso   1.00
C58    C     0.16990   0.46030   0.86910   0.01267  Uiso   1.00
C59    C     0.16170   0.32380   0.90800   0.01267  Uiso   1.00
C60    C     0.24840   0.33660   0.88000   0.01267  Uiso   1.00
C61    C     0.35890   0.37480   0.11580   0.01267  Uiso   1.00
C62    C     0.25446   0.39891   0.12197   0.01267  Uiso   1.00
C63    C     0.17970   0.41780   0.19120   0.01267  Uiso   1.00
C64    C     0.08290   0.44010   0.20010   0.01267  Uiso   1.00
C65    C     0.23250   0.39990   0.06170   0.01267  Uiso   1.00
C66    C     0.13380   0.42280   0.07000   0.01267  Uiso   1.00
C67    C     0.05720   0.44270   0.13930   0.01267  Uiso   1.00
C68    C     0.95310   0.46794   0.14706   0.01267  Uiso   1.00
C69    C     0.88340   0.45240   0.20860   0.01267  Uiso   1.00
C70    C     0.78510   0.48040   0.21540   0.01267  Uiso   1.00
C71    C     0.92170   0.51120   0.09280   0.01267  Uiso   1.00
C72    C     0.82290   0.53650   0.10210   0.01267  Uiso   1.00
C73    C     0.53340   0.32250   0.25190   0.01267  Uiso   1.00
C74    C     0.51500   0.33660   0.32920   0.01267  Uiso   1.00
C75    C     0.49710   0.28460   0.38380   0.01267  Uiso   1.00
C76    C     0.47620   0.29770   0.45750   0.01267  Uiso   1.00
C77    C     0.51430   0.40160   0.34820   0.01267  Uiso   1.00
C78    C     0.49420   0.41370   0.42070   0.01267  Uiso   1.00
C79    C     0.47610   0.36260   0.47580   0.01267  Uiso   1.00
C80    C     0.45510   0.37660   0.55380   0.01267  Uiso   1.00
C81    C     0.37810   0.36510   0.61030   0.01267  Uiso   1.00
C82    C     0.36050   0.37950   0.68330   0.01267  Uiso   1.00
C83    C     0.51410   0.40080   0.57180   0.01267  Uiso   1.00
C84    C     0.49330   0.41180   0.64440   0.01267  Uiso   1.00
C85    C     0.55440   0.15830   0.10590   0.01267  Uiso   1.00
C86    C     0.56890   0.07730   0.11690   0.01267  Uiso   1.00
C87    C     0.65800   0.02310   0.09790   0.01267  Uiso   1.00
C88    C     0.67010   0.94840   0.10620   0.01267  Uiso   1.00
C89    C     0.48790   0.05810   0.15210   0.01267  Uiso   1.00
C90    C     0.49980   0.98400   0.16440   0.01267  Uiso   1.00
C91    C     0.59100   0.92890   0.14070   0.01267  Uiso   1.00
C92    C     0.60310   0.84970   0.15290   0.01267  Uiso   1.00
C93    C     0.66940   0.79650   0.09830   0.01267  Uiso   1.00
C94    C     0.67360   0.72480   0.11040   0.01267  Uiso   1.00
C95    C     0.54660   0.82500   0.21840   0.01267  Uiso   1.00
C96    C     0.55490   0.75200   0.22600   0.01267  Uiso   1.00
N1     N     0.52102   0.59730   0.13686   0.01267  Uiso   1.00
N2     N     0.44104   0.47622   0.83610   0.01267  Uiso   1.00
N3     N     0.52069   0.59716   0.29866   0.01267  Uiso   1.00
N4     N     0.49160   0.29858   0.82702   0.01267  Uiso   1.00
N5     N     0.25518   0.40270   0.86314   0.01267  Uiso   1.00
N6     N     0.75336   0.52378   0.16390   0.01267  Uiso   1.00
N7     N     0.41651   0.40284   0.70134   0.01267  Uiso   1.00
N8     N     0.61720   0.70142   0.17298   0.01267  Uiso   1.00
O1     O     0.07519   0.72477   0.91125   0.01267  Uiso   1.00
O2     O     0.02960   0.63519   0.97381   0.01267  Uiso   1.00
O3     O     0.83718   0.64594   0.94650   0.01267  Uiso   1.00
O4     O     0.92137   0.62643   0.82823   0.01267  Uiso   1.00
O5     O     0.11522   0.62626   0.79650   0.01267  Uiso   1.00
O6     O     0.03561   0.73935   0.76443   0.01267  Uiso   1.00
O7     O     0.81680   0.79360   0.86240   0.01267  Uiso   1.00
O8     O     0.87101   0.82399   0.93299   0.01267  Uiso   1.00
O9     O     0.71121   0.27523   0.08875   0.01267  Uiso   1.00
O10    O     0.63860   0.36481   0.02619   0.01267  Uiso   1.00
O11    O     0.42962   0.35406   0.05350   0.01267  Uiso   1.00
O12    O     0.37603   0.37357   0.17177   0.01267  Uiso   1.00
O13    O     0.53798   0.37374   0.20350   0.01267  Uiso   1.00
O14    O     0.53939   0.26065   0.23557   0.01267  Uiso   1.00
O15    O     0.47280   0.20640   0.13760   0.01267  Uiso   1.00
O16    O     0.62799   0.17601   0.06701   0.01267  Uiso   1.00
Dy3    Dy    0.15633   0.88456   0.29838   0.01267  Uiso   1.00
Dy4    Dy    0.33926   0.11544   0.70163   0.01267  Uiso   1.00
Cu3    Cu    0.20007   0.18723   0.40929   0.01267  Uiso   1.00
Cu4    Cu    0.79659   0.81277   0.59071   0.01267  Uiso   1.00
H65    H     0.81270   0.06780   0.41740   0.01267  Uiso   1.00
H66    H     0.64560   0.11590   0.44290   0.01267  Uiso   1.00
H67    H     0.85250   0.92400   0.27520   0.01267  Uiso   1.00
H68    H     0.68990   0.97370   0.29750   0.01267  Uiso   1.00
H69    H     0.48250   0.10250   0.49430   0.01267  Uiso   1.00
H70    H     0.32100   0.14480   0.50720   0.01267  Uiso   1.00
H71    H     0.56120   0.07950   0.27590   0.01267  Uiso   1.00
H72    H     0.39780   0.12770   0.29550   0.01267  Uiso   1.00
H73    H     0.38930   0.76770   0.41530   0.01267  Uiso   1.00
H74    H     0.51260   0.75310   0.45370   0.01267  Uiso   1.00
H75    H     0.33190   0.98460   0.38540   0.01267  Uiso   1.00
H76    H     0.45610   0.97150   0.42470   0.01267  Uiso   1.00
H77    H     0.67550   0.75380   0.42300   0.01267  Uiso   1.00
H78    H     0.79210   0.74230   0.46850   0.01267  Uiso   1.00
H79    H     0.51020   0.94990   0.52330   0.01267  Uiso   1.00
H80    H     0.63240   0.93620   0.56340   0.01267  Uiso   1.00
H81    H     0.26050   0.62880   0.24040   0.01267  Uiso   1.00
H82    H     0.27450   0.50590   0.26310   0.01267  Uiso   1.00
H83    H     0.03600   0.68790   0.43670   0.01267  Uiso   1.00
H84    H     0.04950   0.56700   0.45780   0.01267  Uiso   1.00
H85    H     0.31430   0.39920   0.34800   0.01267  Uiso   1.00
H86    H     0.32090   0.27850   0.37250   0.01267  Uiso   1.00
H87    H     0.02320   0.46550   0.40930   0.01267  Uiso   1.00
H88    H     0.03860   0.34490   0.42650   0.01267  Uiso   1.00
H89    H     0.25110   0.92140   0.03540   0.01267  Uiso   1.00
H90    H     0.35530   0.91220   0.91180   0.01267  Uiso   1.00
H91    H     0.48000   0.83250   0.09490   0.01267  Uiso   1.00
H92    H     0.58360   0.81090   0.97170   0.01267  Uiso   1.00
H93    H     0.47990   0.94640   0.80940   0.01267  Uiso   1.00
H94    H     0.59120   0.92710   0.69030   0.01267  Uiso   1.00
H95    H     0.63930   0.74250   0.85790   0.01267  Uiso   1.00
H96    H     0.74750   0.72980   0.73740   0.01267  Uiso   1.00
H97    H     0.29790   0.93220   0.58260   0.01267  Uiso   1.00
H98    H     0.20440   0.88410   0.55710   0.01267  Uiso   1.00
H99    H     0.05170   0.07600   0.72480   0.01267  Uiso   1.00
H100   H     0.96110   0.02630   0.70250   0.01267  Uiso   1.00
H101   H     0.07930   0.89750   0.50570   0.01267  Uiso   1.00
H102   H     0.97300   0.85520   0.49280   0.01267  Uiso   1.00
H103   H     0.91660   0.92050   0.72410   0.01267  Uiso   1.00
H104   H     0.82100   0.87230   0.70450   0.01267  Uiso   1.00
H105   H     0.57230   0.23230   0.58470   0.01267  Uiso   1.00
H106   H     0.71940   0.24690   0.54630   0.01267  Uiso   1.00
H107   H     0.70190   0.01540   0.61460   0.01267  Uiso   1.00
H108   H     0.85230   0.02850   0.57530   0.01267  Uiso   1.00
H109   H     0.85230   0.24620   0.57700   0.01267  Uiso   1.00
H110   H     0.00290   0.25770   0.53150   0.01267  Uiso   1.00
H111   H     0.98340   0.05010   0.47670   0.01267  Uiso   1.00
H112   H     0.13200   0.06380   0.43660   0.01267  Uiso   1.00
H113   H     0.12970   0.37120   0.75960   0.01267  Uiso   1.00
H114   H     0.04350   0.49410   0.73690   0.01267  Uiso   1.00
H115   H     0.16060   0.31210   0.56330   0.01267  Uiso   1.00
H116   H     0.07430   0.43300   0.54220   0.01267  Uiso   1.00
H117   H     0.06150   0.60080   0.65200   0.01267  Uiso   1.00
H118   H     0.97190   0.72150   0.62750   0.01267  Uiso   1.00
H119   H     0.89800   0.53450   0.59070   0.01267  Uiso   1.00
H120   H     0.81000   0.65510   0.57350   0.01267  Uiso   1.00
H121   H     0.20790   0.07860   0.96460   0.01267  Uiso   1.00
H122   H     0.17930   0.08780   0.08820   0.01267  Uiso   1.00
H123   H     0.40740   0.16750   0.90510   0.01267  Uiso   1.00
H124   H     0.36620   0.18910   0.02830   0.01267  Uiso   1.00
H125   H     0.23570   0.05360   0.19060   0.01267  Uiso   1.00
H126   H     0.20860   0.07290   0.30970   0.01267  Uiso   1.00
H127   H     0.23970   0.25750   0.14210   0.01267  Uiso   1.00
H128   H     0.21470   0.27020   0.26260   0.01267  Uiso   1.00
C97    C     0.95980   0.95680   0.32820   0.01267  Uiso   1.00
C98    C     0.85000   0.98950   0.34650   0.01267  Uiso   1.00
C99    C     0.78770   0.04780   0.39420   0.01267  Uiso   1.00
C100   C     0.68730   0.07770   0.40850   0.01267  Uiso   1.00
C101   C     0.81120   0.96260   0.30900   0.01267  Uiso   1.00
C102   C     0.71410   0.99280   0.32240   0.01267  Uiso   1.00
C103   C     0.64850   0.05120   0.37180   0.01267  Uiso   1.00
C104   C     0.54390   0.08290   0.38270   0.01267  Uiso   1.00
C105   C     0.46737   0.10516   0.45290   0.01267  Uiso   1.00
C106   C     0.36980   0.13090   0.46030   0.01267  Uiso   1.00
C107   C     0.51450   0.09200   0.32380   0.01267  Uiso   1.00
C108   C     0.41500   0.12000   0.33660   0.01267  Uiso   1.00
C109   C     0.26630   0.88420   0.37480   0.01267  Uiso   1.00
C110   C     0.34663   0.87803   0.39891   0.01267  Uiso   1.00
C111   C     0.40250   0.80880   0.41780   0.01267  Uiso   1.00
C112   C     0.47700   0.79990   0.44010   0.01267  Uiso   1.00
C113   C     0.36760   0.93830   0.39990   0.01267  Uiso   1.00
C114   C     0.44340   0.93000   0.42280   0.01267  Uiso   1.00
C115   C     0.50010   0.86070   0.44270   0.01267  Uiso   1.00
C116   C     0.57896   0.85294   0.46794   0.01267  Uiso   1.00
C117   C     0.66420   0.79140   0.45240   0.01267  Uiso   1.00
C118   C     0.73450   0.78460   0.48040   0.01267  Uiso   1.00
C119   C     0.56710   0.90720   0.51120   0.01267  Uiso   1.00
C120   C     0.64060   0.89790   0.53650   0.01267  Uiso   1.00
C121   C     0.14410   0.74810   0.32250   0.01267  Uiso   1.00
C122   C     0.14840   0.67080   0.33660   0.01267  Uiso   1.00
C123   C     0.21830   0.61620   0.28460   0.01267  Uiso   1.00
C124   C     0.22610   0.54250   0.29770   0.01267  Uiso   1.00
C125   C     0.08410   0.65180   0.40160   0.01267  Uiso   1.00
C126   C     0.09210   0.57930   0.41370   0.01267  Uiso   1.00
C127   C     0.16130   0.52420   0.36260   0.01267  Uiso   1.00
C128   C     0.16830   0.44620   0.37660   0.01267  Uiso   1.00
C129   C     0.25680   0.38970   0.36510   0.01267  Uiso   1.00
C130   C     0.26000   0.31670   0.37950   0.01267  Uiso   1.00
C131   C     0.08510   0.42820   0.40080   0.01267  Uiso   1.00
C132   C     0.09490   0.35560   0.41180   0.01267  Uiso   1.00
C133   C     0.28730   0.89410   0.15830   0.01267  Uiso   1.00
C134   C     0.35380   0.88310   0.07730   0.01267  Uiso   1.00
C135   C     0.31890   0.90210   0.02310   0.01267  Uiso   1.00
C136   C     0.38150   0.89380   0.94840   0.01267  Uiso   1.00
C137   C     0.45400   0.84790   0.05810   0.01267  Uiso   1.00
C138   C     0.51620   0.83560   0.98400   0.01267  Uiso   1.00
C139   C     0.48010   0.85930   0.92890   0.01267  Uiso   1.00
C140   C     0.54720   0.84710   0.84970   0.01267  Uiso   1.00
C141   C     0.53410   0.90170   0.79650   0.01267  Uiso   1.00
C142   C     0.60160   0.88960   0.72480   0.01267  Uiso   1.00
C143   C     0.62840   0.78160   0.82500   0.01267  Uiso   1.00
C144   C     0.69310   0.77400   0.75200   0.01267  Uiso   1.00
C145   C     0.24480   0.04320   0.67180   0.01267  Uiso   1.00
C146   C     0.18600   0.01050   0.65350   0.01267  Uiso   1.00
C147   C     0.22970   0.95220   0.60580   0.01267  Uiso   1.00
C148   C     0.17350   0.92230   0.59150   0.01267  Uiso   1.00
C149   C     0.08280   0.03740   0.69100   0.01267  Uiso   1.00
C150   C     0.02930   0.00720   0.67760   0.01267  Uiso   1.00
C151   C     0.07150   0.94880   0.62820   0.01267  Uiso   1.00
C152   C     0.00950   0.91710   0.61730   0.01267  Uiso   1.00
C153   C     0.02543   0.89484   0.54710   0.01267  Uiso   1.00
C154   C     0.96100   0.86910   0.53970   0.01267  Uiso   1.00
C155   C     0.93030   0.90800   0.67620   0.01267  Uiso   1.00
C156   C     0.87160   0.88000   0.66340   0.01267  Uiso   1.00
C157   C     0.52530   0.11580   0.62520   0.01267  Uiso   1.00
C158   C     0.62357   0.12197   0.60109   0.01267  Uiso   1.00
C159   C     0.62910   0.19120   0.58220   0.01267  Uiso   1.00
C160   C     0.71700   0.20010   0.55990   0.01267  Uiso   1.00
C161   C     0.70580   0.06170   0.60010   0.01267  Uiso   1.00
C162   C     0.79620   0.07000   0.57720   0.01267  Uiso   1.00
C163   C     0.80350   0.13930   0.55730   0.01267  Uiso   1.00
C164   C     0.89984   0.14706   0.53206   0.01267  Uiso   1.00
C165   C     0.90800   0.20860   0.54760   0.01267  Uiso   1.00
C166   C     0.99950   0.21540   0.51960   0.01267  Uiso   1.00
C167   C     0.98550   0.09280   0.48880   0.01267  Uiso   1.00
C168   C     0.07500   0.10210   0.46350   0.01267  Uiso   1.00
C169   C     0.21470   0.25190   0.67750   0.01267  Uiso   1.00
C170   C     0.15580   0.32920   0.66340   0.01267  Uiso   1.00
C171   C     0.11910   0.38380   0.71540   0.01267  Uiso   1.00
C172   C     0.06630   0.45750   0.70230   0.01267  Uiso   1.00
C173   C     0.13750   0.34820   0.59840   0.01267  Uiso   1.00
C174   C     0.08510   0.42070   0.58630   0.01267  Uiso   1.00
C175   C     0.04810   0.47580   0.63740   0.01267  Uiso   1.00
C176   C     0.99110   0.55380   0.62340   0.01267  Uiso   1.00
C177   C     0.01160   0.61030   0.63490   0.01267  Uiso   1.00
C178   C     0.95620   0.68330   0.62050   0.01267  Uiso   1.00
C179   C     0.91410   0.57180   0.59920   0.01267  Uiso   1.00
C180   C     0.86230   0.64440   0.58820   0.01267  Uiso   1.00
C181   C     0.33970   0.10590   0.84170   0.01267  Uiso   1.00
C182   C     0.31420   0.11690   0.92270   0.01267  Uiso   1.00
C183   C     0.24410   0.09790   0.97690   0.01267  Uiso   1.00
C184   C     0.22370   0.10620   0.05160   0.01267  Uiso   1.00
C185   C     0.36000   0.15210   0.94190   0.01267  Uiso   1.00
C186   C     0.33580   0.16440   0.01600   0.01267  Uiso   1.00
C187   C     0.26830   0.14070   0.07110   0.01267  Uiso   1.00
C188   C     0.24400   0.15290   0.15030   0.01267  Uiso   1.00
C189   C     0.23230   0.09830   0.20350   0.01267  Uiso   1.00
C190   C     0.21600   0.11040   0.27520   0.01267  Uiso   1.00
C191   C     0.23500   0.21840   0.17500   0.01267  Uiso   1.00
C192   C     0.21910   0.22600   0.24800   0.01267  Uiso   1.00
N9     N     0.34212   0.13686   0.40270   0.01267  Uiso   1.00
N10    N     0.72286   0.83610   0.52378   0.01267  Uiso   1.00
N11    N     0.18065   0.29866   0.40284   0.01267  Uiso   1.00
N12    N     0.68138   0.82702   0.70142   0.01267  Uiso   1.00
N13    N     0.88168   0.86314   0.59730   0.01267  Uiso   1.00
N14    N     0.08274   0.16390   0.47622   0.01267  Uiso   1.00
N15    N     0.88215   0.70134   0.59716   0.01267  Uiso   1.00
N16    N     0.20982   0.17298   0.29858   0.01267  Uiso   1.00
O17    O     0.01356   0.91125   0.27523   0.01267  Uiso   1.00
O18    O     0.99659   0.97381   0.36481   0.01267  Uiso   1.00
O19    O     0.21632   0.94650   0.35406   0.01267  Uiso   1.00
O20    O     0.25040   0.82823   0.37357   0.01267  Uiso   1.00
O21    O     0.08828   0.79650   0.37374   0.01267  Uiso   1.00
O22    O     0.19996   0.76443   0.26065   0.01267  Uiso   1.00
O23    O     0.32080   0.86240   0.20640   0.01267  Uiso   1.00
O24    O     0.19600   0.93299   0.17601   0.01267  Uiso   1.00
O25    O     0.20004   0.08875   0.72477   0.01267  Uiso   1.00
O26    O     0.33521   0.02619   0.63519   0.01267  Uiso   1.00
O27    O     0.51688   0.05350   0.64594   0.01267  Uiso   1.00
O28    O     0.45220   0.17177   0.62643   0.01267  Uiso   1.00
O29    O     0.25852   0.20350   0.62626   0.01267  Uiso   1.00
O30    O     0.22504   0.23557   0.73935   0.01267  Uiso   1.00
O31    O     0.38960   0.13760   0.79360   0.01267  Uiso   1.00
O32    O     0.30500   0.06701   0.82399   0.01267  Uiso   1.00
