data_image0
_cell_length_a       9.3619
_cell_length_b       10.1158
_cell_length_c       12.6456
_cell_angle_alpha    98.485
_cell_angle_beta     107.018
_cell_angle_gamma    105.424

_symmetry_space_group_name_H-M    "P 1"
_symmetry_int_tables_number       1

loop_
  _symmetry_equiv_pos_as_xyz
  'x, y, z'

loop_
  _atom_site_label
  _atom_site_occupancy
  _atom_site_fract_x
  _atom_site_fract_y
  _atom_site_fract_z
  _atom_site_thermal_displace_type
  _atom_site_B_iso_or_equiv
  _atom_site_type_symbol
  Ga1      1.0000 0.77725  0.09779  0.51184  Biso   1.000  Ga
  Ga2      1.0000 0.78445  0.60168  0.51664  Biso   1.000  Ga
  Ga3      1.0000 0.49811  0.20143  0.22769  Biso   1.000  Ga
  Ga4      1.0000 0.51244  0.69117  0.21973  Biso   1.000  Ga
  P1       1.0000 0.41700  0.95460  0.32450  Biso   1.000  P
  P2       1.0000 0.42290  0.46470  0.33500  Biso   1.000  P
  P3       1.0000 0.84080  0.33940  0.39230  Biso   1.000  P
  P4       1.0000 0.15500  0.16130  0.60440  Biso   1.000  P
  P5       1.0000 0.49570  0.18960  0.98290  Biso   1.000  P
  O1       1.0000 0.56080  0.05590  0.41980  Biso   1.000  O
  O2       1.0000 0.26830  0.92610  0.35720  Biso   1.000  O
  O3       1.0000 0.83040  0.28490  0.49800  Biso   1.000  O
  O4       1.0000 0.99550  0.14160  0.61910  Biso   1.000  O
  O5       1.0000 0.19090  0.02220  0.59840  Biso   1.000  O
  O6       1.0000 0.56780  0.57030  0.42740  Biso   1.000  O
  O7       1.0000 0.27280  0.45660  0.36410  Biso   1.000  O
  O8       1.0000 0.82170  0.48640  0.40570  Biso   1.000  O
  O9       1.0000 0.99660  0.34780  0.37330  Biso   1.000  O
  O10      1.0000 0.16230  0.21200  0.49750  Biso   1.000  O
  O11      1.0000 0.38440  0.02170  0.22120  Biso   1.000  O
  O12      1.0000 0.43300  0.31530  0.31370  Biso   1.000  O
  O13      1.0000 0.71070  0.23840  0.28360  Biso   1.000  O
  O14      1.0000 0.44580  0.23150  0.08380  Biso   1.000  O
  O15      1.0000 0.43050  0.80870  0.28610  Biso   1.000  O
  O16      1.0000 0.40030  0.51560  0.22340  Biso   1.000  O
  O17      1.0000 0.27580  0.26990  0.71340  Biso   1.000  O
  O18      1.0000 0.53020  0.31840  0.93210  Biso   1.000  O
  O19      1.0000 0.65900  0.16620  0.02840  Biso   1.000  O
  O20      1.0000 0.37200  0.06060  0.89710  Biso   1.000  O
  H1       1.0000 0.63600  0.07600  0.05500  Biso   1.000  H
  Ga5      1.0000 0.22275  0.90221  0.48816  Biso   1.000  Ga
  Ga6      1.0000 0.21555  0.39832  0.48336  Biso   1.000  Ga
  Ga7      1.0000 0.50189  0.79857  0.77231  Biso   1.000  Ga
  Ga8      1.0000 0.48756  0.30883  0.78027  Biso   1.000  Ga
  P6       1.0000 0.58300  0.04540  0.67550  Biso   1.000  P
  P7       1.0000 0.57710  0.53530  0.66500  Biso   1.000  P
  P8       1.0000 0.15920  0.66060  0.60770  Biso   1.000  P
  P9       1.0000 0.84500  0.83870  0.39560  Biso   1.000  P
  P10      1.0000 0.50430  0.81040  0.01710  Biso   1.000  P
  O21      1.0000 0.43920  0.94410  0.58020  Biso   1.000  O
  O22      1.0000 0.73170  0.07390  0.64280  Biso   1.000  O
  O23      1.0000 0.16960  0.71510  0.50200  Biso   1.000  O
  O24      1.0000 0.00450  0.85840  0.38090  Biso   1.000  O
  O25      1.0000 0.80910  0.97780  0.40160  Biso   1.000  O
  O26      1.0000 0.43220  0.42970  0.57260  Biso   1.000  O
  O27      1.0000 0.72720  0.54340  0.63590  Biso   1.000  O
  O28      1.0000 0.17830  0.51360  0.59430  Biso   1.000  O
  O29      1.0000 0.00340  0.65220  0.62670  Biso   1.000  O
  O30      1.0000 0.83770  0.78800  0.50250  Biso   1.000  O
  O31      1.0000 0.61560  0.97830  0.77880  Biso   1.000  O
  O32      1.0000 0.56700  0.68470  0.68630  Biso   1.000  O
  O33      1.0000 0.28930  0.76160  0.71640  Biso   1.000  O
  O34      1.0000 0.55420  0.76850  0.91620  Biso   1.000  O
  O35      1.0000 0.56950  0.19130  0.71390  Biso   1.000  O
  O36      1.0000 0.59970  0.48440  0.77660  Biso   1.000  O
  O37      1.0000 0.72420  0.73010  0.28660  Biso   1.000  O
  O38      1.0000 0.46980  0.68160  0.06790  Biso   1.000  O
  O39      1.0000 0.34100  0.83380  0.97160  Biso   1.000  O
  O40      1.0000 0.62800  0.93940  0.10290  Biso   1.000  O
  H2       1.0000 0.36400  0.92400  0.94500  Biso   1.000  H
