data_image0
_cell_length_a       40.592
_cell_length_b       16.616
_cell_length_c       12.998
_cell_angle_alpha    90
_cell_angle_beta     98.145
_cell_angle_gamma    90

_symmetry_space_group_name_H-M    "P 1"
_symmetry_int_tables_number       1

loop_
  _symmetry_equiv_pos_as_xyz
  'x, y, z'

loop_
  _atom_site_label
  _atom_site_occupancy
  _atom_site_fract_x
  _atom_site_fract_y
  _atom_site_fract_z
  _atom_site_thermal_displace_type
  _atom_site_B_iso_or_equiv
  _atom_site_type_symbol
  Sr1      1.0000 0.76387  0.40463  0.13339  Biso   1.000  Sr
  Sr2      1.0000 0.74079  0.39141  0.82957  Biso   1.000  Sr
  O1       1.0000 0.68086  0.35410  0.85720  Biso   1.000  O
  O2       1.0000 0.27066  0.14220  0.40090  Biso   1.000  O
  O3       1.0000 0.27182  0.01810  0.33550  Biso   1.000  O
  O4       1.0000 0.82047  0.34890  0.11300  Biso   1.000  O
  O5       1.0000 0.78440  0.33620  0.96930  Biso   1.000  O
  O6       1.0000 0.21602  0.00770  0.48890  Biso   1.000  O
  O7       1.0000 0.21627  0.14150  0.45920  Biso   1.000  O
  C1       1.0000 0.65989  0.31500  0.01060  Biso   1.000  C
  C2       1.0000 0.66736  0.29220  0.11480  Biso   1.000  C
  H1       1.0000 0.68890  0.29770  0.14930  Biso   1.000  H
  C3       1.0000 0.64257  0.26150  0.16660  Biso   1.000  C
  H2       1.0000 0.64770  0.24660  0.23600  Biso   1.000  H
  C4       1.0000 0.61020  0.25260  0.11640  Biso   1.000  C
  C5       1.0000 0.60331  0.27380  0.01110  Biso   1.000  C
  H3       1.0000 0.58190  0.26730  0.97590  Biso   1.000  H
  C6       1.0000 0.62791  0.30400  0.95930  Biso   1.000  C
  H4       1.0000 0.62300  0.31720  0.88930  Biso   1.000  H
  C7       1.0000 0.58231  0.22350  0.17110  Biso   1.000  C
  C8       1.0000 0.56964  0.14510  0.15310  Biso   1.000  C
  C9       1.0000 0.53964  0.12130  0.19220  Biso   1.000  C
  C10      1.0000 0.52284  0.17680  0.24860  Biso   1.000  C
  C11      1.0000 0.53693  0.25300  0.27320  Biso   1.000  C
  C12      1.0000 0.56687  0.27650  0.23520  Biso   1.000  C
  C13      1.0000 0.58019  0.35420  0.26280  Biso   1.000  C
  H5       1.0000 0.59970  0.36990  0.23890  Biso   1.000  H
  C14      1.0000 0.56556  0.40520  0.32210  Biso   1.000  C
  H6       1.0000 0.57470  0.45580  0.33770  Biso   1.000  H
  C15      1.0000 0.53602  0.38200  0.36080  Biso   1.000  C
  H7       1.0000 0.52610  0.41670  0.40330  Biso   1.000  H
  C16      1.0000 0.52226  0.30840  0.33560  Biso   1.000  C
  H8       1.0000 0.50260  0.29440  0.36020  Biso   1.000  H
  C17      1.0000 0.52750  0.04180  0.17010  Biso   1.000  C
  H9       1.0000 0.50780  0.02580  0.19300  Biso   1.000  H
  C18      1.0000 0.54410  0.98860  0.11580  Biso   1.000  C
  H10      1.0000 0.53560  0.93710  0.10210  Biso   1.000  H
  C19      1.0000 0.57388  0.01110  0.08070  Biso   1.000  C
  H11      1.0000 0.58540  0.97400  0.04590  Biso   1.000  H
  C20      1.0000 0.58617  0.08770  0.09740  Biso   1.000  C
  H12      1.0000 0.60560  0.10230  0.07190  Biso   1.000  H
  C21      1.0000 0.48937  0.15620  0.27570  Biso   1.000  C
  C22      1.0000 0.46138  0.16340  0.19830  Biso   1.000  C
  C23      1.0000 0.42886  0.14380  0.22130  Biso   1.000  C
  C24      1.0000 0.42465  0.12060  0.32350  Biso   1.000  C
  C25      1.0000 0.45245  0.11330  0.39960  Biso   1.000  C
  C26      1.0000 0.48526  0.13020  0.37620  Biso   1.000  C
  C27      1.0000 0.51295  0.12190  0.45560  Biso   1.000  C
  H13      1.0000 0.53430  0.13070  0.44010  Biso   1.000  H
  C28      1.0000 0.50853  0.10120  0.55500  Biso   1.000  C
  H14      1.0000 0.52680  0.09780  0.60680  Biso   1.000  H
  C29      1.0000 0.47613  0.08490  0.57880  Biso   1.000  C
  H15      1.0000 0.47330  0.07050  0.64610  Biso   1.000  H
  C30      1.0000 0.44902  0.09010  0.50380  Biso   1.000  C
  H16      1.0000 0.42800  0.07840  0.52050  Biso   1.000  H
  C31      1.0000 0.40093  0.14870  0.14010  Biso   1.000  C
  H17      1.0000 0.37990  0.13470  0.15430  Biso   1.000  H
  C32      1.0000 0.40484  0.17360  0.04250  Biso   1.000  C
  H18      1.0000 0.38670  0.17580  0.99030  Biso   1.000  H
  C33      1.0000 0.43721  0.19640  0.02150  Biso   1.000  C
  H19      1.0000 0.43980  0.21560  0.95590  Biso   1.000  H
  C34      1.0000 0.46424  0.19040  0.09590  Biso   1.000  C
  H20      1.0000 0.48510  0.20420  0.07960  Biso   1.000  H
  C35      1.0000 0.39006  0.10810  0.34550  Biso   1.000  C
  C36      1.0000 0.37050  0.17520  0.35800  Biso   1.000  C
  H21      1.0000 0.38000  0.22620  0.35900  Biso   1.000  H
  C37      1.0000 0.33712  0.16770  0.36910  Biso   1.000  C
  H22      1.0000 0.32460  0.21320  0.37930  Biso   1.000  H
  C38      1.0000 0.32223  0.09110  0.36490  Biso   1.000  C
  C39      1.0000 0.34173  0.02400  0.35540  Biso   1.000  C
  H23      1.0000 0.33230  0.97300  0.35420  Biso   1.000  H
  C40      1.0000 0.37535  0.03250  0.34770  Biso   1.000  C
  H24      1.0000 0.38830  0.98670  0.34400  Biso   1.000  H
  C41      1.0000 0.28554  0.08230  0.36650  Biso   1.000  C
  C42      1.0000 0.84137  0.30200  0.96360  Biso   1.000  C
  C43      1.0000 0.87378  0.30230  0.01400  Biso   1.000  C
  H25      1.0000 0.87840  0.32050  0.08220  Biso   1.000  H
  C44      1.0000 0.89933  0.27540  0.96280  Biso   1.000  C
  H26      1.0000 0.92110  0.27680  0.99660  Biso   1.000  H
  C45      1.0000 0.89307  0.24640  0.86210  Biso   1.000  C
  C46      1.0000 0.86051  0.24550  0.81230  Biso   1.000  C
  H27      1.0000 0.85590  0.22630  0.74460  Biso   1.000  H
  C47      1.0000 0.83460  0.27290  0.86260  Biso   1.000  C
  H28      1.0000 0.81280  0.27180  0.82870  Biso   1.000  H
  C48      1.0000 0.92157  0.21810  0.81200  Biso   1.000  C
  C49      1.0000 0.93429  0.13940  0.83340  Biso   1.000  C
  C50      1.0000 0.96477  0.11570  0.79900  Biso   1.000  C
  C51      1.0000 0.98141  0.16860  0.74010  Biso   1.000  C
  C52      1.0000 0.96735  0.24350  0.71140  Biso   1.000  C
  C53      1.0000 0.93710  0.26950  0.74880  Biso   1.000  C
  C54      1.0000 0.92401  0.34730  0.71980  Biso   1.000  C
  H29      1.0000 0.90500  0.36470  0.74540  Biso   1.000  H
  C55      1.0000 0.93825  0.39590  0.65680  Biso   1.000  C
  H30      1.0000 0.92920  0.44630  0.63910  Biso   1.000  H
  C56      1.0000 0.96709  0.37010  0.61770  Biso   1.000  C
  H31      1.0000 0.97630  0.40320  0.57170  Biso   1.000  H
  C57      1.0000 0.98183  0.29850  0.64500  Biso   1.000  C
  H32      1.0000 0.00150  0.28470  0.62050  Biso   1.000  H
  C58      1.0000 0.91680  0.08340  0.89040  Biso   1.000  C
  H33      1.0000 0.89700  0.09850  0.91310  Biso   1.000  H
  C59      1.0000 0.92937  0.00810  0.91110  Biso   1.000  C
  H34      1.0000 0.91750  0.97180  0.94620  Biso   1.000  H
  C60      1.0000 0.95961  0.98410  0.88090  Biso   1.000  C
  H35      1.0000 0.96790  0.93270  0.89730  Biso   1.000  H
  C61      1.0000 0.97720  0.03640  0.82680  Biso   1.000  C
  H36      1.0000 0.99740  0.02020  0.80790  Biso   1.000  H
  C62      1.0000 0.01445  0.14680  0.71110  Biso   1.000  C
  C63      1.0000 0.04363  0.15460  0.78330  Biso   1.000  C
  C64      1.0000 0.07556  0.13730  0.75500  Biso   1.000  C
  C65      1.0000 0.07803  0.11590  0.64990  Biso   1.000  C
  C66      1.0000 0.04886  0.11010  0.57610  Biso   1.000  C
  C67      1.0000 0.01681  0.12270  0.60680  Biso   1.000  C
  C68      1.0000 0.98794  0.11330  0.53190  Biso   1.000  C
  H37      1.0000 0.96690  0.11770  0.55190  Biso   1.000  H
  C69      1.0000 0.99104  0.09810  0.43170  Biso   1.000  C
  H38      1.0000 0.97200  0.09350  0.38320  Biso   1.000  H
  C70      1.0000 0.02248  0.08880  0.39870  Biso   1.000  C
  H39      1.0000 0.02410  0.08000  0.32900  Biso   1.000  H
  C71      1.0000 0.05032  0.09290  0.47010  Biso   1.000  C
  H40      1.0000 0.07090  0.08420  0.44870  Biso   1.000  H
  C72      1.0000 0.04252  0.18110  0.88570  Biso   1.000  C
  H41      1.0000 0.02200  0.19400  0.90550  Biso   1.000  H
  C73      1.0000 0.07041  0.18850  0.95660  Biso   1.000  C
  H42      1.0000 0.06890  0.20670  0.02350  Biso   1.000  H
  C74      1.0000 0.10191  0.16830  0.92740  Biso   1.000  C
  H43      1.0000 0.12090  0.17160  0.97630  Biso   1.000  H
  C75      1.0000 0.10443  0.14440  0.83010  Biso   1.000  C
  H44      1.0000 0.12520  0.13250  0.81180  Biso   1.000  H
  C76      1.0000 0.11102  0.10490  0.61530  Biso   1.000  C
  C77      1.0000 0.12324  0.02820  0.59460  Biso   1.000  C
  H45      1.0000 0.11090  0.98270  0.60570  Biso   1.000  H
  C78      1.0000 0.15371  0.01940  0.55750  Biso   1.000  C
  H46      1.0000 0.16180  0.96830  0.54610  Biso   1.000  H
  C79      1.0000 0.17207  0.08700  0.53740  Biso   1.000  C
  C80      1.0000 0.16051  0.16200  0.55940  Biso   1.000  C
  H47      1.0000 0.17270  0.20760  0.54730  Biso   1.000  H
  C81      1.0000 0.13088  0.17010  0.59930  Biso   1.000  C
  H48      1.0000 0.12400  0.22120  0.61600  Biso   1.000  H
  C82      1.0000 0.20386  0.07680  0.49210  Biso   1.000  C
  O8       1.0000 0.71425  0.36850  0.00580  Biso   1.000  O
  C83      1.0000 0.68682  0.34870  0.95400  Biso   1.000  C
  C84      1.0000 0.81379  0.33040  0.01900  Biso   1.000  C
  Cl1      1.0000 0.74879  0.27038  0.25570  Biso   1.000  Cl
  Sr3      1.0000 0.23613  0.90463  0.36661  Biso   1.000  Sr
  Sr4      1.0000 0.25921  0.89141  0.67043  Biso   1.000  Sr
  O9       1.0000 0.31914  0.85410  0.64280  Biso   1.000  O
  O10      1.0000 0.72934  0.64220  0.09910  Biso   1.000  O
  O11      1.0000 0.72818  0.51810  0.16450  Biso   1.000  O
  O12      1.0000 0.17953  0.84890  0.38700  Biso   1.000  O
  O13      1.0000 0.21560  0.83620  0.53070  Biso   1.000  O
  O14      1.0000 0.78398  0.50770  0.01110  Biso   1.000  O
  O15      1.0000 0.78373  0.64150  0.04080  Biso   1.000  O
  C85      1.0000 0.34011  0.81500  0.48940  Biso   1.000  C
  C86      1.0000 0.33264  0.79220  0.38520  Biso   1.000  C
  H49      1.0000 0.31110  0.79770  0.35070  Biso   1.000  H
  C87      1.0000 0.35743  0.76150  0.33340  Biso   1.000  C
  H50      1.0000 0.35230  0.74660  0.26400  Biso   1.000  H
  C88      1.0000 0.38980  0.75260  0.38360  Biso   1.000  C
  C89      1.0000 0.39669  0.77380  0.48890  Biso   1.000  C
  H51      1.0000 0.41810  0.76730  0.52410  Biso   1.000  H
  C90      1.0000 0.37209  0.80400  0.54070  Biso   1.000  C
  H52      1.0000 0.37700  0.81720  0.61070  Biso   1.000  H
  C91      1.0000 0.41769  0.72350  0.32890  Biso   1.000  C
  C92      1.0000 0.43036  0.64510  0.34690  Biso   1.000  C
  C93      1.0000 0.46036  0.62130  0.30780  Biso   1.000  C
  C94      1.0000 0.47716  0.67680  0.25140  Biso   1.000  C
  C95      1.0000 0.46307  0.75300  0.22680  Biso   1.000  C
  C96      1.0000 0.43313  0.77650  0.26480  Biso   1.000  C
  C97      1.0000 0.41981  0.85420  0.23720  Biso   1.000  C
  H53      1.0000 0.40030  0.86990  0.26110  Biso   1.000  H
  C98      1.0000 0.43444  0.90520  0.17790  Biso   1.000  C
  H54      1.0000 0.42530  0.95580  0.16230  Biso   1.000  H
  C99      1.0000 0.46398  0.88200  0.13920  Biso   1.000  C
  H55      1.0000 0.47390  0.91670  0.09670  Biso   1.000  H
  C100     1.0000 0.47774  0.80840  0.16440  Biso   1.000  C
  H56      1.0000 0.49740  0.79440  0.13980  Biso   1.000  H
  C101     1.0000 0.47250  0.54180  0.32990  Biso   1.000  C
  H57      1.0000 0.49220  0.52580  0.30700  Biso   1.000  H
  C102     1.0000 0.45590  0.48860  0.38420  Biso   1.000  C
  H58      1.0000 0.46440  0.43710  0.39790  Biso   1.000  H
  C103     1.0000 0.42612  0.51110  0.41930  Biso   1.000  C
  H59      1.0000 0.41460  0.47400  0.45410  Biso   1.000  H
  C104     1.0000 0.41383  0.58770  0.40260  Biso   1.000  C
  H60      1.0000 0.39440  0.60230  0.42810  Biso   1.000  H
  C105     1.0000 0.51063  0.65620  0.22430  Biso   1.000  C
  C106     1.0000 0.53862  0.66340  0.30170  Biso   1.000  C
  C107     1.0000 0.57114  0.64380  0.27870  Biso   1.000  C
  C108     1.0000 0.57535  0.62060  0.17650  Biso   1.000  C
  C109     1.0000 0.54755  0.61330  0.10040  Biso   1.000  C
  C110     1.0000 0.51474  0.63020  0.12380  Biso   1.000  C
  C111     1.0000 0.48705  0.62190  0.04440  Biso   1.000  C
  H61      1.0000 0.46570  0.63070  0.05990  Biso   1.000  H
  C112     1.0000 0.49147  0.60120  0.94500  Biso   1.000  C
  H62      1.0000 0.47320  0.59780  0.89320  Biso   1.000  H
  C113     1.0000 0.52387  0.58490  0.92120  Biso   1.000  C
  H63      1.0000 0.52670  0.57050  0.85390  Biso   1.000  H
  C114     1.0000 0.55098  0.59010  0.99620  Biso   1.000  C
  H64      1.0000 0.57200  0.57840  0.97950  Biso   1.000  H
  C115     1.0000 0.59907  0.64870  0.35990  Biso   1.000  C
  H65      1.0000 0.62010  0.63470  0.34570  Biso   1.000  H
  C116     1.0000 0.59516  0.67360  0.45750  Biso   1.000  C
  H66      1.0000 0.61330  0.67580  0.50970  Biso   1.000  H
  C117     1.0000 0.56279  0.69640  0.47850  Biso   1.000  C
  H67      1.0000 0.56020  0.71560  0.54410  Biso   1.000  H
  C118     1.0000 0.53576  0.69040  0.40410  Biso   1.000  C
  H68      1.0000 0.51490  0.70420  0.42040  Biso   1.000  H
  C119     1.0000 0.60994  0.60810  0.15450  Biso   1.000  C
  C120     1.0000 0.62950  0.67520  0.14200  Biso   1.000  C
  H69      1.0000 0.62000  0.72620  0.14100  Biso   1.000  H
  C121     1.0000 0.66288  0.66770  0.13090  Biso   1.000  C
  H70      1.0000 0.67540  0.71320  0.12070  Biso   1.000  H
  C122     1.0000 0.67777  0.59110  0.13510  Biso   1.000  C
  C123     1.0000 0.65827  0.52400  0.14460  Biso   1.000  C
  H71      1.0000 0.66770  0.47300  0.14580  Biso   1.000  H
  C124     1.0000 0.62465  0.53250  0.15230  Biso   1.000  C
  H72      1.0000 0.61170  0.48670  0.15600  Biso   1.000  H
  C125     1.0000 0.71446  0.58230  0.13350  Biso   1.000  C
  C126     1.0000 0.15863  0.80200  0.53640  Biso   1.000  C
  C127     1.0000 0.12622  0.80230  0.48600  Biso   1.000  C
  H73      1.0000 0.12160  0.82050  0.41780  Biso   1.000  H
  C128     1.0000 0.10067  0.77540  0.53720  Biso   1.000  C
  H74      1.0000 0.07890  0.77680  0.50340  Biso   1.000  H
  C129     1.0000 0.10693  0.74640  0.63790  Biso   1.000  C
  C130     1.0000 0.13949  0.74550  0.68770  Biso   1.000  C
  H75      1.0000 0.14410  0.72630  0.75540  Biso   1.000  H
  C131     1.0000 0.16540  0.77290  0.63740  Biso   1.000  C
  H76      1.0000 0.18720  0.77180  0.67130  Biso   1.000  H
  C132     1.0000 0.07843  0.71810  0.68800  Biso   1.000  C
  C133     1.0000 0.06571  0.63940  0.66660  Biso   1.000  C
  C134     1.0000 0.03523  0.61570  0.70100  Biso   1.000  C
  C135     1.0000 0.01859  0.66860  0.75990  Biso   1.000  C
  C136     1.0000 0.03265  0.74350  0.78860  Biso   1.000  C
  C137     1.0000 0.06290  0.76950  0.75120  Biso   1.000  C
  C138     1.0000 0.07599  0.84730  0.78020  Biso   1.000  C
  H77      1.0000 0.09500  0.86470  0.75460  Biso   1.000  H
  C139     1.0000 0.06175  0.89590  0.84320  Biso   1.000  C
  H78      1.0000 0.07080  0.94630  0.86090  Biso   1.000  H
  C140     1.0000 0.03291  0.87010  0.88230  Biso   1.000  C
  H79      1.0000 0.02370  0.90320  0.92830  Biso   1.000  H
  C141     1.0000 0.01817  0.79850  0.85500  Biso   1.000  C
  H80      1.0000 0.99850  0.78470  0.87950  Biso   1.000  H
  C142     1.0000 0.08320  0.58340  0.60960  Biso   1.000  C
  H81      1.0000 0.10300  0.59850  0.58690  Biso   1.000  H
  C143     1.0000 0.07063  0.50810  0.58890  Biso   1.000  C
  H82      1.0000 0.08250  0.47180  0.55380  Biso   1.000  H
  C144     1.0000 0.04039  0.48410  0.61910  Biso   1.000  C
  H83      1.0000 0.03210  0.43270  0.60270  Biso   1.000  H
  C145     1.0000 0.02280  0.53640  0.67320  Biso   1.000  C
  H84      1.0000 0.00260  0.52020  0.69210  Biso   1.000  H
  C146     1.0000 0.98555  0.64680  0.78890  Biso   1.000  C
  C147     1.0000 0.95637  0.65460  0.71670  Biso   1.000  C
  C148     1.0000 0.92444  0.63730  0.74500  Biso   1.000  C
  C149     1.0000 0.92197  0.61590  0.85010  Biso   1.000  C
  C150     1.0000 0.95114  0.61010  0.92390  Biso   1.000  C
  C151     1.0000 0.98319  0.62270  0.89320  Biso   1.000  C
  C152     1.0000 0.01206  0.61330  0.96810  Biso   1.000  C
  H85      1.0000 0.03310  0.61770  0.94810  Biso   1.000  H
  C153     1.0000 0.00896  0.59810  0.06830  Biso   1.000  C
  H86      1.0000 0.02800  0.59350  0.11680  Biso   1.000  H
  C154     1.0000 0.97752  0.58880  0.10130  Biso   1.000  C
  H87      1.0000 0.97590  0.58000  0.17100  Biso   1.000  H
  C155     1.0000 0.94968  0.59290  0.02990  Biso   1.000  C
  H88      1.0000 0.92910  0.58420  0.05130  Biso   1.000  H
  C156     1.0000 0.95748  0.68110  0.61430  Biso   1.000  C
  H89      1.0000 0.97800  0.69400  0.59450  Biso   1.000  H
  C157     1.0000 0.92959  0.68850  0.54340  Biso   1.000  C
  H90      1.0000 0.93110  0.70670  0.47650  Biso   1.000  H
  C158     1.0000 0.89809  0.66830  0.57260  Biso   1.000  C
  H91      1.0000 0.87910  0.67160  0.52370  Biso   1.000  H
  C159     1.0000 0.89557  0.64440  0.66990  Biso   1.000  C
  H92      1.0000 0.87480  0.63250  0.68820  Biso   1.000  H
  C160     1.0000 0.88898  0.60490  0.88470  Biso   1.000  C
  C161     1.0000 0.87676  0.52820  0.90540  Biso   1.000  C
  H93      1.0000 0.88910  0.48270  0.89430  Biso   1.000  H
  C162     1.0000 0.84629  0.51940  0.94250  Biso   1.000  C
  H94      1.0000 0.83820  0.46830  0.95390  Biso   1.000  H
  C163     1.0000 0.82793  0.58700  0.96260  Biso   1.000  C
  C164     1.0000 0.83949  0.66200  0.94060  Biso   1.000  C
  H95      1.0000 0.82730  0.70760  0.95270  Biso   1.000  H
  C165     1.0000 0.86912  0.67010  0.90070  Biso   1.000  C
  H96      1.0000 0.87600  0.72120  0.88400  Biso   1.000  H
  C166     1.0000 0.79614  0.57680  0.00790  Biso   1.000  C
  O16      1.0000 0.28575  0.86850  0.49420  Biso   1.000  O
  C167     1.0000 0.31318  0.84870  0.54600  Biso   1.000  C
  C168     1.0000 0.18621  0.83040  0.48100  Biso   1.000  C
  Cl2      1.0000 0.25121  0.77038  0.24430  Biso   1.000  Cl
  Sr5      1.0000 0.23613  0.59537  0.86661  Biso   1.000  Sr
  Sr6      1.0000 0.25921  0.60859  0.17043  Biso   1.000  Sr
  O17      1.0000 0.31914  0.64590  0.14280  Biso   1.000  O
  O18      1.0000 0.72934  0.85780  0.59910  Biso   1.000  O
  O19      1.0000 0.72818  0.98190  0.66450  Biso   1.000  O
  O20      1.0000 0.17953  0.65110  0.88700  Biso   1.000  O
  O21      1.0000 0.21560  0.66380  0.03070  Biso   1.000  O
  O22      1.0000 0.78398  0.99230  0.51110  Biso   1.000  O
  O23      1.0000 0.78373  0.85850  0.54080  Biso   1.000  O
  C169     1.0000 0.34011  0.68500  0.98940  Biso   1.000  C
  C170     1.0000 0.33264  0.70780  0.88520  Biso   1.000  C
  H97      1.0000 0.31110  0.70230  0.85070  Biso   1.000  H
  C171     1.0000 0.35743  0.73850  0.83340  Biso   1.000  C
  H98      1.0000 0.35230  0.75340  0.76400  Biso   1.000  H
  C172     1.0000 0.38980  0.74740  0.88360  Biso   1.000  C
  C173     1.0000 0.39669  0.72620  0.98890  Biso   1.000  C
  H99      1.0000 0.41810  0.73270  0.02410  Biso   1.000  H
  C174     1.0000 0.37209  0.69600  0.04070  Biso   1.000  C
  H100     1.0000 0.37700  0.68280  0.11070  Biso   1.000  H
  C175     1.0000 0.41769  0.77650  0.82890  Biso   1.000  C
  C176     1.0000 0.43036  0.85490  0.84690  Biso   1.000  C
  C177     1.0000 0.46036  0.87870  0.80780  Biso   1.000  C
  C178     1.0000 0.47716  0.82320  0.75140  Biso   1.000  C
  C179     1.0000 0.46307  0.74700  0.72680  Biso   1.000  C
  C180     1.0000 0.43313  0.72350  0.76480  Biso   1.000  C
  C181     1.0000 0.41981  0.64580  0.73720  Biso   1.000  C
  H101     1.0000 0.40030  0.63010  0.76110  Biso   1.000  H
  C182     1.0000 0.43444  0.59480  0.67790  Biso   1.000  C
  H102     1.0000 0.42530  0.54420  0.66230  Biso   1.000  H
  C183     1.0000 0.46398  0.61800  0.63920  Biso   1.000  C
  H103     1.0000 0.47390  0.58330  0.59670  Biso   1.000  H
  C184     1.0000 0.47774  0.69160  0.66440  Biso   1.000  C
  H104     1.0000 0.49740  0.70560  0.63980  Biso   1.000  H
  C185     1.0000 0.47250  0.95820  0.82990  Biso   1.000  C
  H105     1.0000 0.49220  0.97420  0.80700  Biso   1.000  H
  C186     1.0000 0.45590  0.01140  0.88420  Biso   1.000  C
  H106     1.0000 0.46440  0.06290  0.89790  Biso   1.000  H
  C187     1.0000 0.42612  0.98890  0.91930  Biso   1.000  C
  H107     1.0000 0.41460  0.02600  0.95410  Biso   1.000  H
  C188     1.0000 0.41383  0.91230  0.90260  Biso   1.000  C
  H108     1.0000 0.39440  0.89770  0.92810  Biso   1.000  H
  C189     1.0000 0.51063  0.84380  0.72430  Biso   1.000  C
  C190     1.0000 0.53862  0.83660  0.80170  Biso   1.000  C
  C191     1.0000 0.57114  0.85620  0.77870  Biso   1.000  C
  C192     1.0000 0.57535  0.87940  0.67650  Biso   1.000  C
  C193     1.0000 0.54755  0.88670  0.60040  Biso   1.000  C
  C194     1.0000 0.51474  0.86980  0.62380  Biso   1.000  C
  C195     1.0000 0.48705  0.87810  0.54440  Biso   1.000  C
  H109     1.0000 0.46570  0.86930  0.55990  Biso   1.000  H
  C196     1.0000 0.49147  0.89880  0.44500  Biso   1.000  C
  H110     1.0000 0.47320  0.90220  0.39320  Biso   1.000  H
  C197     1.0000 0.52387  0.91510  0.42120  Biso   1.000  C
  H111     1.0000 0.52670  0.92950  0.35390  Biso   1.000  H
  C198     1.0000 0.55098  0.90990  0.49620  Biso   1.000  C
  H112     1.0000 0.57200  0.92160  0.47950  Biso   1.000  H
  C199     1.0000 0.59907  0.85130  0.85990  Biso   1.000  C
  H113     1.0000 0.62010  0.86530  0.84570  Biso   1.000  H
  C200     1.0000 0.59516  0.82640  0.95750  Biso   1.000  C
  H114     1.0000 0.61330  0.82420  0.00970  Biso   1.000  H
  C201     1.0000 0.56279  0.80360  0.97850  Biso   1.000  C
  H115     1.0000 0.56020  0.78440  0.04410  Biso   1.000  H
  C202     1.0000 0.53576  0.80960  0.90410  Biso   1.000  C
  H116     1.0000 0.51490  0.79580  0.92040  Biso   1.000  H
  C203     1.0000 0.60994  0.89190  0.65450  Biso   1.000  C
  C204     1.0000 0.62950  0.82480  0.64200  Biso   1.000  C
  H117     1.0000 0.62000  0.77380  0.64100  Biso   1.000  H
  C205     1.0000 0.66288  0.83230  0.63090  Biso   1.000  C
  H118     1.0000 0.67540  0.78680  0.62070  Biso   1.000  H
  C206     1.0000 0.67777  0.90890  0.63510  Biso   1.000  C
  C207     1.0000 0.65827  0.97600  0.64460  Biso   1.000  C
  H119     1.0000 0.66770  0.02700  0.64580  Biso   1.000  H
  C208     1.0000 0.62465  0.96750  0.65230  Biso   1.000  C
  H120     1.0000 0.61170  0.01330  0.65600  Biso   1.000  H
  C209     1.0000 0.71446  0.91770  0.63350  Biso   1.000  C
  C210     1.0000 0.15863  0.69800  0.03640  Biso   1.000  C
  C211     1.0000 0.12622  0.69770  0.98600  Biso   1.000  C
  H121     1.0000 0.12160  0.67950  0.91780  Biso   1.000  H
  C212     1.0000 0.10067  0.72460  0.03720  Biso   1.000  C
  H122     1.0000 0.07890  0.72320  0.00340  Biso   1.000  H
  C213     1.0000 0.10693  0.75360  0.13790  Biso   1.000  C
  C214     1.0000 0.13949  0.75450  0.18770  Biso   1.000  C
  H123     1.0000 0.14410  0.77370  0.25540  Biso   1.000  H
  C215     1.0000 0.16540  0.72710  0.13740  Biso   1.000  C
  H124     1.0000 0.18720  0.72820  0.17130  Biso   1.000  H
  C216     1.0000 0.07843  0.78190  0.18800  Biso   1.000  C
  C217     1.0000 0.06571  0.86060  0.16660  Biso   1.000  C
  C218     1.0000 0.03523  0.88430  0.20100  Biso   1.000  C
  C219     1.0000 0.01859  0.83140  0.25990  Biso   1.000  C
  C220     1.0000 0.03265  0.75650  0.28860  Biso   1.000  C
  C221     1.0000 0.06290  0.73050  0.25120  Biso   1.000  C
  C222     1.0000 0.07599  0.65270  0.28020  Biso   1.000  C
  H125     1.0000 0.09500  0.63530  0.25460  Biso   1.000  H
  C223     1.0000 0.06175  0.60410  0.34320  Biso   1.000  C
  H126     1.0000 0.07080  0.55370  0.36090  Biso   1.000  H
  C224     1.0000 0.03291  0.62990  0.38230  Biso   1.000  C
  H127     1.0000 0.02370  0.59680  0.42830  Biso   1.000  H
  C225     1.0000 0.01817  0.70150  0.35500  Biso   1.000  C
  H128     1.0000 0.99850  0.71530  0.37950  Biso   1.000  H
  C226     1.0000 0.08320  0.91660  0.10960  Biso   1.000  C
  H129     1.0000 0.10300  0.90150  0.08690  Biso   1.000  H
  C227     1.0000 0.07063  0.99190  0.08890  Biso   1.000  C
  H130     1.0000 0.08250  0.02820  0.05380  Biso   1.000  H
  C228     1.0000 0.04039  0.01590  0.11910  Biso   1.000  C
  H131     1.0000 0.03210  0.06730  0.10270  Biso   1.000  H
  C229     1.0000 0.02280  0.96360  0.17320  Biso   1.000  C
  H132     1.0000 0.00260  0.97980  0.19210  Biso   1.000  H
  C230     1.0000 0.98555  0.85320  0.28890  Biso   1.000  C
  C231     1.0000 0.95637  0.84540  0.21670  Biso   1.000  C
  C232     1.0000 0.92444  0.86270  0.24500  Biso   1.000  C
  C233     1.0000 0.92197  0.88410  0.35010  Biso   1.000  C
  C234     1.0000 0.95114  0.88990  0.42390  Biso   1.000  C
  C235     1.0000 0.98319  0.87730  0.39320  Biso   1.000  C
  C236     1.0000 0.01206  0.88670  0.46810  Biso   1.000  C
  H133     1.0000 0.03310  0.88230  0.44810  Biso   1.000  H
  C237     1.0000 0.00896  0.90190  0.56830  Biso   1.000  C
  H134     1.0000 0.02800  0.90650  0.61680  Biso   1.000  H
  C238     1.0000 0.97752  0.91120  0.60130  Biso   1.000  C
  H135     1.0000 0.97590  0.92000  0.67100  Biso   1.000  H
  C239     1.0000 0.94968  0.90710  0.52990  Biso   1.000  C
  H136     1.0000 0.92910  0.91580  0.55130  Biso   1.000  H
  C240     1.0000 0.95748  0.81890  0.11430  Biso   1.000  C
  H137     1.0000 0.97800  0.80600  0.09450  Biso   1.000  H
  C241     1.0000 0.92959  0.81150  0.04340  Biso   1.000  C
  H138     1.0000 0.93110  0.79330  0.97650  Biso   1.000  H
  C242     1.0000 0.89809  0.83170  0.07260  Biso   1.000  C
  H139     1.0000 0.87910  0.82840  0.02370  Biso   1.000  H
  C243     1.0000 0.89557  0.85560  0.16990  Biso   1.000  C
  H140     1.0000 0.87480  0.86750  0.18820  Biso   1.000  H
  C244     1.0000 0.88898  0.89510  0.38470  Biso   1.000  C
  C245     1.0000 0.87676  0.97180  0.40540  Biso   1.000  C
  H141     1.0000 0.88910  0.01730  0.39430  Biso   1.000  H
  C246     1.0000 0.84629  0.98060  0.44250  Biso   1.000  C
  H142     1.0000 0.83820  0.03170  0.45390  Biso   1.000  H
  C247     1.0000 0.82793  0.91300  0.46260  Biso   1.000  C
  C248     1.0000 0.83949  0.83800  0.44060  Biso   1.000  C
  H143     1.0000 0.82730  0.79240  0.45270  Biso   1.000  H
  C249     1.0000 0.86912  0.82990  0.40070  Biso   1.000  C
  H144     1.0000 0.87600  0.77880  0.38400  Biso   1.000  H
  C250     1.0000 0.79614  0.92320  0.50790  Biso   1.000  C
  O24      1.0000 0.28575  0.63150  0.99420  Biso   1.000  O
  C251     1.0000 0.31318  0.65130  0.04600  Biso   1.000  C
  C252     1.0000 0.18621  0.66960  0.98100  Biso   1.000  C
  Cl3      1.0000 0.25121  0.72962  0.74430  Biso   1.000  Cl
  Sr7      1.0000 0.76387  0.09537  0.63339  Biso   1.000  Sr
  Sr8      1.0000 0.74079  0.10859  0.32957  Biso   1.000  Sr
  O25      1.0000 0.68086  0.14590  0.35720  Biso   1.000  O
  O26      1.0000 0.27066  0.35780  0.90090  Biso   1.000  O
  O27      1.0000 0.27182  0.48190  0.83550  Biso   1.000  O
  O28      1.0000 0.82047  0.15110  0.61300  Biso   1.000  O
  O29      1.0000 0.78440  0.16380  0.46930  Biso   1.000  O
  O30      1.0000 0.21602  0.49230  0.98890  Biso   1.000  O
  O31      1.0000 0.21627  0.35850  0.95920  Biso   1.000  O
  C253     1.0000 0.65989  0.18500  0.51060  Biso   1.000  C
  C254     1.0000 0.66736  0.20780  0.61480  Biso   1.000  C
  H145     1.0000 0.68890  0.20230  0.64930  Biso   1.000  H
  C255     1.0000 0.64257  0.23850  0.66660  Biso   1.000  C
  H146     1.0000 0.64770  0.25340  0.73600  Biso   1.000  H
  C256     1.0000 0.61020  0.24740  0.61640  Biso   1.000  C
  C257     1.0000 0.60331  0.22620  0.51110  Biso   1.000  C
  H147     1.0000 0.58190  0.23270  0.47590  Biso   1.000  H
  C258     1.0000 0.62791  0.19600  0.45930  Biso   1.000  C
  H148     1.0000 0.62300  0.18280  0.38930  Biso   1.000  H
  C259     1.0000 0.58231  0.27650  0.67110  Biso   1.000  C
  C260     1.0000 0.56964  0.35490  0.65310  Biso   1.000  C
  C261     1.0000 0.53964  0.37870  0.69220  Biso   1.000  C
  C262     1.0000 0.52284  0.32320  0.74860  Biso   1.000  C
  C263     1.0000 0.53693  0.24700  0.77320  Biso   1.000  C
  C264     1.0000 0.56687  0.22350  0.73520  Biso   1.000  C
  C265     1.0000 0.58019  0.14580  0.76280  Biso   1.000  C
  H149     1.0000 0.59970  0.13010  0.73890  Biso   1.000  H
  C266     1.0000 0.56556  0.09480  0.82210  Biso   1.000  C
  H150     1.0000 0.57470  0.04420  0.83770  Biso   1.000  H
  C267     1.0000 0.53602  0.11800  0.86080  Biso   1.000  C
  H151     1.0000 0.52610  0.08330  0.90330  Biso   1.000  H
  C268     1.0000 0.52226  0.19160  0.83560  Biso   1.000  C
  H152     1.0000 0.50260  0.20560  0.86020  Biso   1.000  H
  C269     1.0000 0.52750  0.45820  0.67010  Biso   1.000  C
  H153     1.0000 0.50780  0.47420  0.69300  Biso   1.000  H
  C270     1.0000 0.54410  0.51140  0.61580  Biso   1.000  C
  H154     1.0000 0.53560  0.56290  0.60210  Biso   1.000  H
  C271     1.0000 0.57388  0.48890  0.58070  Biso   1.000  C
  H155     1.0000 0.58540  0.52600  0.54590  Biso   1.000  H
  C272     1.0000 0.58617  0.41230  0.59740  Biso   1.000  C
  H156     1.0000 0.60560  0.39770  0.57190  Biso   1.000  H
  C273     1.0000 0.48937  0.34380  0.77570  Biso   1.000  C
  C274     1.0000 0.46138  0.33660  0.69830  Biso   1.000  C
  C275     1.0000 0.42886  0.35620  0.72130  Biso   1.000  C
  C276     1.0000 0.42465  0.37940  0.82350  Biso   1.000  C
  C277     1.0000 0.45245  0.38670  0.89960  Biso   1.000  C
  C278     1.0000 0.48526  0.36980  0.87620  Biso   1.000  C
  C279     1.0000 0.51295  0.37810  0.95560  Biso   1.000  C
  H157     1.0000 0.53430  0.36930  0.94010  Biso   1.000  H
  C280     1.0000 0.50853  0.39880  0.05500  Biso   1.000  C
  H158     1.0000 0.52680  0.40220  0.10680  Biso   1.000  H
  C281     1.0000 0.47613  0.41510  0.07880  Biso   1.000  C
  H159     1.0000 0.47330  0.42950  0.14610  Biso   1.000  H
  C282     1.0000 0.44902  0.40990  0.00380  Biso   1.000  C
  H160     1.0000 0.42800  0.42160  0.02050  Biso   1.000  H
  C283     1.0000 0.40093  0.35130  0.64010  Biso   1.000  C
  H161     1.0000 0.37990  0.36530  0.65430  Biso   1.000  H
  C284     1.0000 0.40484  0.32640  0.54250  Biso   1.000  C
  H162     1.0000 0.38670  0.32420  0.49030  Biso   1.000  H
  C285     1.0000 0.43721  0.30360  0.52150  Biso   1.000  C
  H163     1.0000 0.43980  0.28440  0.45590  Biso   1.000  H
  C286     1.0000 0.46424  0.30960  0.59590  Biso   1.000  C
  H164     1.0000 0.48510  0.29580  0.57960  Biso   1.000  H
  C287     1.0000 0.39006  0.39190  0.84550  Biso   1.000  C
  C288     1.0000 0.37050  0.32480  0.85800  Biso   1.000  C
  H165     1.0000 0.38000  0.27380  0.85900  Biso   1.000  H
  C289     1.0000 0.33712  0.33230  0.86910  Biso   1.000  C
  H166     1.0000 0.32460  0.28680  0.87930  Biso   1.000  H
  C290     1.0000 0.32223  0.40890  0.86490  Biso   1.000  C
  C291     1.0000 0.34173  0.47600  0.85540  Biso   1.000  C
  H167     1.0000 0.33230  0.52700  0.85420  Biso   1.000  H
  C292     1.0000 0.37535  0.46750  0.84770  Biso   1.000  C
  H168     1.0000 0.38830  0.51330  0.84400  Biso   1.000  H
  C293     1.0000 0.28554  0.41770  0.86650  Biso   1.000  C
  C294     1.0000 0.84137  0.19800  0.46360  Biso   1.000  C
  C295     1.0000 0.87378  0.19770  0.51400  Biso   1.000  C
  H169     1.0000 0.87840  0.17950  0.58220  Biso   1.000  H
  C296     1.0000 0.89933  0.22460  0.46280  Biso   1.000  C
  H170     1.0000 0.92110  0.22320  0.49660  Biso   1.000  H
  C297     1.0000 0.89307  0.25360  0.36210  Biso   1.000  C
  C298     1.0000 0.86051  0.25450  0.31230  Biso   1.000  C
  H171     1.0000 0.85590  0.27370  0.24460  Biso   1.000  H
  C299     1.0000 0.83460  0.22710  0.36260  Biso   1.000  C
  H172     1.0000 0.81280  0.22820  0.32870  Biso   1.000  H
  C300     1.0000 0.92157  0.28190  0.31200  Biso   1.000  C
  C301     1.0000 0.93429  0.36060  0.33340  Biso   1.000  C
  C302     1.0000 0.96477  0.38430  0.29900  Biso   1.000  C
  C303     1.0000 0.98141  0.33140  0.24010  Biso   1.000  C
  C304     1.0000 0.96735  0.25650  0.21140  Biso   1.000  C
  C305     1.0000 0.93710  0.23050  0.24880  Biso   1.000  C
  C306     1.0000 0.92401  0.15270  0.21980  Biso   1.000  C
  H173     1.0000 0.90500  0.13530  0.24540  Biso   1.000  H
  C307     1.0000 0.93825  0.10410  0.15680  Biso   1.000  C
  H174     1.0000 0.92920  0.05370  0.13910  Biso   1.000  H
  C308     1.0000 0.96709  0.12990  0.11770  Biso   1.000  C
  H175     1.0000 0.97630  0.09680  0.07170  Biso   1.000  H
  C309     1.0000 0.98183  0.20150  0.14500  Biso   1.000  C
  H176     1.0000 0.00150  0.21530  0.12050  Biso   1.000  H
  C310     1.0000 0.91680  0.41660  0.39040  Biso   1.000  C
  H177     1.0000 0.89700  0.40150  0.41310  Biso   1.000  H
  C311     1.0000 0.92937  0.49190  0.41110  Biso   1.000  C
  H178     1.0000 0.91750  0.52820  0.44620  Biso   1.000  H
  C312     1.0000 0.95961  0.51590  0.38090  Biso   1.000  C
  H179     1.0000 0.96790  0.56730  0.39730  Biso   1.000  H
  C313     1.0000 0.97720  0.46360  0.32680  Biso   1.000  C
  H180     1.0000 0.99740  0.47980  0.30790  Biso   1.000  H
  C314     1.0000 0.01445  0.35320  0.21110  Biso   1.000  C
  C315     1.0000 0.04363  0.34540  0.28330  Biso   1.000  C
  C316     1.0000 0.07556  0.36270  0.25500  Biso   1.000  C
  C317     1.0000 0.07803  0.38410  0.14990  Biso   1.000  C
  C318     1.0000 0.04886  0.38990  0.07610  Biso   1.000  C
  C319     1.0000 0.01681  0.37730  0.10680  Biso   1.000  C
  C320     1.0000 0.98794  0.38670  0.03190  Biso   1.000  C
  H181     1.0000 0.96690  0.38230  0.05190  Biso   1.000  H
  C321     1.0000 0.99104  0.40190  0.93170  Biso   1.000  C
  H182     1.0000 0.97200  0.40650  0.88320  Biso   1.000  H
  C322     1.0000 0.02248  0.41120  0.89870  Biso   1.000  C
  H183     1.0000 0.02410  0.42000  0.82900  Biso   1.000  H
  C323     1.0000 0.05032  0.40710  0.97010  Biso   1.000  C
  H184     1.0000 0.07090  0.41580  0.94870  Biso   1.000  H
  C324     1.0000 0.04252  0.31890  0.38570  Biso   1.000  C
  H185     1.0000 0.02200  0.30600  0.40550  Biso   1.000  H
  C325     1.0000 0.07041  0.31150  0.45660  Biso   1.000  C
  H186     1.0000 0.06890  0.29330  0.52350  Biso   1.000  H
  C326     1.0000 0.10191  0.33170  0.42740  Biso   1.000  C
  H187     1.0000 0.12090  0.32840  0.47630  Biso   1.000  H
  C327     1.0000 0.10443  0.35560  0.33010  Biso   1.000  C
  H188     1.0000 0.12520  0.36750  0.31180  Biso   1.000  H
  C328     1.0000 0.11102  0.39510  0.11530  Biso   1.000  C
  C329     1.0000 0.12324  0.47180  0.09460  Biso   1.000  C
  H189     1.0000 0.11090  0.51730  0.10570  Biso   1.000  H
  C330     1.0000 0.15371  0.48060  0.05750  Biso   1.000  C
  H190     1.0000 0.16180  0.53170  0.04610  Biso   1.000  H
  C331     1.0000 0.17207  0.41300  0.03740  Biso   1.000  C
  C332     1.0000 0.16051  0.33800  0.05940  Biso   1.000  C
  H191     1.0000 0.17270  0.29240  0.04730  Biso   1.000  H
  C333     1.0000 0.13088  0.32990  0.09930  Biso   1.000  C
  H192     1.0000 0.12400  0.27880  0.11600  Biso   1.000  H
  C334     1.0000 0.20386  0.42320  0.99210  Biso   1.000  C
  O32      1.0000 0.71425  0.13150  0.50580  Biso   1.000  O
  C335     1.0000 0.68682  0.15130  0.45400  Biso   1.000  C
  C336     1.0000 0.81379  0.16960  0.51900  Biso   1.000  C
  Cl4      1.0000 0.74879  0.22962  0.75570  Biso   1.000  Cl
