data_image0
_cell_length_a       18.1836
_cell_length_b       10.0126
_cell_length_c       20.0589
_cell_angle_alpha    90
_cell_angle_beta     106.08
_cell_angle_gamma    90

_symmetry_space_group_name_H-M    "P 1"
_symmetry_int_tables_number       1

loop_
  _symmetry_equiv_pos_as_xyz
  'x, y, z'

loop_
  _atom_site_label
  _atom_site_occupancy
  _atom_site_fract_x
  _atom_site_fract_y
  _atom_site_fract_z
  _atom_site_thermal_displace_type
  _atom_site_B_iso_or_equiv
  _atom_site_type_symbol
  Fe1      1.0000 0.18740  0.57770  0.16120  Biso   1.000  Fe
  Fe2      1.0000 0.31070  0.31500  0.24000  Biso   1.000  Fe
  Fe3      1.0000 0.42430  0.42930  0.99780  Biso   1.000  Fe
  P1       1.0000 0.07900  0.82730  0.10690  Biso   1.000  P
  P2       1.0000 0.14130  0.27080  0.13200  Biso   1.000  P
  P3       1.0000 0.33370  0.48400  0.11460  Biso   1.000  P
  O1       1.0000 0.25180  0.53730  0.10100  Biso   1.000  O
  O2       1.0000 0.10990  0.68630  0.09970  Biso   1.000  O
  O3       1.0000 0.12320  0.41840  0.13880  Biso   1.000  O
  O4       1.0000 0.26320  0.48710  0.23890  Biso   1.000  O
  F1       1.0000 0.14530  0.63250  0.24120  Biso   1.000  F
  F2       1.0000 0.24360  0.75160  0.19080  Biso   1.000  F
  O5       1.0000 0.35510  0.36670  0.16590  Biso   1.000  O
  O6       1.0000 0.22410  0.23830  0.16810  Biso   1.000  O
  O7       1.0000 0.09680  0.86690  0.18430  Biso   1.000  O
  O8       1.0000 0.34550  0.44750  0.04540  Biso   1.000  O
  O9       1.0000 0.11690  0.93060  0.07080  Biso   1.000  O
  O10      1.0000 0.12090  0.22840  0.05600  Biso   1.000  O
  F3       1.0000 0.48990  0.58040  0.04810  Biso   1.000  F
  O11      1.0000 0.99100  0.81960  0.07480  Biso   1.000  O
  O12      1.0000 0.08790  0.19500  0.16970  Biso   1.000  O
  O13      1.0000 0.38850  0.60280  0.14810  Biso   1.000  O
  Fe4      1.0000 0.68740  0.07770  0.16120  Biso   1.000  Fe
  Fe5      1.0000 0.81070  0.81500  0.24000  Biso   1.000  Fe
  Fe6      1.0000 0.92430  0.92930  0.99780  Biso   1.000  Fe
  P4       1.0000 0.57900  0.32730  0.10690  Biso   1.000  P
  P5       1.0000 0.64130  0.77080  0.13200  Biso   1.000  P
  P6       1.0000 0.83370  0.98400  0.11460  Biso   1.000  P
  O14      1.0000 0.75180  0.03730  0.10100  Biso   1.000  O
  O15      1.0000 0.60990  0.18630  0.09970  Biso   1.000  O
  O16      1.0000 0.62320  0.91840  0.13880  Biso   1.000  O
  O17      1.0000 0.76320  0.98710  0.23890  Biso   1.000  O
  F4       1.0000 0.64530  0.13250  0.24120  Biso   1.000  F
  F5       1.0000 0.74360  0.25160  0.19080  Biso   1.000  F
  O18      1.0000 0.85510  0.86670  0.16590  Biso   1.000  O
  O19      1.0000 0.72410  0.73830  0.16810  Biso   1.000  O
  O20      1.0000 0.59680  0.36690  0.18430  Biso   1.000  O
  O21      1.0000 0.84550  0.94750  0.04540  Biso   1.000  O
  O22      1.0000 0.61690  0.43060  0.07080  Biso   1.000  O
  O23      1.0000 0.62090  0.72840  0.05600  Biso   1.000  O
  F6       1.0000 0.98990  0.08040  0.04810  Biso   1.000  F
  O24      1.0000 0.49100  0.31960  0.07480  Biso   1.000  O
  O25      1.0000 0.58790  0.69500  0.16970  Biso   1.000  O
  O26      1.0000 0.88850  0.10280  0.14810  Biso   1.000  O
  Fe7      1.0000 0.81260  0.57770  0.33880  Biso   1.000  Fe
  Fe8      1.0000 0.68930  0.31500  0.26000  Biso   1.000  Fe
  Fe9      1.0000 0.57570  0.42930  0.50220  Biso   1.000  Fe
  P7       1.0000 0.92100  0.82730  0.39310  Biso   1.000  P
  P8       1.0000 0.85870  0.27080  0.36800  Biso   1.000  P
  P9       1.0000 0.66630  0.48400  0.38540  Biso   1.000  P
  O27      1.0000 0.74820  0.53730  0.39900  Biso   1.000  O
  O28      1.0000 0.89010  0.68630  0.40030  Biso   1.000  O
  O29      1.0000 0.87680  0.41840  0.36120  Biso   1.000  O
  O30      1.0000 0.73680  0.48710  0.26110  Biso   1.000  O
  F7       1.0000 0.85470  0.63250  0.25880  Biso   1.000  F
  F8       1.0000 0.75640  0.75160  0.30920  Biso   1.000  F
  O31      1.0000 0.64490  0.36670  0.33410  Biso   1.000  O
  O32      1.0000 0.77590  0.23830  0.33190  Biso   1.000  O
  O33      1.0000 0.90320  0.86690  0.31570  Biso   1.000  O
  O34      1.0000 0.65450  0.44750  0.45460  Biso   1.000  O
  O35      1.0000 0.88310  0.93060  0.42920  Biso   1.000  O
  O36      1.0000 0.87910  0.22840  0.44400  Biso   1.000  O
  F9       1.0000 0.51010  0.58040  0.45190  Biso   1.000  F
  O37      1.0000 0.00900  0.81960  0.42520  Biso   1.000  O
  O38      1.0000 0.91210  0.19500  0.33030  Biso   1.000  O
  O39      1.0000 0.61150  0.60280  0.35190  Biso   1.000  O
  Fe10     1.0000 0.31260  0.07770  0.33880  Biso   1.000  Fe
  Fe11     1.0000 0.18930  0.81500  0.26000  Biso   1.000  Fe
  Fe12     1.0000 0.07570  0.92930  0.50220  Biso   1.000  Fe
  P10      1.0000 0.42100  0.32730  0.39310  Biso   1.000  P
  P11      1.0000 0.35870  0.77080  0.36800  Biso   1.000  P
  P12      1.0000 0.16630  0.98400  0.38540  Biso   1.000  P
  O40      1.0000 0.24820  0.03730  0.39900  Biso   1.000  O
  O41      1.0000 0.39010  0.18630  0.40030  Biso   1.000  O
  O42      1.0000 0.37680  0.91840  0.36120  Biso   1.000  O
  O43      1.0000 0.23680  0.98710  0.26110  Biso   1.000  O
  F10      1.0000 0.35470  0.13250  0.25880  Biso   1.000  F
  F11      1.0000 0.25640  0.25160  0.30920  Biso   1.000  F
  O44      1.0000 0.14490  0.86670  0.33410  Biso   1.000  O
  O45      1.0000 0.27590  0.73830  0.33190  Biso   1.000  O
  O46      1.0000 0.40320  0.36690  0.31570  Biso   1.000  O
  O47      1.0000 0.15450  0.94750  0.45460  Biso   1.000  O
  O48      1.0000 0.38310  0.43060  0.42920  Biso   1.000  O
  O49      1.0000 0.37910  0.72840  0.44400  Biso   1.000  O
  F12      1.0000 0.01010  0.08040  0.45190  Biso   1.000  F
  O50      1.0000 0.50900  0.31960  0.42520  Biso   1.000  O
  O51      1.0000 0.41210  0.69500  0.33030  Biso   1.000  O
  O52      1.0000 0.11150  0.10280  0.35190  Biso   1.000  O
  Fe13     1.0000 0.81260  0.42230  0.83880  Biso   1.000  Fe
  Fe14     1.0000 0.68930  0.68500  0.76000  Biso   1.000  Fe
  Fe15     1.0000 0.57570  0.57070  0.00220  Biso   1.000  Fe
  P13      1.0000 0.92100  0.17270  0.89310  Biso   1.000  P
  P14      1.0000 0.85870  0.72920  0.86800  Biso   1.000  P
  P15      1.0000 0.66630  0.51600  0.88540  Biso   1.000  P
  O53      1.0000 0.74820  0.46270  0.89900  Biso   1.000  O
  O54      1.0000 0.89010  0.31370  0.90030  Biso   1.000  O
  O55      1.0000 0.87680  0.58160  0.86120  Biso   1.000  O
  O56      1.0000 0.73680  0.51290  0.76110  Biso   1.000  O
  F13      1.0000 0.85470  0.36750  0.75880  Biso   1.000  F
  F14      1.0000 0.75640  0.24840  0.80920  Biso   1.000  F
  O57      1.0000 0.64490  0.63330  0.83410  Biso   1.000  O
  O58      1.0000 0.77590  0.76170  0.83190  Biso   1.000  O
  O59      1.0000 0.90320  0.13310  0.81570  Biso   1.000  O
  O60      1.0000 0.65450  0.55250  0.95460  Biso   1.000  O
  O61      1.0000 0.88310  0.06940  0.92920  Biso   1.000  O
  O62      1.0000 0.87910  0.77160  0.94400  Biso   1.000  O
  F15      1.0000 0.51010  0.41960  0.95190  Biso   1.000  F
  O63      1.0000 0.00900  0.18040  0.92520  Biso   1.000  O
  O64      1.0000 0.91210  0.80500  0.83030  Biso   1.000  O
  O65      1.0000 0.61150  0.39720  0.85190  Biso   1.000  O
  Fe16     1.0000 0.31260  0.92230  0.83880  Biso   1.000  Fe
  Fe17     1.0000 0.18930  0.18500  0.76000  Biso   1.000  Fe
  Fe18     1.0000 0.07570  0.07070  0.00220  Biso   1.000  Fe
  P16      1.0000 0.42100  0.67270  0.89310  Biso   1.000  P
  P17      1.0000 0.35870  0.22920  0.86800  Biso   1.000  P
  P18      1.0000 0.16630  0.01600  0.88540  Biso   1.000  P
  O66      1.0000 0.24820  0.96270  0.89900  Biso   1.000  O
  O67      1.0000 0.39010  0.81370  0.90030  Biso   1.000  O
  O68      1.0000 0.37680  0.08160  0.86120  Biso   1.000  O
  O69      1.0000 0.23680  0.01290  0.76110  Biso   1.000  O
  F16      1.0000 0.35470  0.86750  0.75880  Biso   1.000  F
  F17      1.0000 0.25640  0.74840  0.80920  Biso   1.000  F
  O70      1.0000 0.14490  0.13330  0.83410  Biso   1.000  O
  O71      1.0000 0.27590  0.26170  0.83190  Biso   1.000  O
  O72      1.0000 0.40320  0.63310  0.81570  Biso   1.000  O
  O73      1.0000 0.15450  0.05250  0.95460  Biso   1.000  O
  O74      1.0000 0.38310  0.56940  0.92920  Biso   1.000  O
  O75      1.0000 0.37910  0.27160  0.94400  Biso   1.000  O
  F18      1.0000 0.01010  0.91960  0.95190  Biso   1.000  F
  O76      1.0000 0.50900  0.68040  0.92520  Biso   1.000  O
  O77      1.0000 0.41210  0.30500  0.83030  Biso   1.000  O
  O78      1.0000 0.11150  0.89720  0.85190  Biso   1.000  O
  Fe19     1.0000 0.18740  0.42230  0.66120  Biso   1.000  Fe
  Fe20     1.0000 0.31070  0.68500  0.74000  Biso   1.000  Fe
  Fe21     1.0000 0.42430  0.57070  0.49780  Biso   1.000  Fe
  P19      1.0000 0.07900  0.17270  0.60690  Biso   1.000  P
  P20      1.0000 0.14130  0.72920  0.63200  Biso   1.000  P
  P21      1.0000 0.33370  0.51600  0.61460  Biso   1.000  P
  O79      1.0000 0.25180  0.46270  0.60100  Biso   1.000  O
  O80      1.0000 0.10990  0.31370  0.59970  Biso   1.000  O
  O81      1.0000 0.12320  0.58160  0.63880  Biso   1.000  O
  O82      1.0000 0.26320  0.51290  0.73890  Biso   1.000  O
  F19      1.0000 0.14530  0.36750  0.74120  Biso   1.000  F
  F20      1.0000 0.24360  0.24840  0.69080  Biso   1.000  F
  O83      1.0000 0.35510  0.63330  0.66590  Biso   1.000  O
  O84      1.0000 0.22410  0.76170  0.66810  Biso   1.000  O
  O85      1.0000 0.09680  0.13310  0.68430  Biso   1.000  O
  O86      1.0000 0.34550  0.55250  0.54540  Biso   1.000  O
  O87      1.0000 0.11690  0.06940  0.57080  Biso   1.000  O
  O88      1.0000 0.12090  0.77160  0.55600  Biso   1.000  O
  F21      1.0000 0.48990  0.41960  0.54810  Biso   1.000  F
  O89      1.0000 0.99100  0.18040  0.57480  Biso   1.000  O
  O90      1.0000 0.08790  0.80500  0.66970  Biso   1.000  O
  O91      1.0000 0.38850  0.39720  0.64810  Biso   1.000  O
  Fe22     1.0000 0.68740  0.92230  0.66120  Biso   1.000  Fe
  Fe23     1.0000 0.81070  0.18500  0.74000  Biso   1.000  Fe
  Fe24     1.0000 0.92430  0.07070  0.49780  Biso   1.000  Fe
  P22      1.0000 0.57900  0.67270  0.60690  Biso   1.000  P
  P23      1.0000 0.64130  0.22920  0.63200  Biso   1.000  P
  P24      1.0000 0.83370  0.01600  0.61460  Biso   1.000  P
  O92      1.0000 0.75180  0.96270  0.60100  Biso   1.000  O
  O93      1.0000 0.60990  0.81370  0.59970  Biso   1.000  O
  O94      1.0000 0.62320  0.08160  0.63880  Biso   1.000  O
  O95      1.0000 0.76320  0.01290  0.73890  Biso   1.000  O
  F22      1.0000 0.64530  0.86750  0.74120  Biso   1.000  F
  F23      1.0000 0.74360  0.74840  0.69080  Biso   1.000  F
  O96      1.0000 0.85510  0.13330  0.66590  Biso   1.000  O
  O97      1.0000 0.72410  0.26170  0.66810  Biso   1.000  O
  O98      1.0000 0.59680  0.63310  0.68430  Biso   1.000  O
  O99      1.0000 0.84550  0.05250  0.54540  Biso   1.000  O
  O100     1.0000 0.61690  0.56940  0.57080  Biso   1.000  O
  O101     1.0000 0.62090  0.27160  0.55600  Biso   1.000  O
  F24      1.0000 0.98990  0.91960  0.54810  Biso   1.000  F
  O102     1.0000 0.49100  0.68040  0.57480  Biso   1.000  O
  O103     1.0000 0.58790  0.30500  0.66970  Biso   1.000  O
  O104     1.0000 0.88850  0.89720  0.64810  Biso   1.000  O
