data_VAHVOR_clean
_audit_creation_date              2014-07-02
_audit_creation_method            'Materials Studio'
_symmetry_space_group_name_H-M    'P1'
_symmetry_Int_Tables_number       1
_symmetry_cell_setting            triclinic
loop_
_symmetry_equiv_pos_as_xyz
  x,y,z
_cell_length_a                    13.4766
_cell_length_b                    14.4101
_cell_length_c                    15.9898
_cell_angle_alpha                 116.7820
_cell_angle_beta                  96.7664
_cell_angle_gamma                 90.0000
loop_
_atom_site_label
_atom_site_type_symbol
_atom_site_fract_x
_atom_site_fract_y
_atom_site_fract_z
_atom_site_U_iso_or_equiv
_atom_site_adp_type
_atom_site_occupancy
Dy1    Dy    0.03673   0.52329   0.63344   0.01267  Uiso   1.00
Dy2    Dy    0.46327   0.88985   0.36656   0.01267  Uiso   1.00
Dy3    Dy    0.96327   0.47671   0.36656   0.01267  Uiso   1.00
Dy4    Dy    0.53673   0.11015   0.63344   0.01267  Uiso   1.00
H1     H     0.28340   0.29810   0.52920   0.01267  Uiso   1.00
H2     H     0.42430   0.11200   0.31200   0.01267  Uiso   1.00
H3     H     0.23060   0.30950   0.28360   0.01267  Uiso   1.00
H4     H     0.40830   0.05440   0.03060   0.01267  Uiso   1.00
H5     H     0.45790   0.02310   0.88640   0.01267  Uiso   1.00
H6     H     0.40320   0.31360   0.93420   0.01267  Uiso   1.00
H7     H     0.34340   0.34010   0.07340   0.01267  Uiso   1.00
H8     H     0.21660   0.76890   0.47080   0.01267  Uiso   1.00
H9     H     0.07570   0.80000   0.68800   0.01267  Uiso   1.00
H10    H     0.26940   0.02590   0.71640   0.01267  Uiso   1.00
H11    H     0.09170   0.02380   0.96940   0.01267  Uiso   1.00
H12    H     0.04210   0.13670   0.11360   0.01267  Uiso   1.00
H13    H     0.09680   0.37940   0.06580   0.01267  Uiso   1.00
H14    H     0.15660   0.26670   0.92660   0.01267  Uiso   1.00
H15    H     0.71660   0.70190   0.47080   0.01267  Uiso   1.00
H16    H     0.57570   0.88800   0.68800   0.01267  Uiso   1.00
H17    H     0.76940   0.69050   0.71640   0.01267  Uiso   1.00
H18    H     0.59170   0.94560   0.96940   0.01267  Uiso   1.00
H19    H     0.54210   0.97690   0.11360   0.01267  Uiso   1.00
H20    H     0.59680   0.68640   0.06580   0.01267  Uiso   1.00
H21    H     0.65660   0.65990   0.92660   0.01267  Uiso   1.00
H22    H     0.78340   0.23110   0.52920   0.01267  Uiso   1.00
H23    H     0.92430   0.20000   0.31200   0.01267  Uiso   1.00
H24    H     0.73060   0.97410   0.28360   0.01267  Uiso   1.00
H25    H     0.90830   0.97620   0.03060   0.01267  Uiso   1.00
H26    H     0.95790   0.86330   0.88640   0.01267  Uiso   1.00
H27    H     0.90320   0.62060   0.93420   0.01267  Uiso   1.00
H28    H     0.84340   0.73330   0.07340   0.01267  Uiso   1.00
C1     C     0.24070   0.31350   0.41140   0.01267  Uiso   1.00
C2     C     0.29340   0.27340   0.46640   0.01267  Uiso   1.00
C3     C     0.36090   0.19690   0.42940   0.01267  Uiso   1.00
C4     C     0.37880   0.16290   0.33700   0.01267  Uiso   1.00
C5     C     0.33090   0.20270   0.28260   0.01267  Uiso   1.00
C6     C     0.26190   0.28040   0.32040   0.01267  Uiso   1.00
C7     C     0.41600   0.15640   0.49380   0.01267  Uiso   1.00
C8     C     0.16530   0.39300   0.44980   0.01267  Uiso   1.00
C9     C     0.37570   0.20400   0.06920   0.01267  Uiso   1.00
C10    C     0.40740   0.10690   0.01180   0.01267  Uiso   1.00
C11    C     0.43820   0.08880   0.92580   0.01267  Uiso   1.00
C12    C     0.43980   0.16530   0.89820   0.01267  Uiso   1.00
C13    C     0.40440   0.26130   0.95320   0.01267  Uiso   1.00
C14    C     0.37050   0.27720   0.03760   0.01267  Uiso   1.00
C15    C     0.47860   0.14780   0.80640   0.01267  Uiso   1.00
C16    C     0.25930   0.90210   0.58860   0.01267  Uiso   1.00
C17    C     0.20660   0.80700   0.53360   0.01267  Uiso   1.00
C18    C     0.13910   0.76750   0.57060   0.01267  Uiso   1.00
C19    C     0.12120   0.82590   0.66300   0.01267  Uiso   1.00
C20    C     0.16910   0.92010   0.71740   0.01267  Uiso   1.00
C21    C     0.23810   0.96000   0.67960   0.01267  Uiso   1.00
C22    C     0.08400   0.66260   0.50620   0.01267  Uiso   1.00
C23    C     0.33470   0.94320   0.55020   0.01267  Uiso   1.00
C24    C     0.12430   0.13480   0.93080   0.01267  Uiso   1.00
C25    C     0.09260   0.09510   0.98820   0.01267  Uiso   1.00
C26    C     0.06180   0.16300   0.07420   0.01267  Uiso   1.00
C27    C     0.06020   0.26710   0.10180   0.01267  Uiso   1.00
C28    C     0.09560   0.30810   0.04680   0.01267  Uiso   1.00
C29    C     0.12950   0.23960   0.96240   0.01267  Uiso   1.00
C30    C     0.02140   0.34140   0.19360   0.01267  Uiso   1.00
C31    C     0.75930   0.68650   0.58860   0.01267  Uiso   1.00
C32    C     0.70660   0.72660   0.53360   0.01267  Uiso   1.00
C33    C     0.63910   0.80310   0.57060   0.01267  Uiso   1.00
C34    C     0.62120   0.83710   0.66300   0.01267  Uiso   1.00
C35    C     0.66910   0.79730   0.71740   0.01267  Uiso   1.00
C36    C     0.73810   0.71960   0.67960   0.01267  Uiso   1.00
C37    C     0.58400   0.84360   0.50620   0.01267  Uiso   1.00
C38    C     0.83470   0.60700   0.55020   0.01267  Uiso   1.00
C39    C     0.62430   0.79600   0.93080   0.01267  Uiso   1.00
C40    C     0.59260   0.89310   0.98820   0.01267  Uiso   1.00
C41    C     0.56180   0.91120   0.07420   0.01267  Uiso   1.00
C42    C     0.56020   0.83470   0.10180   0.01267  Uiso   1.00
C43    C     0.59560   0.73870   0.04680   0.01267  Uiso   1.00
C44    C     0.62950   0.72280   0.96240   0.01267  Uiso   1.00
C45    C     0.52140   0.85220   0.19360   0.01267  Uiso   1.00
C46    C     0.74070   0.09790   0.41140   0.01267  Uiso   1.00
C47    C     0.79340   0.19300   0.46640   0.01267  Uiso   1.00
C48    C     0.86090   0.23250   0.42940   0.01267  Uiso   1.00
C49    C     0.87880   0.17410   0.33700   0.01267  Uiso   1.00
C50    C     0.83090   0.07990   0.28260   0.01267  Uiso   1.00
C51    C     0.76190   0.04000   0.32040   0.01267  Uiso   1.00
C52    C     0.91600   0.33740   0.49380   0.01267  Uiso   1.00
C53    C     0.66530   0.05680   0.44980   0.01267  Uiso   1.00
C54    C     0.87570   0.86520   0.06920   0.01267  Uiso   1.00
C55    C     0.90740   0.90490   0.01180   0.01267  Uiso   1.00
C56    C     0.93820   0.83700   0.92580   0.01267  Uiso   1.00
C57    C     0.93980   0.73290   0.89820   0.01267  Uiso   1.00
C58    C     0.90440   0.69190   0.95320   0.01267  Uiso   1.00
C59    C     0.87050   0.76040   0.03760   0.01267  Uiso   1.00
C60    C     0.97860   0.65860   0.80640   0.01267  Uiso   1.00
N1     N     0.35850   0.17050   0.19000   0.01267  Uiso   1.00
N2     N     0.34510   0.23390   0.15920   0.01267  Uiso   1.00
N3     N     0.14150   0.98050   0.81000   0.01267  Uiso   1.00
N4     N     0.15490   0.07470   0.84080   0.01267  Uiso   1.00
N5     N     0.64150   0.82950   0.81000   0.01267  Uiso   1.00
N6     N     0.65490   0.76610   0.84080   0.01267  Uiso   1.00
N7     N     0.85850   0.01950   0.19000   0.01267  Uiso   1.00
N8     N     0.84510   0.92530   0.15920   0.01267  Uiso   1.00
O1     O     0.12500   0.43040   0.39880   0.01267  Uiso   1.00
O2     O     0.14890   0.41741   0.53302   0.01267  Uiso   1.00
O3     O     0.43360   0.21268   0.57976   0.01267  Uiso   1.00
O4     O     0.44670   0.06548   0.45536   0.01267  Uiso   1.00
O5     O     0.51670   0.06390   0.76220   0.01267  Uiso   1.00
O6     O     0.46800   0.21420   0.77880   0.01267  Uiso   1.00
O7     O     0.37500   0.03160   0.60120   0.01267  Uiso   1.00
O8     O     0.35110   0.88439   0.46698   0.01267  Uiso   1.00
O9     O     0.06640   0.63292   0.42024   0.01267  Uiso   1.00
O10    O     0.05330   0.61012   0.54464   0.01267  Uiso   1.00
O11    O     0.98330   0.30170   0.23780   0.01267  Uiso   1.00
O12    O     0.03200   0.43540   0.22120   0.01267  Uiso   1.00
O13    O     0.87500   0.56960   0.60120   0.01267  Uiso   1.00
O14    O     0.85110   0.58259   0.46698   0.01267  Uiso   1.00
O15    O     0.56640   0.78732   0.42024   0.01267  Uiso   1.00
O16    O     0.55330   0.93452   0.54464   0.01267  Uiso   1.00
O17    O     0.48330   0.93610   0.23780   0.01267  Uiso   1.00
O18    O     0.53200   0.78580   0.22120   0.01267  Uiso   1.00
O19    O     0.62500   0.96840   0.39880   0.01267  Uiso   1.00
O20    O     0.64890   0.11561   0.53302   0.01267  Uiso   1.00
O21    O     0.93360   0.36708   0.57976   0.01267  Uiso   1.00
O22    O     0.94670   0.38988   0.45536   0.01267  Uiso   1.00
O23    O     0.01670   0.69830   0.76220   0.01267  Uiso   1.00
O24    O     0.96800   0.56460   0.77880   0.01267  Uiso   1.00
