data_image0
_cell_length_a       20.909
_cell_length_b       11.364
_cell_length_c       17.699
_cell_angle_alpha    90
_cell_angle_beta     103.275
_cell_angle_gamma    90

_symmetry_space_group_name_H-M    "P 1"
_symmetry_int_tables_number       1

loop_
  _symmetry_equiv_pos_as_xyz
  'x, y, z'

loop_
  _atom_site_label
  _atom_site_occupancy
  _atom_site_fract_x
  _atom_site_fract_y
  _atom_site_fract_z
  _atom_site_thermal_displace_type
  _atom_site_B_iso_or_equiv
  _atom_site_type_symbol
  Zn1      1.0000 0.05320  0.86377  0.35821  Biso   1.000  Zn
  Zn2      1.0000 0.22820  0.91726  0.68576  Biso   1.000  Zn
  C1       1.0000 0.14830  0.84360  0.52320  Biso   1.000  C
  C2       1.0000 0.13150  0.72200  0.54260  Biso   1.000  C
  C3       1.0000 0.16990  0.62960  0.53410  Biso   1.000  C
  H1       1.0000 0.20860  0.64280  0.51790  Biso   1.000  H
  C4       1.0000 0.15280  0.51510  0.54910  Biso   1.000  C
  H2       1.0000 0.18000  0.45290  0.54290  Biso   1.000  H
  C5       1.0000 0.09670  0.49370  0.57260  Biso   1.000  C
  C6       1.0000 0.05930  0.58650  0.58440  Biso   1.000  C
  H3       1.0000 0.02150  0.57360  0.60240  Biso   1.000  H
  C7       1.0000 0.07700  0.70000  0.56980  Biso   1.000  C
  H4       1.0000 0.05100  0.76260  0.57880  Biso   1.000  H
  C8       1.0000 0.10270  0.27410  0.55880  Biso   1.000  C
  H5       1.0000 0.13750  0.26910  0.53440  Biso   1.000  H
  C9       1.0000 0.02860  0.33870  0.61810  Biso   1.000  C
  H6       1.0000 0.00390  0.38930  0.64130  Biso   1.000  H
  N1       1.0000 0.02010  0.22490  0.61410  Biso   1.000  N
  C10      1.0000 0.35570  0.81250  0.68950  Biso   1.000  C
  C11      1.0000 0.31430  0.72220  0.71610  Biso   1.000  C
  C12      1.0000 0.32290  0.60770  0.74080  Biso   1.000  C
  C13      1.0000 0.37690  0.52260  0.75100  Biso   1.000  C
  C14      1.0000 0.22620  0.66290  0.74990  Biso   1.000  C
  H7       1.0000 0.18430  0.66150  0.75940  Biso   1.000  H
  N2       1.0000 0.12770  0.89370  0.45350  Biso   1.000  N
  N3       1.0000 0.15770  0.00180  0.45850  Biso   1.000  N
  N4       1.0000 0.19450  0.01420  0.52810  Biso   1.000  N
  N5       1.0000 0.18910  0.91490  0.56990  Biso   1.000  N
  N6       1.0000 0.07770  0.37510  0.58460  Biso   1.000  N
  C15      1.0000 0.06650  0.18370  0.57630  Biso   1.000  C
  H8       1.0000 0.07210  0.10520  0.56450  Biso   1.000  H
  N7       1.0000 0.25191  0.75640  0.72240  Biso   1.000  N
  N8       1.0000 0.26739  0.57130  0.76250  Biso   1.000  N
  O1       1.0000 0.33046  0.91470  0.68010  Biso   1.000  O
  O2       1.0000 0.41089  0.78780  0.67840  Biso   1.000  O
  O3       1.0000 0.42964  0.54570  0.73110  Biso   1.000  O
  O4       1.0000 0.36936  0.42700  0.78410  Biso   1.000  O
  Zn3      1.0000 0.55320  0.36377  0.35821  Biso   1.000  Zn
  Zn4      1.0000 0.72820  0.41726  0.68576  Biso   1.000  Zn
  C16      1.0000 0.64830  0.34360  0.52320  Biso   1.000  C
  C17      1.0000 0.63150  0.22200  0.54260  Biso   1.000  C
  C18      1.0000 0.66990  0.12960  0.53410  Biso   1.000  C
  H9       1.0000 0.70860  0.14280  0.51790  Biso   1.000  H
  C19      1.0000 0.65280  0.01510  0.54910  Biso   1.000  C
  H10      1.0000 0.68000  0.95290  0.54290  Biso   1.000  H
  C20      1.0000 0.59670  0.99370  0.57260  Biso   1.000  C
  C21      1.0000 0.55930  0.08650  0.58440  Biso   1.000  C
  H11      1.0000 0.52150  0.07360  0.60240  Biso   1.000  H
  C22      1.0000 0.57700  0.20000  0.56980  Biso   1.000  C
  H12      1.0000 0.55100  0.26260  0.57880  Biso   1.000  H
  C23      1.0000 0.60270  0.77410  0.55880  Biso   1.000  C
  H13      1.0000 0.63750  0.76910  0.53440  Biso   1.000  H
  C24      1.0000 0.52860  0.83870  0.61810  Biso   1.000  C
  H14      1.0000 0.50390  0.88930  0.64130  Biso   1.000  H
  N9       1.0000 0.52010  0.72490  0.61410  Biso   1.000  N
  C25      1.0000 0.85570  0.31250  0.68950  Biso   1.000  C
  C26      1.0000 0.81430  0.22220  0.71610  Biso   1.000  C
  C27      1.0000 0.82290  0.10770  0.74080  Biso   1.000  C
  C28      1.0000 0.87690  0.02260  0.75100  Biso   1.000  C
  C29      1.0000 0.72620  0.16290  0.74990  Biso   1.000  C
  H15      1.0000 0.68430  0.16150  0.75940  Biso   1.000  H
  N10      1.0000 0.62770  0.39370  0.45350  Biso   1.000  N
  N11      1.0000 0.65770  0.50180  0.45850  Biso   1.000  N
  N12      1.0000 0.69450  0.51420  0.52810  Biso   1.000  N
  N13      1.0000 0.68910  0.41490  0.56990  Biso   1.000  N
  N14      1.0000 0.57770  0.87510  0.58460  Biso   1.000  N
  C30      1.0000 0.56650  0.68370  0.57630  Biso   1.000  C
  H16      1.0000 0.57210  0.60520  0.56450  Biso   1.000  H
  N15      1.0000 0.75191  0.25640  0.72240  Biso   1.000  N
  N16      1.0000 0.76739  0.07130  0.76250  Biso   1.000  N
  O5       1.0000 0.83046  0.41470  0.68010  Biso   1.000  O
  O6       1.0000 0.91089  0.28780  0.67840  Biso   1.000  O
  O7       1.0000 0.92964  0.04570  0.73110  Biso   1.000  O
  O8       1.0000 0.86936  0.92700  0.78410  Biso   1.000  O
  Zn5      1.0000 0.94680  0.86377  0.14179  Biso   1.000  Zn
  Zn6      1.0000 0.77180  0.91726  0.81424  Biso   1.000  Zn
  C31      1.0000 0.85170  0.84360  0.97680  Biso   1.000  C
  C32      1.0000 0.86850  0.72200  0.95740  Biso   1.000  C
  C33      1.0000 0.83010  0.62960  0.96590  Biso   1.000  C
  H17      1.0000 0.79140  0.64280  0.98210  Biso   1.000  H
  C34      1.0000 0.84720  0.51510  0.95090  Biso   1.000  C
  H18      1.0000 0.82000  0.45290  0.95710  Biso   1.000  H
  C35      1.0000 0.90330  0.49370  0.92740  Biso   1.000  C
  C36      1.0000 0.94070  0.58650  0.91560  Biso   1.000  C
  H19      1.0000 0.97850  0.57360  0.89760  Biso   1.000  H
  C37      1.0000 0.92300  0.70000  0.93020  Biso   1.000  C
  H20      1.0000 0.94900  0.76260  0.92120  Biso   1.000  H
  C38      1.0000 0.89730  0.27410  0.94120  Biso   1.000  C
  H21      1.0000 0.86250  0.26910  0.96560  Biso   1.000  H
  C39      1.0000 0.97140  0.33870  0.88190  Biso   1.000  C
  H22      1.0000 0.99610  0.38930  0.85870  Biso   1.000  H
  N17      1.0000 0.97990  0.22490  0.88590  Biso   1.000  N
  C40      1.0000 0.64430  0.81250  0.81050  Biso   1.000  C
  C41      1.0000 0.68570  0.72220  0.78390  Biso   1.000  C
  C42      1.0000 0.67710  0.60770  0.75920  Biso   1.000  C
  C43      1.0000 0.62310  0.52260  0.74900  Biso   1.000  C
  C44      1.0000 0.77380  0.66290  0.75010  Biso   1.000  C
  H23      1.0000 0.81570  0.66150  0.74060  Biso   1.000  H
  N18      1.0000 0.87230  0.89370  0.04650  Biso   1.000  N
  N19      1.0000 0.84230  0.00180  0.04150  Biso   1.000  N
  N20      1.0000 0.80550  0.01420  0.97190  Biso   1.000  N
  N21      1.0000 0.81090  0.91490  0.93010  Biso   1.000  N
  N22      1.0000 0.92230  0.37510  0.91540  Biso   1.000  N
  C45      1.0000 0.93350  0.18370  0.92370  Biso   1.000  C
  H24      1.0000 0.92790  0.10520  0.93550  Biso   1.000  H
  N23      1.0000 0.74809  0.75640  0.77760  Biso   1.000  N
  N24      1.0000 0.73261  0.57130  0.73750  Biso   1.000  N
  O9       1.0000 0.66954  0.91470  0.81990  Biso   1.000  O
  O10      1.0000 0.58911  0.78780  0.82160  Biso   1.000  O
  O11      1.0000 0.57036  0.54570  0.76890  Biso   1.000  O
  O12      1.0000 0.63064  0.42700  0.71590  Biso   1.000  O
  Zn7      1.0000 0.44680  0.36377  0.14179  Biso   1.000  Zn
  Zn8      1.0000 0.27180  0.41726  0.81424  Biso   1.000  Zn
  C46      1.0000 0.35170  0.34360  0.97680  Biso   1.000  C
  C47      1.0000 0.36850  0.22200  0.95740  Biso   1.000  C
  C48      1.0000 0.33010  0.12960  0.96590  Biso   1.000  C
  H25      1.0000 0.29140  0.14280  0.98210  Biso   1.000  H
  C49      1.0000 0.34720  0.01510  0.95090  Biso   1.000  C
  H26      1.0000 0.32000  0.95290  0.95710  Biso   1.000  H
  C50      1.0000 0.40330  0.99370  0.92740  Biso   1.000  C
  C51      1.0000 0.44070  0.08650  0.91560  Biso   1.000  C
  H27      1.0000 0.47850  0.07360  0.89760  Biso   1.000  H
  C52      1.0000 0.42300  0.20000  0.93020  Biso   1.000  C
  H28      1.0000 0.44900  0.26260  0.92120  Biso   1.000  H
  C53      1.0000 0.39730  0.77410  0.94120  Biso   1.000  C
  H29      1.0000 0.36250  0.76910  0.96560  Biso   1.000  H
  C54      1.0000 0.47140  0.83870  0.88190  Biso   1.000  C
  H30      1.0000 0.49610  0.88930  0.85870  Biso   1.000  H
  N25      1.0000 0.47990  0.72490  0.88590  Biso   1.000  N
  C55      1.0000 0.14430  0.31250  0.81050  Biso   1.000  C
  C56      1.0000 0.18570  0.22220  0.78390  Biso   1.000  C
  C57      1.0000 0.17710  0.10770  0.75920  Biso   1.000  C
  C58      1.0000 0.12310  0.02260  0.74900  Biso   1.000  C
  C59      1.0000 0.27380  0.16290  0.75010  Biso   1.000  C
  H31      1.0000 0.31570  0.16150  0.74060  Biso   1.000  H
  N26      1.0000 0.37230  0.39370  0.04650  Biso   1.000  N
  N27      1.0000 0.34230  0.50180  0.04150  Biso   1.000  N
  N28      1.0000 0.30550  0.51420  0.97190  Biso   1.000  N
  N29      1.0000 0.31090  0.41490  0.93010  Biso   1.000  N
  N30      1.0000 0.42230  0.87510  0.91540  Biso   1.000  N
  C60      1.0000 0.43350  0.68370  0.92370  Biso   1.000  C
  H32      1.0000 0.42790  0.60520  0.93550  Biso   1.000  H
  N31      1.0000 0.24809  0.25640  0.77760  Biso   1.000  N
  N32      1.0000 0.23261  0.07130  0.73750  Biso   1.000  N
  O13      1.0000 0.16954  0.41470  0.81990  Biso   1.000  O
  O14      1.0000 0.08911  0.28780  0.82160  Biso   1.000  O
  O15      1.0000 0.07036  0.04570  0.76890  Biso   1.000  O
  O16      1.0000 0.13064  0.92700  0.71590  Biso   1.000  O
  Zn9      1.0000 0.94680  0.13623  0.64179  Biso   1.000  Zn
  Zn10     1.0000 0.77180  0.08274  0.31424  Biso   1.000  Zn
  C61      1.0000 0.85170  0.15640  0.47680  Biso   1.000  C
  C62      1.0000 0.86850  0.27800  0.45740  Biso   1.000  C
  C63      1.0000 0.83010  0.37040  0.46590  Biso   1.000  C
  H33      1.0000 0.79140  0.35720  0.48210  Biso   1.000  H
  C64      1.0000 0.84720  0.48490  0.45090  Biso   1.000  C
  H34      1.0000 0.82000  0.54710  0.45710  Biso   1.000  H
  C65      1.0000 0.90330  0.50630  0.42740  Biso   1.000  C
  C66      1.0000 0.94070  0.41350  0.41560  Biso   1.000  C
  H35      1.0000 0.97850  0.42640  0.39760  Biso   1.000  H
  C67      1.0000 0.92300  0.30000  0.43020  Biso   1.000  C
  H36      1.0000 0.94900  0.23740  0.42120  Biso   1.000  H
  C68      1.0000 0.89730  0.72590  0.44120  Biso   1.000  C
  H37      1.0000 0.86250  0.73090  0.46560  Biso   1.000  H
  C69      1.0000 0.97140  0.66130  0.38190  Biso   1.000  C
  H38      1.0000 0.99610  0.61070  0.35870  Biso   1.000  H
  N33      1.0000 0.97990  0.77510  0.38590  Biso   1.000  N
  C70      1.0000 0.64430  0.18750  0.31050  Biso   1.000  C
  C71      1.0000 0.68570  0.27780  0.28390  Biso   1.000  C
  C72      1.0000 0.67710  0.39230  0.25920  Biso   1.000  C
  C73      1.0000 0.62310  0.47740  0.24900  Biso   1.000  C
  C74      1.0000 0.77380  0.33710  0.25010  Biso   1.000  C
  H39      1.0000 0.81570  0.33850  0.24060  Biso   1.000  H
  N34      1.0000 0.87230  0.10630  0.54650  Biso   1.000  N
  N35      1.0000 0.84230  0.99820  0.54150  Biso   1.000  N
  N36      1.0000 0.80550  0.98580  0.47190  Biso   1.000  N
  N37      1.0000 0.81090  0.08510  0.43010  Biso   1.000  N
  N38      1.0000 0.92230  0.62490  0.41540  Biso   1.000  N
  C75      1.0000 0.93350  0.81630  0.42370  Biso   1.000  C
  H40      1.0000 0.92790  0.89480  0.43550  Biso   1.000  H
  N39      1.0000 0.74809  0.24360  0.27760  Biso   1.000  N
  N40      1.0000 0.73261  0.42870  0.23750  Biso   1.000  N
  O17      1.0000 0.66954  0.08530  0.31990  Biso   1.000  O
  O18      1.0000 0.58911  0.21220  0.32160  Biso   1.000  O
  O19      1.0000 0.57036  0.45430  0.26890  Biso   1.000  O
  O20      1.0000 0.63064  0.57300  0.21590  Biso   1.000  O
  Zn11     1.0000 0.44680  0.63623  0.64179  Biso   1.000  Zn
  Zn12     1.0000 0.27180  0.58274  0.31424  Biso   1.000  Zn
  C76      1.0000 0.35170  0.65640  0.47680  Biso   1.000  C
  C77      1.0000 0.36850  0.77800  0.45740  Biso   1.000  C
  C78      1.0000 0.33010  0.87040  0.46590  Biso   1.000  C
  H41      1.0000 0.29140  0.85720  0.48210  Biso   1.000  H
  C79      1.0000 0.34720  0.98490  0.45090  Biso   1.000  C
  H42      1.0000 0.32000  0.04710  0.45710  Biso   1.000  H
  C80      1.0000 0.40330  0.00630  0.42740  Biso   1.000  C
  C81      1.0000 0.44070  0.91350  0.41560  Biso   1.000  C
  H43      1.0000 0.47850  0.92640  0.39760  Biso   1.000  H
  C82      1.0000 0.42300  0.80000  0.43020  Biso   1.000  C
  H44      1.0000 0.44900  0.73740  0.42120  Biso   1.000  H
  C83      1.0000 0.39730  0.22590  0.44120  Biso   1.000  C
  H45      1.0000 0.36250  0.23090  0.46560  Biso   1.000  H
  C84      1.0000 0.47140  0.16130  0.38190  Biso   1.000  C
  H46      1.0000 0.49610  0.11070  0.35870  Biso   1.000  H
  N41      1.0000 0.47990  0.27510  0.38590  Biso   1.000  N
  C85      1.0000 0.14430  0.68750  0.31050  Biso   1.000  C
  C86      1.0000 0.18570  0.77780  0.28390  Biso   1.000  C
  C87      1.0000 0.17710  0.89230  0.25920  Biso   1.000  C
  C88      1.0000 0.12310  0.97740  0.24900  Biso   1.000  C
  C89      1.0000 0.27380  0.83710  0.25010  Biso   1.000  C
  H47      1.0000 0.31570  0.83850  0.24060  Biso   1.000  H
  N42      1.0000 0.37230  0.60630  0.54650  Biso   1.000  N
  N43      1.0000 0.34230  0.49820  0.54150  Biso   1.000  N
  N44      1.0000 0.30550  0.48580  0.47190  Biso   1.000  N
  N45      1.0000 0.31090  0.58510  0.43010  Biso   1.000  N
  N46      1.0000 0.42230  0.12490  0.41540  Biso   1.000  N
  C90      1.0000 0.43350  0.31630  0.42370  Biso   1.000  C
  H48      1.0000 0.42790  0.39480  0.43550  Biso   1.000  H
  N47      1.0000 0.24809  0.74360  0.27760  Biso   1.000  N
  N48      1.0000 0.23261  0.92870  0.23750  Biso   1.000  N
  O21      1.0000 0.16954  0.58530  0.31990  Biso   1.000  O
  O22      1.0000 0.08911  0.71220  0.32160  Biso   1.000  O
  O23      1.0000 0.07036  0.95430  0.26890  Biso   1.000  O
  O24      1.0000 0.13064  0.07300  0.21590  Biso   1.000  O
  Zn13     1.0000 0.05320  0.13623  0.85821  Biso   1.000  Zn
  Zn14     1.0000 0.22820  0.08274  0.18576  Biso   1.000  Zn
  C91      1.0000 0.14830  0.15640  0.02320  Biso   1.000  C
  C92      1.0000 0.13150  0.27800  0.04260  Biso   1.000  C
  C93      1.0000 0.16990  0.37040  0.03410  Biso   1.000  C
  H49      1.0000 0.20860  0.35720  0.01790  Biso   1.000  H
  C94      1.0000 0.15280  0.48490  0.04910  Biso   1.000  C
  H50      1.0000 0.18000  0.54710  0.04290  Biso   1.000  H
  C95      1.0000 0.09670  0.50630  0.07260  Biso   1.000  C
  C96      1.0000 0.05930  0.41350  0.08440  Biso   1.000  C
  H51      1.0000 0.02150  0.42640  0.10240  Biso   1.000  H
  C97      1.0000 0.07700  0.30000  0.06980  Biso   1.000  C
  H52      1.0000 0.05100  0.23740  0.07880  Biso   1.000  H
  C98      1.0000 0.10270  0.72590  0.05880  Biso   1.000  C
  H53      1.0000 0.13750  0.73090  0.03440  Biso   1.000  H
  C99      1.0000 0.02860  0.66130  0.11810  Biso   1.000  C
  H54      1.0000 0.00390  0.61070  0.14130  Biso   1.000  H
  N49      1.0000 0.02010  0.77510  0.11410  Biso   1.000  N
  C100     1.0000 0.35570  0.18750  0.18950  Biso   1.000  C
  C101     1.0000 0.31430  0.27780  0.21610  Biso   1.000  C
  C102     1.0000 0.32290  0.39230  0.24080  Biso   1.000  C
  C103     1.0000 0.37690  0.47740  0.25100  Biso   1.000  C
  C104     1.0000 0.22620  0.33710  0.24990  Biso   1.000  C
  H55      1.0000 0.18430  0.33850  0.25940  Biso   1.000  H
  N50      1.0000 0.12770  0.10630  0.95350  Biso   1.000  N
  N51      1.0000 0.15770  0.99820  0.95850  Biso   1.000  N
  N52      1.0000 0.19450  0.98580  0.02810  Biso   1.000  N
  N53      1.0000 0.18910  0.08510  0.06990  Biso   1.000  N
  N54      1.0000 0.07770  0.62490  0.08460  Biso   1.000  N
  C105     1.0000 0.06650  0.81630  0.07630  Biso   1.000  C
  H56      1.0000 0.07210  0.89480  0.06450  Biso   1.000  H
  N55      1.0000 0.25191  0.24360  0.22240  Biso   1.000  N
  N56      1.0000 0.26739  0.42870  0.26250  Biso   1.000  N
  O25      1.0000 0.33046  0.08530  0.18010  Biso   1.000  O
  O26      1.0000 0.41089  0.21220  0.17840  Biso   1.000  O
  O27      1.0000 0.42964  0.45430  0.23110  Biso   1.000  O
  O28      1.0000 0.36936  0.57300  0.28410  Biso   1.000  O
  Zn15     1.0000 0.55320  0.63623  0.85821  Biso   1.000  Zn
  Zn16     1.0000 0.72820  0.58274  0.18576  Biso   1.000  Zn
  C106     1.0000 0.64830  0.65640  0.02320  Biso   1.000  C
  C107     1.0000 0.63150  0.77800  0.04260  Biso   1.000  C
  C108     1.0000 0.66990  0.87040  0.03410  Biso   1.000  C
  H57      1.0000 0.70860  0.85720  0.01790  Biso   1.000  H
  C109     1.0000 0.65280  0.98490  0.04910  Biso   1.000  C
  H58      1.0000 0.68000  0.04710  0.04290  Biso   1.000  H
  C110     1.0000 0.59670  0.00630  0.07260  Biso   1.000  C
  C111     1.0000 0.55930  0.91350  0.08440  Biso   1.000  C
  H59      1.0000 0.52150  0.92640  0.10240  Biso   1.000  H
  C112     1.0000 0.57700  0.80000  0.06980  Biso   1.000  C
  H60      1.0000 0.55100  0.73740  0.07880  Biso   1.000  H
  C113     1.0000 0.60270  0.22590  0.05880  Biso   1.000  C
  H61      1.0000 0.63750  0.23090  0.03440  Biso   1.000  H
  C114     1.0000 0.52860  0.16130  0.11810  Biso   1.000  C
  H62      1.0000 0.50390  0.11070  0.14130  Biso   1.000  H
  N57      1.0000 0.52010  0.27510  0.11410  Biso   1.000  N
  C115     1.0000 0.85570  0.68750  0.18950  Biso   1.000  C
  C116     1.0000 0.81430  0.77780  0.21610  Biso   1.000  C
  C117     1.0000 0.82290  0.89230  0.24080  Biso   1.000  C
  C118     1.0000 0.87690  0.97740  0.25100  Biso   1.000  C
  C119     1.0000 0.72620  0.83710  0.24990  Biso   1.000  C
  H63      1.0000 0.68430  0.83850  0.25940  Biso   1.000  H
  N58      1.0000 0.62770  0.60630  0.95350  Biso   1.000  N
  N59      1.0000 0.65770  0.49820  0.95850  Biso   1.000  N
  N60      1.0000 0.69450  0.48580  0.02810  Biso   1.000  N
  N61      1.0000 0.68910  0.58510  0.06990  Biso   1.000  N
  N62      1.0000 0.57770  0.12490  0.08460  Biso   1.000  N
  C120     1.0000 0.56650  0.31630  0.07630  Biso   1.000  C
  H64      1.0000 0.57210  0.39480  0.06450  Biso   1.000  H
  N63      1.0000 0.75191  0.74360  0.22240  Biso   1.000  N
  N64      1.0000 0.76739  0.92870  0.26250  Biso   1.000  N
  O29      1.0000 0.83046  0.58530  0.18010  Biso   1.000  O
  O30      1.0000 0.91089  0.71220  0.17840  Biso   1.000  O
  O31      1.0000 0.92964  0.95430  0.23110  Biso   1.000  O
  O32      1.0000 0.86936  0.07300  0.28410  Biso   1.000  O
