data_image0
_cell_length_a       22.7528
_cell_length_b       10.9039
_cell_length_c       11.5602
_cell_angle_alpha    90
_cell_angle_beta     112.208
_cell_angle_gamma    90

_symmetry_space_group_name_H-M    "P 1"
_symmetry_int_tables_number       1

loop_
  _symmetry_equiv_pos_as_xyz
  'x, y, z'

loop_
  _atom_site_label
  _atom_site_occupancy
  _atom_site_fract_x
  _atom_site_fract_y
  _atom_site_fract_z
  _atom_site_thermal_displace_type
  _atom_site_B_iso_or_equiv
  _atom_site_type_symbol
  Co1      1.0000 0.17943  0.08246  0.43709  Biso   1.000  Co
  N1       1.0000 0.24648  0.94757  0.54969  Biso   1.000  N
  N2       1.0000 0.11921  0.21836  0.30865  Biso   1.000  N
  O1       1.0000 0.25295  0.85345  0.89634  Biso   1.000  O
  O2       1.0000 0.30461  0.67953  0.89873  Biso   1.000  O
  O3       1.0000 0.35073  0.54548  0.71152  Biso   1.000  O
  O4       1.0000 0.42042  0.67802  0.83492  Biso   1.000  O
  C1       1.0000 0.28818  0.89415  0.50817  Biso   1.000  C
  H1       1.0000 0.29010  0.92180  0.43360  Biso   1.000  H
  C2       1.0000 0.32822  0.80015  0.57133  Biso   1.000  C
  H2       1.0000 0.35640  0.76600  0.53940  Biso   1.000  H
  C3       1.0000 0.32616  0.75688  0.68307  Biso   1.000  C
  C4       1.0000 0.36867  0.65154  0.74925  Biso   1.000  C
  C5       1.0000 0.28444  0.81417  0.72853  Biso   1.000  C
  C6       1.0000 0.27972  0.77880  0.85076  Biso   1.000  C
  C7       1.0000 0.24601  0.90837  0.65900  Biso   1.000  C
  H3       1.0000 0.21850  0.94620  0.69020  Biso   1.000  H
  C8       1.0000 0.07762  0.19330  0.19430  Biso   1.000  C
  H4       1.0000 0.07070  0.11130  0.17060  Biso   1.000  H
  C9       1.0000 0.04426  0.28060  0.10880  Biso   1.000  C
  H5       1.0000 0.01590  0.25710  0.03020  Biso   1.000  H
  C10      1.0000 0.12706  0.33580  0.33730  Biso   1.000  C
  H6       1.0000 0.15580  0.35720  0.41630  Biso   1.000  H
  C11      1.0000 0.09543  0.42870  0.25790  Biso   1.000  C
  H7       1.0000 0.10300  0.50960  0.28460  Biso   1.000  H
  C12      1.0000 0.05309  0.40380  0.14030  Biso   1.000  C
  C13      1.0000 0.02146  0.50550  0.05710  Biso   1.000  C
  H8       1.0000 0.03270  0.58460  0.08750  Biso   1.000  H
  Co2      1.0000 0.67943  0.58246  0.43709  Biso   1.000  Co
  N3       1.0000 0.74648  0.44757  0.54969  Biso   1.000  N
  N4       1.0000 0.61921  0.71836  0.30865  Biso   1.000  N
  O5       1.0000 0.75295  0.35345  0.89634  Biso   1.000  O
  O6       1.0000 0.80461  0.17953  0.89873  Biso   1.000  O
  O7       1.0000 0.85073  0.04548  0.71152  Biso   1.000  O
  O8       1.0000 0.92042  0.17802  0.83492  Biso   1.000  O
  C14      1.0000 0.78818  0.39415  0.50817  Biso   1.000  C
  H9       1.0000 0.79010  0.42180  0.43360  Biso   1.000  H
  C15      1.0000 0.82822  0.30015  0.57133  Biso   1.000  C
  H10      1.0000 0.85640  0.26600  0.53940  Biso   1.000  H
  C16      1.0000 0.82616  0.25688  0.68307  Biso   1.000  C
  C17      1.0000 0.86867  0.15154  0.74925  Biso   1.000  C
  C18      1.0000 0.78444  0.31417  0.72853  Biso   1.000  C
  C19      1.0000 0.77972  0.27880  0.85076  Biso   1.000  C
  C20      1.0000 0.74601  0.40837  0.65900  Biso   1.000  C
  H11      1.0000 0.71850  0.44620  0.69020  Biso   1.000  H
  C21      1.0000 0.57762  0.69330  0.19430  Biso   1.000  C
  H12      1.0000 0.57070  0.61130  0.17060  Biso   1.000  H
  C22      1.0000 0.54426  0.78060  0.10880  Biso   1.000  C
  H13      1.0000 0.51590  0.75710  0.03020  Biso   1.000  H
  C23      1.0000 0.62706  0.83580  0.33730  Biso   1.000  C
  H14      1.0000 0.65580  0.85720  0.41630  Biso   1.000  H
  C24      1.0000 0.59543  0.92870  0.25790  Biso   1.000  C
  H15      1.0000 0.60300  0.00960  0.28460  Biso   1.000  H
  C25      1.0000 0.55309  0.90380  0.14030  Biso   1.000  C
  C26      1.0000 0.52146  0.00550  0.05710  Biso   1.000  C
  H16      1.0000 0.53270  0.08460  0.08750  Biso   1.000  H
  Co3      1.0000 0.82057  0.08246  0.06291  Biso   1.000  Co
  N5       1.0000 0.75352  0.94757  0.95031  Biso   1.000  N
  N6       1.0000 0.88079  0.21836  0.19135  Biso   1.000  N
  O9       1.0000 0.74705  0.85345  0.60366  Biso   1.000  O
  O10      1.0000 0.69539  0.67953  0.60127  Biso   1.000  O
  O11      1.0000 0.64927  0.54548  0.78848  Biso   1.000  O
  O12      1.0000 0.57958  0.67802  0.66508  Biso   1.000  O
  C27      1.0000 0.71182  0.89415  0.99183  Biso   1.000  C
  H17      1.0000 0.70990  0.92180  0.06640  Biso   1.000  H
  C28      1.0000 0.67178  0.80015  0.92867  Biso   1.000  C
  H18      1.0000 0.64360  0.76600  0.96060  Biso   1.000  H
  C29      1.0000 0.67384  0.75688  0.81693  Biso   1.000  C
  C30      1.0000 0.63133  0.65154  0.75075  Biso   1.000  C
  C31      1.0000 0.71556  0.81417  0.77147  Biso   1.000  C
  C32      1.0000 0.72028  0.77880  0.64924  Biso   1.000  C
  C33      1.0000 0.75399  0.90837  0.84100  Biso   1.000  C
  H19      1.0000 0.78150  0.94620  0.80980  Biso   1.000  H
  C34      1.0000 0.92238  0.19330  0.30570  Biso   1.000  C
  H20      1.0000 0.92930  0.11130  0.32940  Biso   1.000  H
  C35      1.0000 0.95574  0.28060  0.39120  Biso   1.000  C
  H21      1.0000 0.98410  0.25710  0.46980  Biso   1.000  H
  C36      1.0000 0.87294  0.33580  0.16270  Biso   1.000  C
  H22      1.0000 0.84420  0.35720  0.08370  Biso   1.000  H
  C37      1.0000 0.90457  0.42870  0.24210  Biso   1.000  C
  H23      1.0000 0.89700  0.50960  0.21540  Biso   1.000  H
  C38      1.0000 0.94691  0.40380  0.35970  Biso   1.000  C
  C39      1.0000 0.97854  0.50550  0.44290  Biso   1.000  C
  H24      1.0000 0.96730  0.58460  0.41250  Biso   1.000  H
  Co4      1.0000 0.32057  0.58246  0.06291  Biso   1.000  Co
  N7       1.0000 0.25352  0.44757  0.95031  Biso   1.000  N
  N8       1.0000 0.38079  0.71836  0.19135  Biso   1.000  N
  O13      1.0000 0.24705  0.35345  0.60366  Biso   1.000  O
  O14      1.0000 0.19539  0.17953  0.60127  Biso   1.000  O
  O15      1.0000 0.14927  0.04548  0.78848  Biso   1.000  O
  O16      1.0000 0.07958  0.17802  0.66508  Biso   1.000  O
  C40      1.0000 0.21182  0.39415  0.99183  Biso   1.000  C
  H25      1.0000 0.20990  0.42180  0.06640  Biso   1.000  H
  C41      1.0000 0.17178  0.30015  0.92867  Biso   1.000  C
  H26      1.0000 0.14360  0.26600  0.96060  Biso   1.000  H
  C42      1.0000 0.17384  0.25688  0.81693  Biso   1.000  C
  C43      1.0000 0.13133  0.15154  0.75075  Biso   1.000  C
  C44      1.0000 0.21556  0.31417  0.77147  Biso   1.000  C
  C45      1.0000 0.22028  0.27880  0.64924  Biso   1.000  C
  C46      1.0000 0.25399  0.40837  0.84100  Biso   1.000  C
  H27      1.0000 0.28150  0.44620  0.80980  Biso   1.000  H
  C47      1.0000 0.42238  0.69330  0.30570  Biso   1.000  C
  H28      1.0000 0.42930  0.61130  0.32940  Biso   1.000  H
  C48      1.0000 0.45574  0.78060  0.39120  Biso   1.000  C
  H29      1.0000 0.48410  0.75710  0.46980  Biso   1.000  H
  C49      1.0000 0.37294  0.83580  0.16270  Biso   1.000  C
  H30      1.0000 0.34420  0.85720  0.08370  Biso   1.000  H
  C50      1.0000 0.40457  0.92870  0.24210  Biso   1.000  C
  H31      1.0000 0.39700  0.00960  0.21540  Biso   1.000  H
  C51      1.0000 0.44691  0.90380  0.35970  Biso   1.000  C
  C52      1.0000 0.47854  0.00550  0.44290  Biso   1.000  C
  H32      1.0000 0.46730  0.08460  0.41250  Biso   1.000  H
  Co5      1.0000 0.82057  0.91754  0.56291  Biso   1.000  Co
  N9       1.0000 0.75352  0.05243  0.45031  Biso   1.000  N
  N10      1.0000 0.88079  0.78164  0.69135  Biso   1.000  N
  O17      1.0000 0.74705  0.14655  0.10366  Biso   1.000  O
  O18      1.0000 0.69539  0.32047  0.10127  Biso   1.000  O
  O19      1.0000 0.64927  0.45452  0.28848  Biso   1.000  O
  O20      1.0000 0.57958  0.32198  0.16508  Biso   1.000  O
  C53      1.0000 0.71182  0.10585  0.49183  Biso   1.000  C
  H33      1.0000 0.70990  0.07820  0.56640  Biso   1.000  H
  C54      1.0000 0.67178  0.19985  0.42867  Biso   1.000  C
  H34      1.0000 0.64360  0.23400  0.46060  Biso   1.000  H
  C55      1.0000 0.67384  0.24312  0.31693  Biso   1.000  C
  C56      1.0000 0.63133  0.34846  0.25075  Biso   1.000  C
  C57      1.0000 0.71556  0.18583  0.27147  Biso   1.000  C
  C58      1.0000 0.72028  0.22120  0.14924  Biso   1.000  C
  C59      1.0000 0.75399  0.09163  0.34100  Biso   1.000  C
  H35      1.0000 0.78150  0.05380  0.30980  Biso   1.000  H
  C60      1.0000 0.92238  0.80670  0.80570  Biso   1.000  C
  H36      1.0000 0.92930  0.88870  0.82940  Biso   1.000  H
  C61      1.0000 0.95574  0.71940  0.89120  Biso   1.000  C
  H37      1.0000 0.98410  0.74290  0.96980  Biso   1.000  H
  C62      1.0000 0.87294  0.66420  0.66270  Biso   1.000  C
  H38      1.0000 0.84420  0.64280  0.58370  Biso   1.000  H
  C63      1.0000 0.90457  0.57130  0.74210  Biso   1.000  C
  H39      1.0000 0.89700  0.49040  0.71540  Biso   1.000  H
  C64      1.0000 0.94691  0.59620  0.85970  Biso   1.000  C
  C65      1.0000 0.97854  0.49450  0.94290  Biso   1.000  C
  H40      1.0000 0.96730  0.41540  0.91250  Biso   1.000  H
  Co6      1.0000 0.32057  0.41754  0.56291  Biso   1.000  Co
  N11      1.0000 0.25352  0.55243  0.45031  Biso   1.000  N
  N12      1.0000 0.38079  0.28164  0.69135  Biso   1.000  N
  O21      1.0000 0.24705  0.64655  0.10366  Biso   1.000  O
  O22      1.0000 0.19539  0.82047  0.10127  Biso   1.000  O
  O23      1.0000 0.14927  0.95452  0.28848  Biso   1.000  O
  O24      1.0000 0.07958  0.82198  0.16508  Biso   1.000  O
  C66      1.0000 0.21182  0.60585  0.49183  Biso   1.000  C
  H41      1.0000 0.20990  0.57820  0.56640  Biso   1.000  H
  C67      1.0000 0.17178  0.69985  0.42867  Biso   1.000  C
  H42      1.0000 0.14360  0.73400  0.46060  Biso   1.000  H
  C68      1.0000 0.17384  0.74312  0.31693  Biso   1.000  C
  C69      1.0000 0.13133  0.84846  0.25075  Biso   1.000  C
  C70      1.0000 0.21556  0.68583  0.27147  Biso   1.000  C
  C71      1.0000 0.22028  0.72120  0.14924  Biso   1.000  C
  C72      1.0000 0.25399  0.59163  0.34100  Biso   1.000  C
  H43      1.0000 0.28150  0.55380  0.30980  Biso   1.000  H
  C73      1.0000 0.42238  0.30670  0.80570  Biso   1.000  C
  H44      1.0000 0.42930  0.38870  0.82940  Biso   1.000  H
  C74      1.0000 0.45574  0.21940  0.89120  Biso   1.000  C
  H45      1.0000 0.48410  0.24290  0.96980  Biso   1.000  H
  C75      1.0000 0.37294  0.16420  0.66270  Biso   1.000  C
  H46      1.0000 0.34420  0.14280  0.58370  Biso   1.000  H
  C76      1.0000 0.40457  0.07130  0.74210  Biso   1.000  C
  H47      1.0000 0.39700  0.99040  0.71540  Biso   1.000  H
  C77      1.0000 0.44691  0.09620  0.85970  Biso   1.000  C
  C78      1.0000 0.47854  0.99450  0.94290  Biso   1.000  C
  H48      1.0000 0.46730  0.91540  0.91250  Biso   1.000  H
  Co7      1.0000 0.17943  0.91754  0.93709  Biso   1.000  Co
  N13      1.0000 0.24648  0.05243  0.04969  Biso   1.000  N
  N14      1.0000 0.11921  0.78164  0.80865  Biso   1.000  N
  O25      1.0000 0.25295  0.14655  0.39634  Biso   1.000  O
  O26      1.0000 0.30461  0.32047  0.39873  Biso   1.000  O
  O27      1.0000 0.35073  0.45452  0.21152  Biso   1.000  O
  O28      1.0000 0.42042  0.32198  0.33492  Biso   1.000  O
  C79      1.0000 0.28818  0.10585  0.00817  Biso   1.000  C
  H49      1.0000 0.29010  0.07820  0.93360  Biso   1.000  H
  C80      1.0000 0.32822  0.19985  0.07133  Biso   1.000  C
  H50      1.0000 0.35640  0.23400  0.03940  Biso   1.000  H
  C81      1.0000 0.32616  0.24312  0.18307  Biso   1.000  C
  C82      1.0000 0.36867  0.34846  0.24925  Biso   1.000  C
  C83      1.0000 0.28444  0.18583  0.22853  Biso   1.000  C
  C84      1.0000 0.27972  0.22120  0.35076  Biso   1.000  C
  C85      1.0000 0.24601  0.09163  0.15900  Biso   1.000  C
  H51      1.0000 0.21850  0.05380  0.19020  Biso   1.000  H
  C86      1.0000 0.07762  0.80670  0.69430  Biso   1.000  C
  H52      1.0000 0.07070  0.88870  0.67060  Biso   1.000  H
  C87      1.0000 0.04426  0.71940  0.60880  Biso   1.000  C
  H53      1.0000 0.01590  0.74290  0.53020  Biso   1.000  H
  C88      1.0000 0.12706  0.66420  0.83730  Biso   1.000  C
  H54      1.0000 0.15580  0.64280  0.91630  Biso   1.000  H
  C89      1.0000 0.09543  0.57130  0.75790  Biso   1.000  C
  H55      1.0000 0.10300  0.49040  0.78460  Biso   1.000  H
  C90      1.0000 0.05309  0.59620  0.64030  Biso   1.000  C
  C91      1.0000 0.02146  0.49450  0.55710  Biso   1.000  C
  H56      1.0000 0.03270  0.41540  0.58750  Biso   1.000  H
  Co8      1.0000 0.67943  0.41754  0.93709  Biso   1.000  Co
  N15      1.0000 0.74648  0.55243  0.04969  Biso   1.000  N
  N16      1.0000 0.61921  0.28164  0.80865  Biso   1.000  N
  O29      1.0000 0.75295  0.64655  0.39634  Biso   1.000  O
  O30      1.0000 0.80461  0.82047  0.39873  Biso   1.000  O
  O31      1.0000 0.85073  0.95452  0.21152  Biso   1.000  O
  O32      1.0000 0.92042  0.82198  0.33492  Biso   1.000  O
  C92      1.0000 0.78818  0.60585  0.00817  Biso   1.000  C
  H57      1.0000 0.79010  0.57820  0.93360  Biso   1.000  H
  C93      1.0000 0.82822  0.69985  0.07133  Biso   1.000  C
  H58      1.0000 0.85640  0.73400  0.03940  Biso   1.000  H
  C94      1.0000 0.82616  0.74312  0.18307  Biso   1.000  C
  C95      1.0000 0.86867  0.84846  0.24925  Biso   1.000  C
  C96      1.0000 0.78444  0.68583  0.22853  Biso   1.000  C
  C97      1.0000 0.77972  0.72120  0.35076  Biso   1.000  C
  C98      1.0000 0.74601  0.59163  0.15900  Biso   1.000  C
  H59      1.0000 0.71850  0.55380  0.19020  Biso   1.000  H
  C99      1.0000 0.57762  0.30670  0.69430  Biso   1.000  C
  H60      1.0000 0.57070  0.38870  0.67060  Biso   1.000  H
  C100     1.0000 0.54426  0.21940  0.60880  Biso   1.000  C
  H61      1.0000 0.51590  0.24290  0.53020  Biso   1.000  H
  C101     1.0000 0.62706  0.16420  0.83730  Biso   1.000  C
  H62      1.0000 0.65580  0.14280  0.91630  Biso   1.000  H
  C102     1.0000 0.59543  0.07130  0.75790  Biso   1.000  C
  H63      1.0000 0.60300  0.99040  0.78460  Biso   1.000  H
  C103     1.0000 0.55309  0.09620  0.64030  Biso   1.000  C
  C104     1.0000 0.52146  0.99450  0.55710  Biso   1.000  C
  H64      1.0000 0.53270  0.91540  0.58750  Biso   1.000  H
