data_VAJTUX_clean
_audit_creation_date              2014-07-02
_audit_creation_method            'Materials Studio'
_symmetry_space_group_name_H-M    'P1'
_symmetry_Int_Tables_number       1
_symmetry_cell_setting            triclinic
loop_
_symmetry_equiv_pos_as_xyz
  x,y,z
_cell_length_a                    8.5220
_cell_length_b                    10.1800
_cell_length_c                    17.5340
_cell_angle_alpha                 90.0000
_cell_angle_beta                  100.6270
_cell_angle_gamma                 90.0000
loop_
_atom_site_label
_atom_site_type_symbol
_atom_site_fract_x
_atom_site_fract_y
_atom_site_fract_z
_atom_site_U_iso_or_equiv
_atom_site_adp_type
_atom_site_occupancy
Cu1    Cu    0.01522   0.67292   0.09536   0.01267  Uiso   1.00
Cu2    Cu    0.48478   0.17292   0.40464   0.01267  Uiso   1.00
Cu3    Cu    0.98478   0.32708   0.90464   0.01267  Uiso   1.00
Cu4    Cu    0.51522   0.82708   0.59536   0.01267  Uiso   1.00
H1     H     0.43270   0.38640   0.03630   0.01267  Uiso   1.00
H2     H     0.49450   0.27780   0.15620   0.01267  Uiso   1.00
H3     H     0.16030   0.49700   0.22780   0.01267  Uiso   1.00
H4     H     0.72090   0.74240   0.14030   0.01267  Uiso   1.00
H5     H     0.49470   0.86780   0.10300   0.01267  Uiso   1.00
H6     H     0.69950   0.01050   0.93230   0.01267  Uiso   1.00
H7     H     0.91770   0.88300   0.97720   0.01267  Uiso   1.00
H8     H     0.06730   0.88640   0.46370   0.01267  Uiso   1.00
H9     H     0.00550   0.77780   0.34380   0.01267  Uiso   1.00
H10    H     0.33970   0.99700   0.27220   0.01267  Uiso   1.00
H11    H     0.77910   0.24240   0.35970   0.01267  Uiso   1.00
H12    H     0.00530   0.36780   0.39700   0.01267  Uiso   1.00
H13    H     0.80050   0.51050   0.56770   0.01267  Uiso   1.00
H14    H     0.58230   0.38300   0.52280   0.01267  Uiso   1.00
H15    H     0.56730   0.61360   0.96370   0.01267  Uiso   1.00
H16    H     0.50550   0.72220   0.84380   0.01267  Uiso   1.00
H17    H     0.83970   0.50300   0.77220   0.01267  Uiso   1.00
H18    H     0.27910   0.25760   0.85970   0.01267  Uiso   1.00
H19    H     0.50530   0.13220   0.89700   0.01267  Uiso   1.00
H20    H     0.30050   0.98950   0.06770   0.01267  Uiso   1.00
H21    H     0.08230   0.11700   0.02280   0.01267  Uiso   1.00
H22    H     0.93270   0.11360   0.53630   0.01267  Uiso   1.00
H23    H     0.99450   0.22220   0.65620   0.01267  Uiso   1.00
H24    H     0.66030   0.00300   0.72780   0.01267  Uiso   1.00
H25    H     0.22090   0.75760   0.64030   0.01267  Uiso   1.00
H26    H     0.99470   0.63220   0.60300   0.01267  Uiso   1.00
H27    H     0.19950   0.48950   0.43230   0.01267  Uiso   1.00
H28    H     0.41770   0.61700   0.47720   0.01267  Uiso   1.00
C1     C     0.26700   0.50460   0.06640   0.01267  Uiso   1.00
C2     C     0.38020   0.40840   0.07650   0.01267  Uiso   1.00
C3     C     0.41690   0.34310   0.14770   0.01267  Uiso   1.00
C4     C     0.33300   0.37920   0.20570   0.01267  Uiso   1.00
C5     C     0.36360   0.31660   0.28460   0.01267  Uiso   1.00
C6     C     0.21880   0.47530   0.18970   0.01267  Uiso   1.00
C7     C     0.71550   0.79730   0.09750   0.01267  Uiso   1.00
C8     C     0.57880   0.87330   0.07610   0.01267  Uiso   1.00
C9     C     0.57170   0.95790   0.01320   0.01267  Uiso   1.00
C10    C     0.70050   0.95760   0.97560   0.01267  Uiso   1.00
C11    C     0.83060   0.87890   0.00220   0.01267  Uiso   1.00
C12    C     0.23300   0.00460   0.43360   0.01267  Uiso   1.00
C13    C     0.11980   0.90840   0.42350   0.01267  Uiso   1.00
C14    C     0.08310   0.84310   0.35230   0.01267  Uiso   1.00
C15    C     0.16700   0.87920   0.29430   0.01267  Uiso   1.00
C16    C     0.13640   0.81660   0.21540   0.01267  Uiso   1.00
C17    C     0.28120   0.97530   0.31030   0.01267  Uiso   1.00
C18    C     0.78450   0.29730   0.40250   0.01267  Uiso   1.00
C19    C     0.92120   0.37330   0.42390   0.01267  Uiso   1.00
C20    C     0.92830   0.45790   0.48680   0.01267  Uiso   1.00
C21    C     0.79950   0.45760   0.52440   0.01267  Uiso   1.00
C22    C     0.66940   0.37890   0.49780   0.01267  Uiso   1.00
C23    C     0.73300   0.49540   0.93360   0.01267  Uiso   1.00
C24    C     0.61980   0.59160   0.92350   0.01267  Uiso   1.00
C25    C     0.58310   0.65690   0.85230   0.01267  Uiso   1.00
C26    C     0.66700   0.62080   0.79430   0.01267  Uiso   1.00
C27    C     0.63640   0.68340   0.71540   0.01267  Uiso   1.00
C28    C     0.78120   0.52470   0.81030   0.01267  Uiso   1.00
C29    C     0.28450   0.20270   0.90250   0.01267  Uiso   1.00
C30    C     0.42120   0.12670   0.92390   0.01267  Uiso   1.00
C31    C     0.42830   0.04210   0.98680   0.01267  Uiso   1.00
C32    C     0.29950   0.04240   0.02440   0.01267  Uiso   1.00
C33    C     0.16940   0.12110   0.99780   0.01267  Uiso   1.00
C34    C     0.76700   0.99540   0.56640   0.01267  Uiso   1.00
C35    C     0.88020   0.09160   0.57650   0.01267  Uiso   1.00
C36    C     0.91690   0.15690   0.64770   0.01267  Uiso   1.00
C37    C     0.83300   0.12080   0.70570   0.01267  Uiso   1.00
C38    C     0.86360   0.18340   0.78460   0.01267  Uiso   1.00
C39    C     0.71880   0.02470   0.68970   0.01267  Uiso   1.00
C40    C     0.21550   0.70270   0.59750   0.01267  Uiso   1.00
C41    C     0.07880   0.62670   0.57610   0.01267  Uiso   1.00
C42    C     0.07170   0.54210   0.51320   0.01267  Uiso   1.00
C43    C     0.20050   0.54240   0.47560   0.01267  Uiso   1.00
C44    C     0.33060   0.62110   0.50220   0.01267  Uiso   1.00
S1     S     0.21640   0.59668   0.97645   0.01267  Uiso   1.00
S2     S     0.28360   0.09668   0.52355   0.01267  Uiso   1.00
S3     S     0.78360   0.40332   0.02355   0.01267  Uiso   1.00
S4     S     0.71640   0.90332   0.47645   0.01267  Uiso   1.00
N1     N     0.83720   0.79810   0.06150   0.01267  Uiso   1.00
N2     N     0.18770   0.53950   0.12190   0.01267  Uiso   1.00
N3     N     0.66280   0.29810   0.43850   0.01267  Uiso   1.00
N4     N     0.31230   0.03950   0.37810   0.01267  Uiso   1.00
N5     N     0.16280   0.20190   0.93850   0.01267  Uiso   1.00
N6     N     0.81230   0.46050   0.87810   0.01267  Uiso   1.00
N7     N     0.33720   0.70190   0.56150   0.01267  Uiso   1.00
N8     N     0.68770   0.96050   0.62190   0.01267  Uiso   1.00
O1     O     0.46970   0.22480   0.29530   0.01267  Uiso   1.00
O2     O     0.29080   0.35350   0.33450   0.01267  Uiso   1.00
O3     O     0.17740   0.49190   0.91680   0.01267  Uiso   1.00
O4     O     0.06660   0.66550   0.99020   0.01267  Uiso   1.00
O5     O     0.03030   0.72480   0.20470   0.01267  Uiso   1.00
O6     O     0.20920   0.85350   0.16550   0.01267  Uiso   1.00
O7     O     0.32260   0.99190   0.58320   0.01267  Uiso   1.00
O8     O     0.43340   0.16550   0.50980   0.01267  Uiso   1.00
O9     O     0.53030   0.77520   0.70470   0.01267  Uiso   1.00
O10    O     0.70920   0.64650   0.66550   0.01267  Uiso   1.00
O11    O     0.82260   0.50810   0.08320   0.01267  Uiso   1.00
O12    O     0.93340   0.33450   0.00980   0.01267  Uiso   1.00
O13    O     0.96970   0.27520   0.79530   0.01267  Uiso   1.00
O14    O     0.79080   0.14650   0.83450   0.01267  Uiso   1.00
O15    O     0.67740   0.00810   0.41680   0.01267  Uiso   1.00
O16    O     0.56660   0.83450   0.49020   0.01267  Uiso   1.00
