data_VAKBIU_clean
_audit_creation_date              2014-07-02
_audit_creation_method            'Materials Studio'
_symmetry_space_group_name_H-M    'P1'
_symmetry_Int_Tables_number       1
_symmetry_cell_setting            triclinic
loop_
_symmetry_equiv_pos_as_xyz
  x,y,z
_cell_length_a                    10.0160
_cell_length_b                    21.9340
_cell_length_c                    21.9340
_cell_angle_alpha                 87.0118
_cell_angle_beta                  76.8018
_cell_angle_gamma                 76.8017
loop_
_atom_site_label
_atom_site_type_symbol
_atom_site_fract_x
_atom_site_fract_y
_atom_site_fract_z
_atom_site_U_iso_or_equiv
_atom_site_adp_type
_atom_site_occupancy
Mn1    Mn    0.97595   0.56637   0.52863   0.01267  Uiso   1.00
Mn2    Mn    0.57095   0.93363   0.97138   0.01267  Uiso   1.00
Mn3    Mn    0.50458   0.47138   0.06636   0.01267  Uiso   1.00
Mn4    Mn    0.54233   0.02862   0.43363   0.01267  Uiso   1.00
Mn5    Mn    0.02405   0.43363   0.47137   0.01267  Uiso   1.00
Mn6    Mn    0.42905   0.06637   0.02862   0.01267  Uiso   1.00
Mn7    Mn    0.49542   0.52862   0.93364   0.01267  Uiso   1.00
Mn8    Mn    0.45768   0.97138   0.56636   0.01267  Uiso   1.00
H1     H     0.24370   0.65690   0.26290   0.01267  Uiso   1.00
H2     H     0.28660   0.70810   0.29950   0.01267  Uiso   1.00
H3     H     0.39010   0.64080   0.28440   0.01267  Uiso   1.00
H4     H     0.44070   0.68520   0.36380   0.01267  Uiso   1.00
H5     H     0.51910   0.69430   0.45510   0.01267  Uiso   1.00
H6     H     0.40170   0.66220   0.54980   0.01267  Uiso   1.00
H7     H     0.21320   0.62680   0.61200   0.01267  Uiso   1.00
H8     H     0.87140   0.61710   0.76410   0.01267  Uiso   1.00
H9     H     0.73110   0.60270   0.86070   0.01267  Uiso   1.00
H10    H     0.60900   0.46670   0.79550   0.01267  Uiso   1.00
H11    H     0.74030   0.47870   0.69610   0.01267  Uiso   1.00
H12    H     0.71850   0.51370   0.45670   0.01267  Uiso   1.00
H13    H     0.70220   0.52430   0.52990   0.01267  Uiso   1.00
H14    H     0.70120   0.58250   0.48290   0.01267  Uiso   1.00
H15    H     0.66350   0.84310   0.23710   0.01267  Uiso   1.00
H16    H     0.79420   0.79190   0.20050   0.01267  Uiso   1.00
H17    H     0.81530   0.85920   0.21560   0.01267  Uiso   1.00
H18    H     0.98970   0.81480   0.13620   0.01267  Uiso   1.00
H19    H     0.16850   0.80570   0.04490   0.01267  Uiso   1.00
H20    H     0.11370   0.83780   0.95020   0.01267  Uiso   1.00
H21    H     0.95200   0.87320   0.88800   0.01267  Uiso   1.00
H22    H     0.75260   0.88290   0.73590   0.01267  Uiso   1.00
H23    H     0.69450   0.89730   0.63930   0.01267  Uiso   1.00
H24    H     0.37120   0.03330   0.70450   0.01267  Uiso   1.00
H25    H     0.41510   0.02130   0.80390   0.01267  Uiso   1.00
H26    H     0.18890   0.98630   0.04330   0.01267  Uiso   1.00
H27    H     0.25640   0.97570   0.97010   0.01267  Uiso   1.00
H28    H     0.26660   0.91750   0.01710   0.01267  Uiso   1.00
H29    H     0.50660   0.73710   0.15690   0.01267  Uiso   1.00
H30    H     0.58610   0.70050   0.20810   0.01267  Uiso   1.00
H31    H     0.67450   0.71560   0.14080   0.01267  Uiso   1.00
H32    H     0.80450   0.63620   0.18520   0.01267  Uiso   1.00
H33    H     0.97420   0.54490   0.19430   0.01267  Uiso   1.00
H34    H     0.95150   0.45020   0.16220   0.01267  Uiso   1.00
H35    H     0.82520   0.38800   0.12680   0.01267  Uiso   1.00
H36    H     0.63550   0.23590   0.11710   0.01267  Uiso   1.00
H37    H     0.59180   0.13930   0.10270   0.01267  Uiso   1.00
H38    H     0.40450   0.20450   0.96670   0.01267  Uiso   1.00
H39    H     0.43640   0.30390   0.97870   0.01267  Uiso   1.00
H40    H     0.17520   0.54330   0.01370   0.01267  Uiso   1.00
H41    H     0.23210   0.47010   0.02430   0.01267  Uiso   1.00
H42    H     0.18410   0.51710   0.08250   0.01267  Uiso   1.00
H43    H     0.90060   0.76290   0.34310   0.01267  Uiso   1.00
H44    H     0.99470   0.79950   0.29190   0.01267  Uiso   1.00
H45    H     0.03090   0.78440   0.35920   0.01267  Uiso   1.00
H46    H     0.12590   0.86380   0.31480   0.01267  Uiso   1.00
H47    H     0.21340   0.95510   0.30570   0.01267  Uiso   1.00
H48    H     0.06390   0.04980   0.33780   0.01267  Uiso   1.00
H49    H     0.84000   0.11200   0.37320   0.01267  Uiso   1.00
H50    H     0.48850   0.26410   0.38290   0.01267  Uiso   1.00
H51    H     0.33380   0.36070   0.39730   0.01267  Uiso   1.00
H52    H     0.07570   0.29550   0.53330   0.01267  Uiso   1.00
H53    H     0.21900   0.19610   0.52130   0.01267  Uiso   1.00
H54    H     0.23220   0.95670   0.48630   0.01267  Uiso   1.00
H55    H     0.22650   0.02990   0.47570   0.01267  Uiso   1.00
H56    H     0.28370   0.98290   0.41750   0.01267  Uiso   1.00
H57    H     0.75630   0.34310   0.73710   0.01267  Uiso   1.00
H58    H     0.71340   0.29190   0.70050   0.01267  Uiso   1.00
H59    H     0.60990   0.35920   0.71560   0.01267  Uiso   1.00
H60    H     0.55930   0.31480   0.63620   0.01267  Uiso   1.00
H61    H     0.48090   0.30570   0.54490   0.01267  Uiso   1.00
H62    H     0.59830   0.33780   0.45020   0.01267  Uiso   1.00
H63    H     0.78680   0.37320   0.38800   0.01267  Uiso   1.00
H64    H     0.12860   0.38290   0.23590   0.01267  Uiso   1.00
H65    H     0.26890   0.39730   0.13930   0.01267  Uiso   1.00
H66    H     0.39100   0.53330   0.20450   0.01267  Uiso   1.00
H67    H     0.25970   0.52130   0.30390   0.01267  Uiso   1.00
H68    H     0.28150   0.48630   0.54330   0.01267  Uiso   1.00
H69    H     0.29780   0.47570   0.47010   0.01267  Uiso   1.00
H70    H     0.29880   0.41750   0.51710   0.01267  Uiso   1.00
H71    H     0.33650   0.15690   0.76290   0.01267  Uiso   1.00
H72    H     0.20580   0.20810   0.79950   0.01267  Uiso   1.00
H73    H     0.18470   0.14080   0.78440   0.01267  Uiso   1.00
H74    H     0.01030   0.18520   0.86380   0.01267  Uiso   1.00
H75    H     0.83150   0.19430   0.95510   0.01267  Uiso   1.00
H76    H     0.88630   0.16220   0.04980   0.01267  Uiso   1.00
H77    H     0.04800   0.12680   0.11200   0.01267  Uiso   1.00
H78    H     0.24740   0.11710   0.26410   0.01267  Uiso   1.00
H79    H     0.30550   0.10270   0.36070   0.01267  Uiso   1.00
H80    H     0.62880   0.96670   0.29550   0.01267  Uiso   1.00
H81    H     0.58490   0.97870   0.19610   0.01267  Uiso   1.00
H82    H     0.81110   0.01370   0.95670   0.01267  Uiso   1.00
H83    H     0.74360   0.02430   0.02990   0.01267  Uiso   1.00
H84    H     0.73340   0.08250   0.98290   0.01267  Uiso   1.00
H85    H     0.49340   0.26290   0.84310   0.01267  Uiso   1.00
H86    H     0.41390   0.29950   0.79190   0.01267  Uiso   1.00
H87    H     0.32550   0.28440   0.85920   0.01267  Uiso   1.00
H88    H     0.19550   0.36380   0.81480   0.01267  Uiso   1.00
H89    H     0.02580   0.45510   0.80570   0.01267  Uiso   1.00
H90    H     0.04850   0.54980   0.83780   0.01267  Uiso   1.00
H91    H     0.17480   0.61200   0.87320   0.01267  Uiso   1.00
H92    H     0.36450   0.76410   0.88290   0.01267  Uiso   1.00
H93    H     0.40820   0.86070   0.89730   0.01267  Uiso   1.00
H94    H     0.59550   0.79550   0.03330   0.01267  Uiso   1.00
H95    H     0.56360   0.69610   0.02130   0.01267  Uiso   1.00
H96    H     0.82480   0.45670   0.98630   0.01267  Uiso   1.00
H97    H     0.76790   0.52990   0.97570   0.01267  Uiso   1.00
H98    H     0.81590   0.48290   0.91750   0.01267  Uiso   1.00
H99    H     0.09940   0.23710   0.65690   0.01267  Uiso   1.00
H100   H     0.00530   0.20050   0.70810   0.01267  Uiso   1.00
H101   H     0.96910   0.21560   0.64080   0.01267  Uiso   1.00
H102   H     0.87410   0.13620   0.68520   0.01267  Uiso   1.00
H103   H     0.78660   0.04490   0.69430   0.01267  Uiso   1.00
H104   H     0.93610   0.95020   0.66220   0.01267  Uiso   1.00
H105   H     0.16000   0.88800   0.62680   0.01267  Uiso   1.00
H106   H     0.51150   0.73590   0.61710   0.01267  Uiso   1.00
H107   H     0.66620   0.63930   0.60270   0.01267  Uiso   1.00
H108   H     0.92430   0.70450   0.46670   0.01267  Uiso   1.00
H109   H     0.78100   0.80390   0.47870   0.01267  Uiso   1.00
H110   H     0.76780   0.04330   0.51370   0.01267  Uiso   1.00
H111   H     0.77350   0.97010   0.52430   0.01267  Uiso   1.00
H112   H     0.71630   0.01710   0.58250   0.01267  Uiso   1.00
C1     C     0.29140   0.66338   0.29562   0.01267  Uiso   1.00
C2     C     0.27725   0.64715   0.40475   0.01267  Uiso   1.00
C3     C     0.39215   0.67179   0.40271   0.01267  Uiso   1.00
C4     C     0.43895   0.67735   0.45715   0.01267  Uiso   1.00
C5     C     0.36973   0.65847   0.51287   0.01267  Uiso   1.00
C6     C     0.25024   0.63332   0.51640   0.01267  Uiso   1.00
C7     C     0.20381   0.62540   0.46238   0.01267  Uiso   1.00
C8     C     0.17772   0.61864   0.57732   0.01267  Uiso   1.00
C9     C     0.90131   0.56114   0.65564   0.01267  Uiso   1.00
C10    C     0.81904   0.55039   0.71913   0.01267  Uiso   1.00
C11    C     0.81656   0.58634   0.76914   0.01267  Uiso   1.00
C12    C     0.73326   0.57715   0.82673   0.01267  Uiso   1.00
C13    C     0.66169   0.49835   0.78867   0.01267  Uiso   1.00
C14    C     0.74015   0.50480   0.72930   0.01267  Uiso   1.00
C15    C     0.74140   0.53791   0.48769   0.01267  Uiso   1.00
C16    C     0.75040   0.83662   0.20438   0.01267  Uiso   1.00
C17    C     0.82915   0.85285   0.09525   0.01267  Uiso   1.00
C18    C     0.96665   0.82821   0.09729   0.01267  Uiso   1.00
C19    C     0.07345   0.82265   0.04285   0.01267  Uiso   1.00
C20    C     0.04107   0.84153   0.98713   0.01267  Uiso   1.00
C21    C     0.89996   0.86668   0.98360   0.01267  Uiso   1.00
C22    C     0.79159   0.87460   0.03762   0.01267  Uiso   1.00
C23    C     0.87368   0.88136   0.92268   0.01267  Uiso   1.00
C24    C     0.61809   0.93886   0.84436   0.01267  Uiso   1.00
C25    C     0.58856   0.94961   0.78087   0.01267  Uiso   1.00
C26    C     0.67204   0.91366   0.73086   0.01267  Uiso   1.00
C27    C     0.63714   0.92285   0.67327   0.01267  Uiso   1.00
C28    C     0.44871   0.00165   0.71133   0.01267  Uiso   1.00
C29    C     0.47425   0.99520   0.77070   0.01267  Uiso   1.00
C30    C     0.26700   0.96209   0.01231   0.01267  Uiso   1.00
C31    C     0.58702   0.70438   0.16338   0.01267  Uiso   1.00
C32    C     0.68200   0.59525   0.14715   0.01267  Uiso   1.00
C33    C     0.79486   0.59729   0.17179   0.01267  Uiso   1.00
C34    C     0.89610   0.54285   0.17735   0.01267  Uiso   1.00
C35    C     0.88260   0.48713   0.15847   0.01267  Uiso   1.00
C36    C     0.76664   0.48360   0.13332   0.01267  Uiso   1.00
C37    C     0.66619   0.53762   0.12540   0.01267  Uiso   1.00
C38    C     0.75504   0.42268   0.11864   0.01267  Uiso   1.00
C39    C     0.55695   0.34436   0.06114   0.01267  Uiso   1.00
C40    C     0.53817   0.28087   0.05039   0.01267  Uiso   1.00
C41    C     0.58570   0.23086   0.08634   0.01267  Uiso   1.00
C42    C     0.55999   0.17327   0.07715   0.01267  Uiso   1.00
C43    C     0.45036   0.21133   0.99835   0.01267  Uiso   1.00
C44    C     0.46945   0.27070   0.00480   0.01267  Uiso   1.00
C45    C     0.22909   0.51231   0.03791   0.01267  Uiso   1.00
C46    C     0.95478   0.79562   0.33662   0.01267  Uiso   1.00
C47    C     0.92440   0.90475   0.35285   0.01267  Uiso   1.00
C48    C     0.06394   0.90271   0.32821   0.01267  Uiso   1.00
C49    C     0.11630   0.95715   0.32265   0.01267  Uiso   1.00
C50    C     0.02820   0.01287   0.34153   0.01267  Uiso   1.00
C51    C     0.88356   0.01640   0.36668   0.01267  Uiso   1.00
C52    C     0.82921   0.96238   0.37460   0.01267  Uiso   1.00
C53    C     0.79636   0.07732   0.38136   0.01267  Uiso   1.00
C54    C     0.46245   0.15564   0.43886   0.01267  Uiso   1.00
C55    C     0.36943   0.21913   0.44961   0.01267  Uiso   1.00
C56    C     0.40290   0.26914   0.41366   0.01267  Uiso   1.00
C57    C     0.31041   0.32673   0.42285   0.01267  Uiso   1.00
C58    C     0.16004   0.28867   0.50165   0.01267  Uiso   1.00
C59    C     0.24495   0.22930   0.49520   0.01267  Uiso   1.00
C60    C     0.27931   0.98769   0.46209   0.01267  Uiso   1.00
C61    C     0.70860   0.33662   0.70438   0.01267  Uiso   1.00
C62    C     0.72275   0.35285   0.59525   0.01267  Uiso   1.00
C63    C     0.60785   0.32821   0.59729   0.01267  Uiso   1.00
C64    C     0.56105   0.32265   0.54285   0.01267  Uiso   1.00
C65    C     0.63027   0.34153   0.48713   0.01267  Uiso   1.00
C66    C     0.74976   0.36668   0.48360   0.01267  Uiso   1.00
C67    C     0.79619   0.37460   0.53762   0.01267  Uiso   1.00
C68    C     0.82228   0.38136   0.42268   0.01267  Uiso   1.00
C69    C     0.09869   0.43886   0.34436   0.01267  Uiso   1.00
C70    C     0.18096   0.44961   0.28087   0.01267  Uiso   1.00
C71    C     0.18344   0.41366   0.23086   0.01267  Uiso   1.00
C72    C     0.26674   0.42285   0.17327   0.01267  Uiso   1.00
C73    C     0.33831   0.50165   0.21133   0.01267  Uiso   1.00
C74    C     0.25985   0.49520   0.27070   0.01267  Uiso   1.00
C75    C     0.25860   0.46209   0.51231   0.01267  Uiso   1.00
C76    C     0.24960   0.16338   0.79562   0.01267  Uiso   1.00
C77    C     0.17085   0.14715   0.90475   0.01267  Uiso   1.00
C78    C     0.03335   0.17179   0.90271   0.01267  Uiso   1.00
C79    C     0.92655   0.17735   0.95715   0.01267  Uiso   1.00
C80    C     0.95893   0.15847   0.01287   0.01267  Uiso   1.00
C81    C     0.10004   0.13332   0.01640   0.01267  Uiso   1.00
C82    C     0.20841   0.12540   0.96238   0.01267  Uiso   1.00
C83    C     0.12632   0.11864   0.07732   0.01267  Uiso   1.00
C84    C     0.38191   0.06114   0.15564   0.01267  Uiso   1.00
C85    C     0.41144   0.05039   0.21913   0.01267  Uiso   1.00
C86    C     0.32796   0.08634   0.26914   0.01267  Uiso   1.00
C87    C     0.36286   0.07715   0.32673   0.01267  Uiso   1.00
C88    C     0.55129   0.99835   0.28867   0.01267  Uiso   1.00
C89    C     0.52575   0.00480   0.22930   0.01267  Uiso   1.00
C90    C     0.73300   0.03791   0.98769   0.01267  Uiso   1.00
C91    C     0.41298   0.29562   0.83662   0.01267  Uiso   1.00
C92    C     0.31800   0.40475   0.85285   0.01267  Uiso   1.00
C93    C     0.20514   0.40271   0.82821   0.01267  Uiso   1.00
C94    C     0.10390   0.45715   0.82265   0.01267  Uiso   1.00
C95    C     0.11740   0.51287   0.84153   0.01267  Uiso   1.00
C96    C     0.23336   0.51640   0.86668   0.01267  Uiso   1.00
C97    C     0.33381   0.46238   0.87460   0.01267  Uiso   1.00
C98    C     0.24496   0.57732   0.88136   0.01267  Uiso   1.00
C99    C     0.44305   0.65564   0.93886   0.01267  Uiso   1.00
C100   C     0.46183   0.71913   0.94961   0.01267  Uiso   1.00
C101   C     0.41430   0.76914   0.91366   0.01267  Uiso   1.00
C102   C     0.44001   0.82673   0.92285   0.01267  Uiso   1.00
C103   C     0.54964   0.78867   0.00165   0.01267  Uiso   1.00
C104   C     0.53055   0.72930   0.99520   0.01267  Uiso   1.00
C105   C     0.77091   0.48769   0.96209   0.01267  Uiso   1.00
C106   C     0.04522   0.20438   0.66338   0.01267  Uiso   1.00
C107   C     0.07560   0.09525   0.64715   0.01267  Uiso   1.00
C108   C     0.93606   0.09729   0.67179   0.01267  Uiso   1.00
C109   C     0.88370   0.04285   0.67735   0.01267  Uiso   1.00
C110   C     0.97180   0.98713   0.65847   0.01267  Uiso   1.00
C111   C     0.11644   0.98360   0.63332   0.01267  Uiso   1.00
C112   C     0.17079   0.03762   0.62540   0.01267  Uiso   1.00
C113   C     0.20364   0.92268   0.61864   0.01267  Uiso   1.00
C114   C     0.53755   0.84436   0.56114   0.01267  Uiso   1.00
C115   C     0.63057   0.78087   0.55039   0.01267  Uiso   1.00
C116   C     0.59710   0.73086   0.58634   0.01267  Uiso   1.00
C117   C     0.68959   0.67327   0.57715   0.01267  Uiso   1.00
C118   C     0.83996   0.71133   0.49835   0.01267  Uiso   1.00
C119   C     0.75505   0.77070   0.50480   0.01267  Uiso   1.00
C120   C     0.72069   0.01231   0.53791   0.01267  Uiso   1.00
N1     N     0.06796   0.59531   0.58877   0.01267  Uiso   1.00
N2     N     0.00677   0.58692   0.65254   0.01267  Uiso   1.00
N3     N     0.65545   0.53407   0.83723   0.01267  Uiso   1.00
N4     N     0.75204   0.90469   0.91123   0.01267  Uiso   1.00
N5     N     0.74623   0.91308   0.84746   0.01267  Uiso   1.00
N6     N     0.52675   0.96593   0.66277   0.01267  Uiso   1.00
N7     N     0.65673   0.41123   0.09531   0.01267  Uiso   1.00
N8     N     0.65931   0.34746   0.08692   0.01267  Uiso   1.00
N9     N     0.49268   0.16277   0.03407   0.01267  Uiso   1.00
N10    N     0.66327   0.08877   0.40469   0.01267  Uiso   1.00
N11    N     0.59369   0.15254   0.41308   0.01267  Uiso   1.00
N12    N     0.18952   0.33723   0.46593   0.01267  Uiso   1.00
N13    N     0.93204   0.40469   0.41123   0.01267  Uiso   1.00
N14    N     0.99323   0.41308   0.34746   0.01267  Uiso   1.00
N15    N     0.34455   0.46593   0.16277   0.01267  Uiso   1.00
N16    N     0.24796   0.09531   0.08877   0.01267  Uiso   1.00
N17    N     0.25377   0.08692   0.15254   0.01267  Uiso   1.00
N18    N     0.47325   0.03407   0.33723   0.01267  Uiso   1.00
N19    N     0.34327   0.58877   0.90469   0.01267  Uiso   1.00
N20    N     0.34069   0.65254   0.91308   0.01267  Uiso   1.00
N21    N     0.50732   0.83723   0.96593   0.01267  Uiso   1.00
N22    N     0.33673   0.91123   0.59531   0.01267  Uiso   1.00
N23    N     0.40631   0.84746   0.58692   0.01267  Uiso   1.00
N24    N     0.81048   0.66277   0.53407   0.01267  Uiso   1.00
O1     O     0.22429   0.64020   0.35382   0.01267  Uiso   1.00
O2     O     0.09608   0.60035   0.46169   0.01267  Uiso   1.00
O3     O     0.86171   0.54441   0.60757   0.01267  Uiso   1.00
O4     O     0.88861   0.52811   0.47847   0.01267  Uiso   1.00
O5     O     0.71831   0.85980   0.14618   0.01267  Uiso   1.00
O6     O     0.65812   0.89965   0.03831   0.01267  Uiso   1.00
O7     O     0.51369   0.95559   0.89243   0.01267  Uiso   1.00
O8     O     0.39519   0.97189   0.02153   0.01267  Uiso   1.00
O9     O     0.57811   0.64618   0.14020   0.01267  Uiso   1.00
O10    O     0.55777   0.53831   0.10035   0.01267  Uiso   1.00
O11    O     0.46928   0.39243   0.04441   0.01267  Uiso   1.00
O12    O     0.36708   0.52153   0.02811   0.01267  Uiso   1.00
O13    O     0.86449   0.85382   0.35980   0.01267  Uiso   1.00
O14    O     0.69643   0.96169   0.39965   0.01267  Uiso   1.00
O15    O     0.40612   0.10757   0.45559   0.01267  Uiso   1.00
O16    O     0.41672   0.97847   0.47189   0.01267  Uiso   1.00
O17    O     0.77571   0.35980   0.64618   0.01267  Uiso   1.00
O18    O     0.90392   0.39965   0.53831   0.01267  Uiso   1.00
O19    O     0.13829   0.45559   0.39243   0.01267  Uiso   1.00
O20    O     0.11139   0.47189   0.52153   0.01267  Uiso   1.00
O21    O     0.28169   0.14020   0.85382   0.01267  Uiso   1.00
O22    O     0.34188   0.10035   0.96169   0.01267  Uiso   1.00
O23    O     0.48631   0.04441   0.10757   0.01267  Uiso   1.00
O24    O     0.60481   0.02811   0.97847   0.01267  Uiso   1.00
O25    O     0.42189   0.35382   0.85980   0.01267  Uiso   1.00
O26    O     0.44223   0.46169   0.89965   0.01267  Uiso   1.00
O27    O     0.53072   0.60757   0.95559   0.01267  Uiso   1.00
O28    O     0.63292   0.47847   0.97189   0.01267  Uiso   1.00
O29    O     0.13551   0.14618   0.64020   0.01267  Uiso   1.00
O30    O     0.30357   0.03831   0.60035   0.01267  Uiso   1.00
O31    O     0.59388   0.89243   0.54441   0.01267  Uiso   1.00
O32    O     0.58328   0.02153   0.52811   0.01267  Uiso   1.00
