data_VAKREG_charged
_audit_creation_date              2014-07-02
_audit_creation_method            'Materials Studio'
_symmetry_space_group_name_H-M    'P1'
_symmetry_Int_Tables_number       1
_symmetry_cell_setting            triclinic
loop_
_symmetry_equiv_pos_as_xyz
  x,y,z
_cell_length_a                    9.8510
_cell_length_b                    17.3273
_cell_length_c                    17.7341
_cell_angle_alpha                 98.9467
_cell_angle_beta                  90.0000
_cell_angle_gamma                 106.5150
loop_
_atom_site_label
_atom_site_type_symbol
_atom_site_fract_x
_atom_site_fract_y
_atom_site_fract_z
_atom_site_U_iso_or_equiv
_atom_site_adp_type
_atom_site_occupancy
Co1    Co    0.67153   0.70130   0.03440   0.01267  Uiso   1.00
Co2    Co    0.97023   0.29870   0.46560   0.01267  Uiso   1.00
Co3    Co    0.32847   0.29870   0.96560   0.01267  Uiso   1.00
Co4    Co    0.02977   0.70130   0.53440   0.01267  Uiso   1.00
Co5    Co    0.50000   0.50000   0.00000   0.01267  Uiso   1.00
Co6    Co    0.00000   0.50000   0.50000   0.01267  Uiso   1.00
H1     H     0.37480   0.50400   0.22960   0.01267  Uiso   1.00
H2     H     0.26690   0.51400   0.34450   0.01267  Uiso   1.00
H3     H     0.31580   0.75040   0.34320   0.01267  Uiso   1.00
H4     H     0.42830   0.74180   0.22990   0.01267  Uiso   1.00
H5     H     0.04930   0.59840   0.10870   0.01267  Uiso   1.00
H6     H     0.80130   0.48120   0.92150   0.01267  Uiso   1.00
H7     H     0.05020   0.88900   0.92670   0.01267  Uiso   1.00
H8     H     0.81980   0.97800   0.08550   0.01267  Uiso   1.00
H9     H     0.87080   0.49600   0.27040   0.01267  Uiso   1.00
H10    H     0.75290   0.48600   0.15550   0.01267  Uiso   1.00
H11    H     0.56540   0.24960   0.15680   0.01267  Uiso   1.00
H12    H     0.68650   0.25820   0.27010   0.01267  Uiso   1.00
H13    H     0.45090   0.40160   0.39130   0.01267  Uiso   1.00
H14    H     0.32010   0.51880   0.57850   0.01267  Uiso   1.00
H15    H     0.16120   0.11100   0.57330   0.01267  Uiso   1.00
H16    H     0.84180   0.02200   0.41450   0.01267  Uiso   1.00
H17    H     0.62520   0.49600   0.77040   0.01267  Uiso   1.00
H18    H     0.73310   0.48600   0.65550   0.01267  Uiso   1.00
H19    H     0.68420   0.24960   0.65680   0.01267  Uiso   1.00
H20    H     0.57170   0.25820   0.77010   0.01267  Uiso   1.00
H21    H     0.95070   0.40160   0.89130   0.01267  Uiso   1.00
H22    H     0.19870   0.51880   0.07850   0.01267  Uiso   1.00
H23    H     0.94980   0.11100   0.07330   0.01267  Uiso   1.00
H24    H     0.18020   0.02200   0.91450   0.01267  Uiso   1.00
H25    H     0.12920   0.50400   0.72960   0.01267  Uiso   1.00
H26    H     0.24710   0.51400   0.84450   0.01267  Uiso   1.00
H27    H     0.43460   0.75040   0.84320   0.01267  Uiso   1.00
H28    H     0.31350   0.74180   0.72990   0.01267  Uiso   1.00
H29    H     0.54910   0.59840   0.60870   0.01267  Uiso   1.00
H30    H     0.67990   0.48120   0.42150   0.01267  Uiso   1.00
H31    H     0.83880   0.88900   0.42670   0.01267  Uiso   1.00
H32    H     0.15820   0.97800   0.58550   0.01267  Uiso   1.00
C1     C     0.41450   0.62240   0.21830   0.01267  Uiso   1.00
C2     C     0.36420   0.55380   0.25260   0.01267  Uiso   1.00
C3     C     0.29820   0.55980   0.32110   0.01267  Uiso   1.00
C4     C     0.27810   0.63220   0.35510   0.01267  Uiso   1.00
C5     C     0.32790   0.70080   0.32050   0.01267  Uiso   1.00
C6     C     0.39530   0.69560   0.25270   0.01267  Uiso   1.00
C7     C     0.48780   0.61680   0.14490   0.01267  Uiso   1.00
C8     C     0.19900   0.63660   0.42720   0.01267  Uiso   1.00
C9     C     0.02990   0.55900   0.06490   0.01267  Uiso   1.00
C10    C     0.91090   0.54900   0.01780   0.01267  Uiso   1.00
C11    C     0.88130   0.48880   0.95280   0.01267  Uiso   1.00
C12    C     0.81790   0.60260   0.03580   0.01267  Uiso   1.00
C13    C     0.02990   0.93340   0.95610   0.01267  Uiso   1.00
C14    C     0.92210   0.92120   0.00740   0.01267  Uiso   1.00
C15    C     0.89190   0.98660   0.05120   0.01267  Uiso   1.00
C16    C     0.83810   0.83600   0.01450   0.01267  Uiso   1.00
C17    C     0.79210   0.37760   0.28170   0.01267  Uiso   1.00
C18    C     0.81040   0.44620   0.24740   0.01267  Uiso   1.00
C19    C     0.73840   0.44020   0.17890   0.01267  Uiso   1.00
C20    C     0.64590   0.36780   0.14490   0.01267  Uiso   1.00
C21    C     0.62710   0.29920   0.17950   0.01267  Uiso   1.00
C22    C     0.69970   0.30440   0.24730   0.01267  Uiso   1.00
C23    C     0.87100   0.38320   0.35510   0.01267  Uiso   1.00
C24    C     0.56240   0.36340   0.07280   0.01267  Uiso   1.00
C25    C     0.47090   0.44100   0.43510   0.01267  Uiso   1.00
C26    C     0.36190   0.45100   0.48220   0.01267  Uiso   1.00
C27    C     0.39250   0.51120   0.54720   0.01267  Uiso   1.00
C28    C     0.21530   0.39740   0.46420   0.01267  Uiso   1.00
C29    C     0.09650   0.06660   0.54390   0.01267  Uiso   1.00
C30    C     0.00090   0.07880   0.49260   0.01267  Uiso   1.00
C31    C     0.90530   0.01340   0.44880   0.01267  Uiso   1.00
C32    C     0.00210   0.16400   0.48550   0.01267  Uiso   1.00
C33    C     0.58550   0.37760   0.78170   0.01267  Uiso   1.00
C34    C     0.63580   0.44620   0.74740   0.01267  Uiso   1.00
C35    C     0.70180   0.44020   0.67890   0.01267  Uiso   1.00
C36    C     0.72190   0.36780   0.64490   0.01267  Uiso   1.00
C37    C     0.67210   0.29920   0.67950   0.01267  Uiso   1.00
C38    C     0.60470   0.30440   0.74730   0.01267  Uiso   1.00
C39    C     0.51220   0.38320   0.85510   0.01267  Uiso   1.00
C40    C     0.80100   0.36340   0.57280   0.01267  Uiso   1.00
C41    C     0.97010   0.44100   0.93510   0.01267  Uiso   1.00
C42    C     0.08910   0.45100   0.98220   0.01267  Uiso   1.00
C43    C     0.11870   0.51120   0.04720   0.01267  Uiso   1.00
C44    C     0.18210   0.39740   0.96420   0.01267  Uiso   1.00
C45    C     0.97010   0.06660   0.04390   0.01267  Uiso   1.00
C46    C     0.07790   0.07880   0.99260   0.01267  Uiso   1.00
C47    C     0.10810   0.01340   0.94880   0.01267  Uiso   1.00
C48    C     0.16190   0.16400   0.98550   0.01267  Uiso   1.00
C49    C     0.20790   0.62240   0.71830   0.01267  Uiso   1.00
C50    C     0.18960   0.55380   0.75260   0.01267  Uiso   1.00
C51    C     0.26160   0.55980   0.82110   0.01267  Uiso   1.00
C52    C     0.35410   0.63220   0.85510   0.01267  Uiso   1.00
C53    C     0.37290   0.70080   0.82050   0.01267  Uiso   1.00
C54    C     0.30030   0.69560   0.75270   0.01267  Uiso   1.00
C55    C     0.12900   0.61680   0.64490   0.01267  Uiso   1.00
C56    C     0.43760   0.63660   0.92720   0.01267  Uiso   1.00
C57    C     0.52910   0.55900   0.56490   0.01267  Uiso   1.00
C58    C     0.63810   0.54900   0.51780   0.01267  Uiso   1.00
C59    C     0.60750   0.48880   0.45280   0.01267  Uiso   1.00
C60    C     0.78470   0.60260   0.53580   0.01267  Uiso   1.00
C61    C     0.90350   0.93340   0.45610   0.01267  Uiso   1.00
C62    C     0.99910   0.92120   0.50740   0.01267  Uiso   1.00
C63    C     0.09470   0.98660   0.55120   0.01267  Uiso   1.00
C64    C     0.99790   0.83600   0.51450   0.01267  Uiso   1.00
O1     O     0.54920   0.68360   0.12250   0.01267  Uiso   1.00
O2     O     0.48451   0.54702   0.11140   0.01267  Uiso   1.00
O3     O     0.16220   0.70000   0.44810   0.01267  Uiso   1.00
O4     O     0.17400   0.57560   0.46080   0.01267  Uiso   1.00
O5     O     0.84910   0.66180   0.08850   0.01267  Uiso   1.00
O6     O     0.70553   0.58986   0.99190   0.01267  Uiso   1.00
O7     O     0.84818   0.77696   0.96720   0.01267  Uiso   1.00
O8     O     0.75377   0.82514   0.06830   0.01267  Uiso   1.00
O9     O     0.86560   0.31640   0.37750   0.01267  Uiso   1.00
O10    O     0.93749   0.45298   0.38860   0.01267  Uiso   1.00
O11    O     0.46220   0.30000   0.05190   0.01267  Uiso   1.00
O12    O     0.59840   0.42440   0.03920   0.01267  Uiso   1.00
O13    O     0.18730   0.33820   0.41150   0.01267  Uiso   1.00
O14    O     0.11567   0.41014   0.50810   0.01267  Uiso   1.00
O15    O     0.07122   0.22304   0.53280   0.01267  Uiso   1.00
O16    O     0.92863   0.17486   0.43170   0.01267  Uiso   1.00
O17    O     0.45080   0.31640   0.87750   0.01267  Uiso   1.00
O18    O     0.51549   0.45298   0.88860   0.01267  Uiso   1.00
O19    O     0.83780   0.30000   0.55190   0.01267  Uiso   1.00
O20    O     0.82600   0.42440   0.53920   0.01267  Uiso   1.00
O21    O     0.15090   0.33820   0.91150   0.01267  Uiso   1.00
O22    O     0.29447   0.41014   0.00810   0.01267  Uiso   1.00
O23    O     0.15182   0.22304   0.03280   0.01267  Uiso   1.00
O24    O     0.24623   0.17486   0.93170   0.01267  Uiso   1.00
O25    O     0.13440   0.68360   0.62250   0.01267  Uiso   1.00
O26    O     0.06251   0.54702   0.61140   0.01267  Uiso   1.00
O27    O     0.53780   0.70000   0.94810   0.01267  Uiso   1.00
O28    O     0.40160   0.57560   0.96080   0.01267  Uiso   1.00
O29    O     0.81270   0.66180   0.58850   0.01267  Uiso   1.00
O30    O     0.88433   0.58986   0.49190   0.01267  Uiso   1.00
O31    O     0.92878   0.77696   0.46720   0.01267  Uiso   1.00
O32    O     0.07137   0.82514   0.56830   0.01267  Uiso   1.00
H33    H     0.47600   0.96340   0.30250   0.01267  Uiso   1.00
H34    H     0.41660   0.87540   0.29070   0.01267  Uiso   1.00
H35    H     0.65430   0.90880   0.27640   0.01267  Uiso   1.00
H36    H     0.60750   0.86380   0.34640   0.01267  Uiso   1.00
H37    H     0.67180   0.95900   0.35910   0.01267  Uiso   1.00
H38    H     0.30980   0.92920   0.38920   0.01267  Uiso   1.00
H39    H     0.45630   0.97000   0.43380   0.01267  Uiso   1.00
H40    H     0.39210   0.87500   0.42110   0.01267  Uiso   1.00
C65    C     0.61320   0.91240   0.32500   0.01267  Uiso   1.00
C66    C     0.40170   0.92340   0.39900   0.01267  Uiso   1.00
N1     N     0.46930   0.91860   0.32330   0.01267  Uiso   1.00
H41    H     0.51260   0.03660   0.19750   0.01267  Uiso   1.00
H42    H     0.54120   0.12460   0.20930   0.01267  Uiso   1.00
H43    H     0.74550   0.09120   0.22360   0.01267  Uiso   1.00
H44    H     0.74370   0.13620   0.15360   0.01267  Uiso   1.00
H45    H     0.71280   0.04100   0.14090   0.01267  Uiso   1.00
H46    H     0.38060   0.07080   0.11080   0.01267  Uiso   1.00
H47    H     0.48630   0.03000   0.06620   0.01267  Uiso   1.00
H48    H     0.51710   0.12500   0.07890   0.01267  Uiso   1.00
C67    C     0.70080   0.08760   0.17500   0.01267  Uiso   1.00
C68    C     0.47830   0.07660   0.10100   0.01267  Uiso   1.00
N2     N     0.55070   0.08140   0.17670   0.01267  Uiso   1.00
H49    H     0.52400   0.03660   0.69750   0.01267  Uiso   1.00
H50    H     0.58340   0.12460   0.70930   0.01267  Uiso   1.00
H51    H     0.34570   0.09120   0.72360   0.01267  Uiso   1.00
H52    H     0.39250   0.13620   0.65360   0.01267  Uiso   1.00
H53    H     0.32820   0.04100   0.64090   0.01267  Uiso   1.00
H54    H     0.69020   0.07080   0.61080   0.01267  Uiso   1.00
H55    H     0.54370   0.03000   0.56620   0.01267  Uiso   1.00
H56    H     0.60790   0.12500   0.57890   0.01267  Uiso   1.00
C69    C     0.38680   0.08760   0.67500   0.01267  Uiso   1.00
C70    C     0.59830   0.07660   0.60100   0.01267  Uiso   1.00
N3     N     0.53070   0.08140   0.67670   0.01267  Uiso   1.00
H57    H     0.48740   0.96340   0.80250   0.01267  Uiso   1.00
H58    H     0.45880   0.87540   0.79070   0.01267  Uiso   1.00
H59    H     0.25450   0.90880   0.77640   0.01267  Uiso   1.00
H60    H     0.25630   0.86380   0.84640   0.01267  Uiso   1.00
H61    H     0.28720   0.95900   0.85910   0.01267  Uiso   1.00
H62    H     0.61940   0.92920   0.88920   0.01267  Uiso   1.00
H63    H     0.51370   0.97000   0.93380   0.01267  Uiso   1.00
H64    H     0.48290   0.87500   0.92110   0.01267  Uiso   1.00
C71    C     0.29920   0.91240   0.82500   0.01267  Uiso   1.00
C72    C     0.52170   0.92340   0.89900   0.01267  Uiso   1.00
N4     N     0.44930   0.91860   0.82330   0.01267  Uiso   1.00
