data_image0
_cell_length_a       18.295
_cell_length_b       10.8482
_cell_length_c       17.3984
_cell_angle_alpha    90
_cell_angle_beta     101.395
_cell_angle_gamma    90

_symmetry_space_group_name_H-M    "P 1"
_symmetry_int_tables_number       1

loop_
  _symmetry_equiv_pos_as_xyz
  'x, y, z'

loop_
  _atom_site_label
  _atom_site_occupancy
  _atom_site_fract_x
  _atom_site_fract_y
  _atom_site_fract_z
  _atom_site_thermal_displace_type
  _atom_site_B_iso_or_equiv
  _atom_site_type_symbol
  Yb1      1.0000 0.48898  0.40159  0.10204  Biso   1.000  Yb
  C1       1.0000 0.61340  0.60780  0.08300  Biso   1.000  C
  O1       1.0000 0.56320  0.34290  0.02120  Biso   1.000  O
  O2       1.0000 0.58340  0.42300  0.90870  Biso   1.000  O
  O3       1.0000 0.57570  0.54940  0.12510  Biso   1.000  O
  O4       1.0000 0.92590  0.89380  0.19720  Biso   1.000  O
  O5       1.0000 0.91500  0.80850  0.31040  Biso   1.000  O
  C2       1.0000 0.81980  0.76990  0.19900  Biso   1.000  C
  C3       1.0000 0.60330  0.36000  0.97040  Biso   1.000  C
  C4       1.0000 0.89190  0.82730  0.23850  Biso   1.000  C
  C5       1.0000 0.72000  0.29500  0.92540  Biso   1.000  C
  H1       1.0000 0.69960  0.32580  0.87450  Biso   1.000  H
  O6       1.0000 0.59660  0.61970  0.00990  Biso   1.000  O
  C6       1.0000 0.68490  0.66610  0.12400  Biso   1.000  C
  C7       1.0000 0.71710  0.76070  0.08770  Biso   1.000  C
  H2       1.0000 0.69330  0.78940  0.03740  Biso   1.000  H
  C8       1.0000 0.72000  0.62370  0.19810  Biso   1.000  C
  H3       1.0000 0.69790  0.55970  0.22300  Biso   1.000  H
  C9       1.0000 0.67940  0.30270  0.98530  Biso   1.000  C
  C10      1.0000 0.78700  0.67510  0.23510  Biso   1.000  C
  H4       1.0000 0.81090  0.64580  0.28530  Biso   1.000  H
  C11      1.0000 0.78370  0.81260  0.12530  Biso   1.000  C
  H5       1.0000 0.80520  0.87790  0.10090  Biso   1.000  H
  C12      1.0000 0.70970  0.25790  0.05930  Biso   1.000  C
  H6       1.0000 0.68200  0.26360  0.09990  Biso   1.000  H
  Yb2      1.0000 0.98898  0.90159  0.10204  Biso   1.000  Yb
  C13      1.0000 0.11340  0.10780  0.08300  Biso   1.000  C
  O7       1.0000 0.06320  0.84290  0.02120  Biso   1.000  O
  O8       1.0000 0.08340  0.92300  0.90870  Biso   1.000  O
  O9       1.0000 0.07570  0.04940  0.12510  Biso   1.000  O
  O10      1.0000 0.42590  0.39380  0.19720  Biso   1.000  O
  O11      1.0000 0.41500  0.30850  0.31040  Biso   1.000  O
  C14      1.0000 0.31980  0.26990  0.19900  Biso   1.000  C
  C15      1.0000 0.10330  0.86000  0.97040  Biso   1.000  C
  C16      1.0000 0.39190  0.32730  0.23850  Biso   1.000  C
  C17      1.0000 0.22000  0.79500  0.92540  Biso   1.000  C
  H7       1.0000 0.19960  0.82580  0.87450  Biso   1.000  H
  O12      1.0000 0.09660  0.11970  0.00990  Biso   1.000  O
  C18      1.0000 0.18490  0.16610  0.12400  Biso   1.000  C
  C19      1.0000 0.21710  0.26070  0.08770  Biso   1.000  C
  H8       1.0000 0.19330  0.28940  0.03740  Biso   1.000  H
  C20      1.0000 0.22000  0.12370  0.19810  Biso   1.000  C
  H9       1.0000 0.19790  0.05970  0.22300  Biso   1.000  H
  C21      1.0000 0.17940  0.80270  0.98530  Biso   1.000  C
  C22      1.0000 0.28700  0.17510  0.23510  Biso   1.000  C
  H10      1.0000 0.31090  0.14580  0.28530  Biso   1.000  H
  C23      1.0000 0.28370  0.31260  0.12530  Biso   1.000  C
  H11      1.0000 0.30520  0.37790  0.10090  Biso   1.000  H
  C24      1.0000 0.20970  0.75790  0.05930  Biso   1.000  C
  H12      1.0000 0.18200  0.76360  0.09990  Biso   1.000  H
  Yb3      1.0000 0.51102  0.40159  0.39796  Biso   1.000  Yb
  C25      1.0000 0.38660  0.60780  0.41700  Biso   1.000  C
  O13      1.0000 0.43680  0.34290  0.47880  Biso   1.000  O
  O14      1.0000 0.41660  0.42300  0.59130  Biso   1.000  O
  O15      1.0000 0.42430  0.54940  0.37490  Biso   1.000  O
  O16      1.0000 0.07410  0.89380  0.30280  Biso   1.000  O
  O17      1.0000 0.08500  0.80850  0.18960  Biso   1.000  O
  C26      1.0000 0.18020  0.76990  0.30100  Biso   1.000  C
  C27      1.0000 0.39670  0.36000  0.52960  Biso   1.000  C
  C28      1.0000 0.10810  0.82730  0.26150  Biso   1.000  C
  C29      1.0000 0.28000  0.29500  0.57460  Biso   1.000  C
  H13      1.0000 0.30040  0.32580  0.62550  Biso   1.000  H
  O18      1.0000 0.40340  0.61970  0.49010  Biso   1.000  O
  C30      1.0000 0.31510  0.66610  0.37600  Biso   1.000  C
  C31      1.0000 0.28290  0.76070  0.41230  Biso   1.000  C
  H14      1.0000 0.30670  0.78940  0.46260  Biso   1.000  H
  C32      1.0000 0.28000  0.62370  0.30190  Biso   1.000  C
  H15      1.0000 0.30210  0.55970  0.27700  Biso   1.000  H
  C33      1.0000 0.32060  0.30270  0.51470  Biso   1.000  C
  C34      1.0000 0.21300  0.67510  0.26490  Biso   1.000  C
  H16      1.0000 0.18910  0.64580  0.21470  Biso   1.000  H
  C35      1.0000 0.21630  0.81260  0.37470  Biso   1.000  C
  H17      1.0000 0.19480  0.87790  0.39910  Biso   1.000  H
  C36      1.0000 0.29030  0.25790  0.44070  Biso   1.000  C
  H18      1.0000 0.31800  0.26360  0.40010  Biso   1.000  H
  Yb4      1.0000 0.01102  0.90159  0.39796  Biso   1.000  Yb
  C37      1.0000 0.88660  0.10780  0.41700  Biso   1.000  C
  O19      1.0000 0.93680  0.84290  0.47880  Biso   1.000  O
  O20      1.0000 0.91660  0.92300  0.59130  Biso   1.000  O
  O21      1.0000 0.92430  0.04940  0.37490  Biso   1.000  O
  O22      1.0000 0.57410  0.39380  0.30280  Biso   1.000  O
  O23      1.0000 0.58500  0.30850  0.18960  Biso   1.000  O
  C38      1.0000 0.68020  0.26990  0.30100  Biso   1.000  C
  C39      1.0000 0.89670  0.86000  0.52960  Biso   1.000  C
  C40      1.0000 0.60810  0.32730  0.26150  Biso   1.000  C
  C41      1.0000 0.78000  0.79500  0.57460  Biso   1.000  C
  H19      1.0000 0.80040  0.82580  0.62550  Biso   1.000  H
  O24      1.0000 0.90340  0.11970  0.49010  Biso   1.000  O
  C42      1.0000 0.81510  0.16610  0.37600  Biso   1.000  C
  C43      1.0000 0.78290  0.26070  0.41230  Biso   1.000  C
  H20      1.0000 0.80670  0.28940  0.46260  Biso   1.000  H
  C44      1.0000 0.78000  0.12370  0.30190  Biso   1.000  C
  H21      1.0000 0.80210  0.05970  0.27700  Biso   1.000  H
  C45      1.0000 0.82060  0.80270  0.51470  Biso   1.000  C
  C46      1.0000 0.71300  0.17510  0.26490  Biso   1.000  C
  H22      1.0000 0.68910  0.14580  0.21470  Biso   1.000  H
  C47      1.0000 0.71630  0.31260  0.37470  Biso   1.000  C
  H23      1.0000 0.69480  0.37790  0.39910  Biso   1.000  H
  C48      1.0000 0.79030  0.75790  0.44070  Biso   1.000  C
  H24      1.0000 0.81800  0.76360  0.40010  Biso   1.000  H
  Yb5      1.0000 0.51102  0.59841  0.89796  Biso   1.000  Yb
  C49      1.0000 0.38660  0.39220  0.91700  Biso   1.000  C
  O25      1.0000 0.43680  0.65710  0.97880  Biso   1.000  O
  O26      1.0000 0.41660  0.57700  0.09130  Biso   1.000  O
  O27      1.0000 0.42430  0.45060  0.87490  Biso   1.000  O
  O28      1.0000 0.07410  0.10620  0.80280  Biso   1.000  O
  O29      1.0000 0.08500  0.19150  0.68960  Biso   1.000  O
  C50      1.0000 0.18020  0.23010  0.80100  Biso   1.000  C
  C51      1.0000 0.39670  0.64000  0.02960  Biso   1.000  C
  C52      1.0000 0.10810  0.17270  0.76150  Biso   1.000  C
  C53      1.0000 0.28000  0.70500  0.07460  Biso   1.000  C
  H25      1.0000 0.30040  0.67420  0.12550  Biso   1.000  H
  O30      1.0000 0.40340  0.38030  0.99010  Biso   1.000  O
  C54      1.0000 0.31510  0.33390  0.87600  Biso   1.000  C
  C55      1.0000 0.28290  0.23930  0.91230  Biso   1.000  C
  H26      1.0000 0.30670  0.21060  0.96260  Biso   1.000  H
  C56      1.0000 0.28000  0.37630  0.80190  Biso   1.000  C
  H27      1.0000 0.30210  0.44030  0.77700  Biso   1.000  H
  C57      1.0000 0.32060  0.69730  0.01470  Biso   1.000  C
  C58      1.0000 0.21300  0.32490  0.76490  Biso   1.000  C
  H28      1.0000 0.18910  0.35420  0.71470  Biso   1.000  H
  C59      1.0000 0.21630  0.18740  0.87470  Biso   1.000  C
  H29      1.0000 0.19480  0.12210  0.89910  Biso   1.000  H
  C60      1.0000 0.29030  0.74210  0.94070  Biso   1.000  C
  H30      1.0000 0.31800  0.73640  0.90010  Biso   1.000  H
  Yb6      1.0000 0.01102  0.09841  0.89796  Biso   1.000  Yb
  C61      1.0000 0.88660  0.89220  0.91700  Biso   1.000  C
  O31      1.0000 0.93680  0.15710  0.97880  Biso   1.000  O
  O32      1.0000 0.91660  0.07700  0.09130  Biso   1.000  O
  O33      1.0000 0.92430  0.95060  0.87490  Biso   1.000  O
  O34      1.0000 0.57410  0.60620  0.80280  Biso   1.000  O
  O35      1.0000 0.58500  0.69150  0.68960  Biso   1.000  O
  C62      1.0000 0.68020  0.73010  0.80100  Biso   1.000  C
  C63      1.0000 0.89670  0.14000  0.02960  Biso   1.000  C
  C64      1.0000 0.60810  0.67270  0.76150  Biso   1.000  C
  C65      1.0000 0.78000  0.20500  0.07460  Biso   1.000  C
  H31      1.0000 0.80040  0.17420  0.12550  Biso   1.000  H
  O36      1.0000 0.90340  0.88030  0.99010  Biso   1.000  O
  C66      1.0000 0.81510  0.83390  0.87600  Biso   1.000  C
  C67      1.0000 0.78290  0.73930  0.91230  Biso   1.000  C
  H32      1.0000 0.80670  0.71060  0.96260  Biso   1.000  H
  C68      1.0000 0.78000  0.87630  0.80190  Biso   1.000  C
  H33      1.0000 0.80210  0.94030  0.77700  Biso   1.000  H
  C69      1.0000 0.82060  0.19730  0.01470  Biso   1.000  C
  C70      1.0000 0.71300  0.82490  0.76490  Biso   1.000  C
  H34      1.0000 0.68910  0.85420  0.71470  Biso   1.000  H
  C71      1.0000 0.71630  0.68740  0.87470  Biso   1.000  C
  H35      1.0000 0.69480  0.62210  0.89910  Biso   1.000  H
  C72      1.0000 0.79030  0.24210  0.94070  Biso   1.000  C
  H36      1.0000 0.81800  0.23640  0.90010  Biso   1.000  H
  Yb7      1.0000 0.48898  0.59841  0.60204  Biso   1.000  Yb
  C73      1.0000 0.61340  0.39220  0.58300  Biso   1.000  C
  O37      1.0000 0.56320  0.65710  0.52120  Biso   1.000  O
  O38      1.0000 0.58340  0.57700  0.40870  Biso   1.000  O
  O39      1.0000 0.57570  0.45060  0.62510  Biso   1.000  O
  O40      1.0000 0.92590  0.10620  0.69720  Biso   1.000  O
  O41      1.0000 0.91500  0.19150  0.81040  Biso   1.000  O
  C74      1.0000 0.81980  0.23010  0.69900  Biso   1.000  C
  C75      1.0000 0.60330  0.64000  0.47040  Biso   1.000  C
  C76      1.0000 0.89190  0.17270  0.73850  Biso   1.000  C
  C77      1.0000 0.72000  0.70500  0.42540  Biso   1.000  C
  H37      1.0000 0.69960  0.67420  0.37450  Biso   1.000  H
  O42      1.0000 0.59660  0.38030  0.50990  Biso   1.000  O
  C78      1.0000 0.68490  0.33390  0.62400  Biso   1.000  C
  C79      1.0000 0.71710  0.23930  0.58770  Biso   1.000  C
  H38      1.0000 0.69330  0.21060  0.53740  Biso   1.000  H
  C80      1.0000 0.72000  0.37630  0.69810  Biso   1.000  C
  H39      1.0000 0.69790  0.44030  0.72300  Biso   1.000  H
  C81      1.0000 0.67940  0.69730  0.48530  Biso   1.000  C
  C82      1.0000 0.78700  0.32490  0.73510  Biso   1.000  C
  H40      1.0000 0.81090  0.35420  0.78530  Biso   1.000  H
  C83      1.0000 0.78370  0.18740  0.62530  Biso   1.000  C
  H41      1.0000 0.80520  0.12210  0.60090  Biso   1.000  H
  C84      1.0000 0.70970  0.74210  0.55930  Biso   1.000  C
  H42      1.0000 0.68200  0.73640  0.59990  Biso   1.000  H
  Yb8      1.0000 0.98898  0.09841  0.60204  Biso   1.000  Yb
  C85      1.0000 0.11340  0.89220  0.58300  Biso   1.000  C
  O43      1.0000 0.06320  0.15710  0.52120  Biso   1.000  O
  O44      1.0000 0.08340  0.07700  0.40870  Biso   1.000  O
  O45      1.0000 0.07570  0.95060  0.62510  Biso   1.000  O
  O46      1.0000 0.42590  0.60620  0.69720  Biso   1.000  O
  O47      1.0000 0.41500  0.69150  0.81040  Biso   1.000  O
  C86      1.0000 0.31980  0.73010  0.69900  Biso   1.000  C
  C87      1.0000 0.10330  0.14000  0.47040  Biso   1.000  C
  C88      1.0000 0.39190  0.67270  0.73850  Biso   1.000  C
  C89      1.0000 0.22000  0.20500  0.42540  Biso   1.000  C
  H43      1.0000 0.19960  0.17420  0.37450  Biso   1.000  H
  O48      1.0000 0.09660  0.88030  0.50990  Biso   1.000  O
  C90      1.0000 0.18490  0.83390  0.62400  Biso   1.000  C
  C91      1.0000 0.21710  0.73930  0.58770  Biso   1.000  C
  H44      1.0000 0.19330  0.71060  0.53740  Biso   1.000  H
  C92      1.0000 0.22000  0.87630  0.69810  Biso   1.000  C
  H45      1.0000 0.19790  0.94030  0.72300  Biso   1.000  H
  C93      1.0000 0.17940  0.19730  0.48530  Biso   1.000  C
  C94      1.0000 0.28700  0.82490  0.73510  Biso   1.000  C
  H46      1.0000 0.31090  0.85420  0.78530  Biso   1.000  H
  C95      1.0000 0.28370  0.68740  0.62530  Biso   1.000  C
  H47      1.0000 0.30520  0.62210  0.60090  Biso   1.000  H
  C96      1.0000 0.20970  0.24210  0.55930  Biso   1.000  C
  H48      1.0000 0.18200  0.23640  0.59990  Biso   1.000  H
