data_image0
_cell_length_a       22.149
_cell_length_b       9.779
_cell_length_c       19.376
_cell_angle_alpha    90
_cell_angle_beta     119.161
_cell_angle_gamma    90

_symmetry_space_group_name_H-M    "P 1"
_symmetry_int_tables_number       1

loop_
  _symmetry_equiv_pos_as_xyz
  'x, y, z'

loop_
  _atom_site_label
  _atom_site_occupancy
  _atom_site_fract_x
  _atom_site_fract_y
  _atom_site_fract_z
  _atom_site_thermal_displace_type
  _atom_site_B_iso_or_equiv
  _atom_site_type_symbol
  Gd1      1.0000 0.01106  0.30853  0.45570  Biso   1.000  Gd
  Co1      1.0000 0.81975  0.37106  0.20502  Biso   1.000  Co
  O1       1.0000 0.90190  0.39150  0.33060  Biso   1.000  O
  O2       1.0000 0.94360  0.53520  0.43320  Biso   1.000  O
  O3       1.0000 0.77210  0.85610  0.41000  Biso   1.000  O
  O4       1.0000 0.86540  0.72520  0.48150  Biso   1.000  O
  H1       1.0000 0.89400  0.66600  0.48300  Biso   1.000  H
  O5       1.0000 0.87260  0.49840  0.15830  Biso   1.000  O
  O6       1.0000 0.88170  0.22510  0.18410  Biso   1.000  O
  O7       1.0000 0.96080  0.20940  0.14270  Biso   1.000  O
  O8       1.0000 0.94240  0.47820  0.10110  Biso   1.000  O
  O9       1.0000 0.04690  0.91200  0.59090  Biso   1.000  O
  O10      1.0000 0.04920  0.13490  0.56260  Biso   1.000  O
  N1       1.0000 0.78580  0.54270  0.24190  Biso   1.000  N
  N2       1.0000 0.73440  0.71630  0.27390  Biso   1.000  N
  C1       1.0000 0.89510  0.50000  0.36410  Biso   1.000  C
  C2       1.0000 0.82930  0.57880  0.32060  Biso   1.000  C
  C3       1.0000 0.79740  0.68490  0.34110  Biso   1.000  C
  C4       1.0000 0.73030  0.62810  0.21690  Biso   1.000  C
  H2       1.0000 0.69310  0.62650  0.16590  Biso   1.000  H
  C5       1.0000 0.81460  0.75890  0.41670  Biso   1.000  C
  C6       1.0000 0.91890  0.27290  0.15650  Biso   1.000  C
  C7       1.0000 0.91020  0.43260  0.13750  Biso   1.000  C
  C8       1.0000 0.02810  0.01440  0.54540  Biso   1.000  C
  Gd2      1.0000 0.51106  0.80853  0.45570  Biso   1.000  Gd
  Co2      1.0000 0.31975  0.87106  0.20502  Biso   1.000  Co
  O11      1.0000 0.40190  0.89150  0.33060  Biso   1.000  O
  O12      1.0000 0.44360  0.03520  0.43320  Biso   1.000  O
  O13      1.0000 0.27210  0.35610  0.41000  Biso   1.000  O
  O14      1.0000 0.36540  0.22520  0.48150  Biso   1.000  O
  H3       1.0000 0.39400  0.16600  0.48300  Biso   1.000  H
  O15      1.0000 0.37260  0.99840  0.15830  Biso   1.000  O
  O16      1.0000 0.38170  0.72510  0.18410  Biso   1.000  O
  O17      1.0000 0.46080  0.70940  0.14270  Biso   1.000  O
  O18      1.0000 0.44240  0.97820  0.10110  Biso   1.000  O
  O19      1.0000 0.54690  0.41200  0.59090  Biso   1.000  O
  O20      1.0000 0.54920  0.63490  0.56260  Biso   1.000  O
  N3       1.0000 0.28580  0.04270  0.24190  Biso   1.000  N
  N4       1.0000 0.23440  0.21630  0.27390  Biso   1.000  N
  C9       1.0000 0.39510  0.00000  0.36410  Biso   1.000  C
  C10      1.0000 0.32930  0.07880  0.32060  Biso   1.000  C
  C11      1.0000 0.29740  0.18490  0.34110  Biso   1.000  C
  C12      1.0000 0.23030  0.12810  0.21690  Biso   1.000  C
  H4       1.0000 0.19310  0.12650  0.16590  Biso   1.000  H
  C13      1.0000 0.31460  0.25890  0.41670  Biso   1.000  C
  C14      1.0000 0.41890  0.77290  0.15650  Biso   1.000  C
  C15      1.0000 0.41020  0.93260  0.13750  Biso   1.000  C
  C16      1.0000 0.52810  0.51440  0.54540  Biso   1.000  C
  Gd3      1.0000 0.98894  0.30853  0.04430  Biso   1.000  Gd
  Co3      1.0000 0.18025  0.37106  0.29498  Biso   1.000  Co
  O21      1.0000 0.09810  0.39150  0.16940  Biso   1.000  O
  O22      1.0000 0.05640  0.53520  0.06680  Biso   1.000  O
  O23      1.0000 0.22790  0.85610  0.09000  Biso   1.000  O
  O24      1.0000 0.13460  0.72520  0.01850  Biso   1.000  O
  H5       1.0000 0.10600  0.66600  0.01700  Biso   1.000  H
  O25      1.0000 0.12740  0.49840  0.34170  Biso   1.000  O
  O26      1.0000 0.11830  0.22510  0.31590  Biso   1.000  O
  O27      1.0000 0.03920  0.20940  0.35730  Biso   1.000  O
  O28      1.0000 0.05760  0.47820  0.39890  Biso   1.000  O
  O29      1.0000 0.95310  0.91200  0.90910  Biso   1.000  O
  O30      1.0000 0.95080  0.13490  0.93740  Biso   1.000  O
  N5       1.0000 0.21420  0.54270  0.25810  Biso   1.000  N
  N6       1.0000 0.26560  0.71630  0.22610  Biso   1.000  N
  C17      1.0000 0.10490  0.50000  0.13590  Biso   1.000  C
  C18      1.0000 0.17070  0.57880  0.17940  Biso   1.000  C
  C19      1.0000 0.20260  0.68490  0.15890  Biso   1.000  C
  C20      1.0000 0.26970  0.62810  0.28310  Biso   1.000  C
  H6       1.0000 0.30690  0.62650  0.33410  Biso   1.000  H
  C21      1.0000 0.18540  0.75890  0.08330  Biso   1.000  C
  C22      1.0000 0.08110  0.27290  0.34350  Biso   1.000  C
  C23      1.0000 0.08980  0.43260  0.36250  Biso   1.000  C
  C24      1.0000 0.97190  0.01440  0.95460  Biso   1.000  C
  Gd4      1.0000 0.48894  0.80853  0.04430  Biso   1.000  Gd
  Co4      1.0000 0.68025  0.87106  0.29498  Biso   1.000  Co
  O31      1.0000 0.59810  0.89150  0.16940  Biso   1.000  O
  O32      1.0000 0.55640  0.03520  0.06680  Biso   1.000  O
  O33      1.0000 0.72790  0.35610  0.09000  Biso   1.000  O
  O34      1.0000 0.63460  0.22520  0.01850  Biso   1.000  O
  H7       1.0000 0.60600  0.16600  0.01700  Biso   1.000  H
  O35      1.0000 0.62740  0.99840  0.34170  Biso   1.000  O
  O36      1.0000 0.61830  0.72510  0.31590  Biso   1.000  O
  O37      1.0000 0.53920  0.70940  0.35730  Biso   1.000  O
  O38      1.0000 0.55760  0.97820  0.39890  Biso   1.000  O
  O39      1.0000 0.45310  0.41200  0.90910  Biso   1.000  O
  O40      1.0000 0.45080  0.63490  0.93740  Biso   1.000  O
  N7       1.0000 0.71420  0.04270  0.25810  Biso   1.000  N
  N8       1.0000 0.76560  0.21630  0.22610  Biso   1.000  N
  C25      1.0000 0.60490  0.00000  0.13590  Biso   1.000  C
  C26      1.0000 0.67070  0.07880  0.17940  Biso   1.000  C
  C27      1.0000 0.70260  0.18490  0.15890  Biso   1.000  C
  C28      1.0000 0.76970  0.12810  0.28310  Biso   1.000  C
  H8       1.0000 0.80690  0.12650  0.33410  Biso   1.000  H
  C29      1.0000 0.68540  0.25890  0.08330  Biso   1.000  C
  C30      1.0000 0.58110  0.77290  0.34350  Biso   1.000  C
  C31      1.0000 0.58980  0.93260  0.36250  Biso   1.000  C
  C32      1.0000 0.47190  0.51440  0.95460  Biso   1.000  C
  Gd5      1.0000 0.98894  0.69147  0.54430  Biso   1.000  Gd
  Co5      1.0000 0.18025  0.62894  0.79498  Biso   1.000  Co
  O41      1.0000 0.09810  0.60850  0.66940  Biso   1.000  O
  O42      1.0000 0.05640  0.46480  0.56680  Biso   1.000  O
  O43      1.0000 0.22790  0.14390  0.59000  Biso   1.000  O
  O44      1.0000 0.13460  0.27480  0.51850  Biso   1.000  O
  H9       1.0000 0.10600  0.33400  0.51700  Biso   1.000  H
  O45      1.0000 0.12740  0.50160  0.84170  Biso   1.000  O
  O46      1.0000 0.11830  0.77490  0.81590  Biso   1.000  O
  O47      1.0000 0.03920  0.79060  0.85730  Biso   1.000  O
  O48      1.0000 0.05760  0.52180  0.89890  Biso   1.000  O
  O49      1.0000 0.95310  0.08800  0.40910  Biso   1.000  O
  O50      1.0000 0.95080  0.86510  0.43740  Biso   1.000  O
  N9       1.0000 0.21420  0.45730  0.75810  Biso   1.000  N
  N10      1.0000 0.26560  0.28370  0.72610  Biso   1.000  N
  C33      1.0000 0.10490  0.50000  0.63590  Biso   1.000  C
  C34      1.0000 0.17070  0.42120  0.67940  Biso   1.000  C
  C35      1.0000 0.20260  0.31510  0.65890  Biso   1.000  C
  C36      1.0000 0.26970  0.37190  0.78310  Biso   1.000  C
  H10      1.0000 0.30690  0.37350  0.83410  Biso   1.000  H
  C37      1.0000 0.18540  0.24110  0.58330  Biso   1.000  C
  C38      1.0000 0.08110  0.72710  0.84350  Biso   1.000  C
  C39      1.0000 0.08980  0.56740  0.86250  Biso   1.000  C
  C40      1.0000 0.97190  0.98560  0.45460  Biso   1.000  C
  Gd6      1.0000 0.48894  0.19147  0.54430  Biso   1.000  Gd
  Co6      1.0000 0.68025  0.12894  0.79498  Biso   1.000  Co
  O51      1.0000 0.59810  0.10850  0.66940  Biso   1.000  O
  O52      1.0000 0.55640  0.96480  0.56680  Biso   1.000  O
  O53      1.0000 0.72790  0.64390  0.59000  Biso   1.000  O
  O54      1.0000 0.63460  0.77480  0.51850  Biso   1.000  O
  H11      1.0000 0.60600  0.83400  0.51700  Biso   1.000  H
  O55      1.0000 0.62740  0.00160  0.84170  Biso   1.000  O
  O56      1.0000 0.61830  0.27490  0.81590  Biso   1.000  O
  O57      1.0000 0.53920  0.29060  0.85730  Biso   1.000  O
  O58      1.0000 0.55760  0.02180  0.89890  Biso   1.000  O
  O59      1.0000 0.45310  0.58800  0.40910  Biso   1.000  O
  O60      1.0000 0.45080  0.36510  0.43740  Biso   1.000  O
  N11      1.0000 0.71420  0.95730  0.75810  Biso   1.000  N
  N12      1.0000 0.76560  0.78370  0.72610  Biso   1.000  N
  C41      1.0000 0.60490  0.00000  0.63590  Biso   1.000  C
  C42      1.0000 0.67070  0.92120  0.67940  Biso   1.000  C
  C43      1.0000 0.70260  0.81510  0.65890  Biso   1.000  C
  C44      1.0000 0.76970  0.87190  0.78310  Biso   1.000  C
  H12      1.0000 0.80690  0.87350  0.83410  Biso   1.000  H
  C45      1.0000 0.68540  0.74110  0.58330  Biso   1.000  C
  C46      1.0000 0.58110  0.22710  0.84350  Biso   1.000  C
  C47      1.0000 0.58980  0.06740  0.86250  Biso   1.000  C
  C48      1.0000 0.47190  0.48560  0.45460  Biso   1.000  C
  Gd7      1.0000 0.01106  0.69147  0.95570  Biso   1.000  Gd
  Co7      1.0000 0.81975  0.62894  0.70502  Biso   1.000  Co
  O61      1.0000 0.90190  0.60850  0.83060  Biso   1.000  O
  O62      1.0000 0.94360  0.46480  0.93320  Biso   1.000  O
  O63      1.0000 0.77210  0.14390  0.91000  Biso   1.000  O
  O64      1.0000 0.86540  0.27480  0.98150  Biso   1.000  O
  H13      1.0000 0.89400  0.33400  0.98300  Biso   1.000  H
  O65      1.0000 0.87260  0.50160  0.65830  Biso   1.000  O
  O66      1.0000 0.88170  0.77490  0.68410  Biso   1.000  O
  O67      1.0000 0.96080  0.79060  0.64270  Biso   1.000  O
  O68      1.0000 0.94240  0.52180  0.60110  Biso   1.000  O
  O69      1.0000 0.04690  0.08800  0.09090  Biso   1.000  O
  O70      1.0000 0.04920  0.86510  0.06260  Biso   1.000  O
  N13      1.0000 0.78580  0.45730  0.74190  Biso   1.000  N
  N14      1.0000 0.73440  0.28370  0.77390  Biso   1.000  N
  C49      1.0000 0.89510  0.50000  0.86410  Biso   1.000  C
  C50      1.0000 0.82930  0.42120  0.82060  Biso   1.000  C
  C51      1.0000 0.79740  0.31510  0.84110  Biso   1.000  C
  C52      1.0000 0.73030  0.37190  0.71690  Biso   1.000  C
  H14      1.0000 0.69310  0.37350  0.66590  Biso   1.000  H
  C53      1.0000 0.81460  0.24110  0.91670  Biso   1.000  C
  C54      1.0000 0.91890  0.72710  0.65650  Biso   1.000  C
  C55      1.0000 0.91020  0.56740  0.63750  Biso   1.000  C
  C56      1.0000 0.02810  0.98560  0.04540  Biso   1.000  C
  Gd8      1.0000 0.51106  0.19147  0.95570  Biso   1.000  Gd
  Co8      1.0000 0.31975  0.12894  0.70502  Biso   1.000  Co
  O71      1.0000 0.40190  0.10850  0.83060  Biso   1.000  O
  O72      1.0000 0.44360  0.96480  0.93320  Biso   1.000  O
  O73      1.0000 0.27210  0.64390  0.91000  Biso   1.000  O
  O74      1.0000 0.36540  0.77480  0.98150  Biso   1.000  O
  H15      1.0000 0.39400  0.83400  0.98300  Biso   1.000  H
  O75      1.0000 0.37260  0.00160  0.65830  Biso   1.000  O
  O76      1.0000 0.38170  0.27490  0.68410  Biso   1.000  O
  O77      1.0000 0.46080  0.29060  0.64270  Biso   1.000  O
  O78      1.0000 0.44240  0.02180  0.60110  Biso   1.000  O
  O79      1.0000 0.54690  0.58800  0.09090  Biso   1.000  O
  O80      1.0000 0.54920  0.36510  0.06260  Biso   1.000  O
  N15      1.0000 0.28580  0.95730  0.74190  Biso   1.000  N
  N16      1.0000 0.23440  0.78370  0.77390  Biso   1.000  N
  C57      1.0000 0.39510  0.00000  0.86410  Biso   1.000  C
  C58      1.0000 0.32930  0.92120  0.82060  Biso   1.000  C
  C59      1.0000 0.29740  0.81510  0.84110  Biso   1.000  C
  C60      1.0000 0.23030  0.87190  0.71690  Biso   1.000  C
  H16      1.0000 0.19310  0.87350  0.66590  Biso   1.000  H
  C61      1.0000 0.31460  0.74110  0.91670  Biso   1.000  C
  C62      1.0000 0.41890  0.22710  0.65650  Biso   1.000  C
  C63      1.0000 0.41020  0.06740  0.63750  Biso   1.000  C
  C64      1.0000 0.52810  0.48560  0.04540  Biso   1.000  C
