data_image0
_cell_length_a       22.2973
_cell_length_b       22.2973
_cell_length_c       22.2973
_cell_angle_alpha    90
_cell_angle_beta     90
_cell_angle_gamma    90

_symmetry_space_group_name_H-M    "P 1"
_symmetry_int_tables_number       1

loop_
  _symmetry_equiv_pos_as_xyz
  'x, y, z'

loop_
  _atom_site_label
  _atom_site_occupancy
  _atom_site_fract_x
  _atom_site_fract_y
  _atom_site_fract_z
  _atom_site_thermal_displace_type
  _atom_site_B_iso_or_equiv
  _atom_site_type_symbol
  Co1      1.0000 0.32314  0.26014  0.80823  Biso   1.000  Co
  C1       1.0000 0.20060  0.28532  0.98983  Biso   1.000  C
  H1       1.0000 0.24210  0.28140  0.99180  Biso   1.000  H
  C2       1.0000 0.17299  0.29098  0.93444  Biso   1.000  C
  C3       1.0000 0.19663  0.27921  0.10443  Biso   1.000  C
  C4       1.0000 0.20690  0.29216  0.87599  Biso   1.000  C
  C5       1.0000 0.07784  0.29420  0.98446  Biso   1.000  C
  C6       1.0000 0.11104  0.29521  0.93164  Biso   1.000  C
  H2       1.0000 0.09180  0.29870  0.89480  Biso   1.000  H
  C7       1.0000 0.10635  0.28926  0.03947  Biso   1.000  C
  H3       1.0000 0.08380  0.28850  0.07460  Biso   1.000  H
  C8       1.0000 0.16747  0.28544  0.04227  Biso   1.000  C
  O1       1.0000 0.17627  0.30401  0.82998  Biso   1.000  O
  O2       1.0000 0.16296  0.29147  0.14759  Biso   1.000  O
  O3       1.0000 0.24970  0.26294  0.10535  Biso   1.000  O
  O4       1.0000 0.26171  0.28075  0.87842  Biso   1.000  O
  N1       1.0000 0.01357  0.29611  0.97701  Biso   1.000  N
  Co2      1.0000 0.67686  0.73986  0.80823  Biso   1.000  Co
  C9       1.0000 0.79940  0.71468  0.98983  Biso   1.000  C
  H4       1.0000 0.75790  0.71860  0.99180  Biso   1.000  H
  C10      1.0000 0.82701  0.70902  0.93444  Biso   1.000  C
  C11      1.0000 0.80337  0.72079  0.10443  Biso   1.000  C
  C12      1.0000 0.79310  0.70784  0.87599  Biso   1.000  C
  C13      1.0000 0.92216  0.70580  0.98446  Biso   1.000  C
  C14      1.0000 0.88896  0.70479  0.93164  Biso   1.000  C
  H5       1.0000 0.90820  0.70130  0.89480  Biso   1.000  H
  C15      1.0000 0.89365  0.71074  0.03947  Biso   1.000  C
  H6       1.0000 0.91620  0.71150  0.07460  Biso   1.000  H
  C16      1.0000 0.83253  0.71456  0.04227  Biso   1.000  C
  O5       1.0000 0.82373  0.69599  0.82998  Biso   1.000  O
  O6       1.0000 0.83704  0.70853  0.14759  Biso   1.000  O
  O7       1.0000 0.75030  0.73706  0.10535  Biso   1.000  O
  O8       1.0000 0.73829  0.71925  0.87842  Biso   1.000  O
  N2       1.0000 0.98643  0.70389  0.97701  Biso   1.000  N
  Co3      1.0000 0.67686  0.26014  0.19177  Biso   1.000  Co
  C17      1.0000 0.79940  0.28532  0.01017  Biso   1.000  C
  H7       1.0000 0.75790  0.28140  0.00820  Biso   1.000  H
  C18      1.0000 0.82701  0.29098  0.06556  Biso   1.000  C
  C19      1.0000 0.80337  0.27921  0.89557  Biso   1.000  C
  C20      1.0000 0.79310  0.29216  0.12401  Biso   1.000  C
  C21      1.0000 0.92216  0.29420  0.01554  Biso   1.000  C
  C22      1.0000 0.88896  0.29521  0.06836  Biso   1.000  C
  H8       1.0000 0.90820  0.29870  0.10520  Biso   1.000  H
  C23      1.0000 0.89365  0.28926  0.96053  Biso   1.000  C
  H9       1.0000 0.91620  0.28850  0.92540  Biso   1.000  H
  C24      1.0000 0.83253  0.28544  0.95773  Biso   1.000  C
  O9       1.0000 0.82373  0.30401  0.17002  Biso   1.000  O
  O10      1.0000 0.83704  0.29147  0.85241  Biso   1.000  O
  O11      1.0000 0.75030  0.26294  0.89465  Biso   1.000  O
  O12      1.0000 0.73829  0.28075  0.12158  Biso   1.000  O
  N3       1.0000 0.98643  0.29611  0.02299  Biso   1.000  N
  Co4      1.0000 0.32314  0.73986  0.19177  Biso   1.000  Co
  C25      1.0000 0.20060  0.71468  0.01017  Biso   1.000  C
  H10      1.0000 0.24210  0.71860  0.00820  Biso   1.000  H
  C26      1.0000 0.17299  0.70902  0.06556  Biso   1.000  C
  C27      1.0000 0.19663  0.72079  0.89557  Biso   1.000  C
  C28      1.0000 0.20690  0.70784  0.12401  Biso   1.000  C
  C29      1.0000 0.07784  0.70580  0.01554  Biso   1.000  C
  C30      1.0000 0.11104  0.70479  0.06836  Biso   1.000  C
  H11      1.0000 0.09180  0.70130  0.10520  Biso   1.000  H
  C31      1.0000 0.10635  0.71074  0.96053  Biso   1.000  C
  H12      1.0000 0.08380  0.71150  0.92540  Biso   1.000  H
  C32      1.0000 0.16747  0.71456  0.95773  Biso   1.000  C
  O13      1.0000 0.17627  0.69599  0.17002  Biso   1.000  O
  O14      1.0000 0.16296  0.70853  0.85241  Biso   1.000  O
  O15      1.0000 0.24970  0.73706  0.89465  Biso   1.000  O
  O16      1.0000 0.26171  0.71925  0.12158  Biso   1.000  O
  N4       1.0000 0.01357  0.70389  0.02299  Biso   1.000  N
  Co5      1.0000 0.80823  0.32314  0.26014  Biso   1.000  Co
  C33      1.0000 0.98983  0.20060  0.28532  Biso   1.000  C
  H13      1.0000 0.99180  0.24210  0.28140  Biso   1.000  H
  C34      1.0000 0.93444  0.17299  0.29098  Biso   1.000  C
  C35      1.0000 0.10443  0.19663  0.27921  Biso   1.000  C
  C36      1.0000 0.87599  0.20690  0.29216  Biso   1.000  C
  C37      1.0000 0.98446  0.07784  0.29420  Biso   1.000  C
  C38      1.0000 0.93164  0.11104  0.29521  Biso   1.000  C
  H14      1.0000 0.89480  0.09180  0.29870  Biso   1.000  H
  C39      1.0000 0.03947  0.10635  0.28926  Biso   1.000  C
  H15      1.0000 0.07460  0.08380  0.28850  Biso   1.000  H
  C40      1.0000 0.04227  0.16747  0.28544  Biso   1.000  C
  O17      1.0000 0.82998  0.17627  0.30401  Biso   1.000  O
  O18      1.0000 0.14759  0.16296  0.29147  Biso   1.000  O
  O19      1.0000 0.10535  0.24970  0.26294  Biso   1.000  O
  O20      1.0000 0.87842  0.26171  0.28075  Biso   1.000  O
  N5       1.0000 0.97701  0.01357  0.29611  Biso   1.000  N
  Co6      1.0000 0.80823  0.67686  0.73986  Biso   1.000  Co
  C41      1.0000 0.98983  0.79940  0.71468  Biso   1.000  C
  H16      1.0000 0.99180  0.75790  0.71860  Biso   1.000  H
  C42      1.0000 0.93444  0.82701  0.70902  Biso   1.000  C
  C43      1.0000 0.10443  0.80337  0.72079  Biso   1.000  C
  C44      1.0000 0.87599  0.79310  0.70784  Biso   1.000  C
  C45      1.0000 0.98446  0.92216  0.70580  Biso   1.000  C
  C46      1.0000 0.93164  0.88896  0.70479  Biso   1.000  C
  H17      1.0000 0.89480  0.90820  0.70130  Biso   1.000  H
  C47      1.0000 0.03947  0.89365  0.71074  Biso   1.000  C
  H18      1.0000 0.07460  0.91620  0.71150  Biso   1.000  H
  C48      1.0000 0.04227  0.83253  0.71456  Biso   1.000  C
  O21      1.0000 0.82998  0.82373  0.69599  Biso   1.000  O
  O22      1.0000 0.14759  0.83704  0.70853  Biso   1.000  O
  O23      1.0000 0.10535  0.75030  0.73706  Biso   1.000  O
  O24      1.0000 0.87842  0.73829  0.71925  Biso   1.000  O
  N6       1.0000 0.97701  0.98643  0.70389  Biso   1.000  N
  Co7      1.0000 0.19177  0.67686  0.26014  Biso   1.000  Co
  C49      1.0000 0.01017  0.79940  0.28532  Biso   1.000  C
  H19      1.0000 0.00820  0.75790  0.28140  Biso   1.000  H
  C50      1.0000 0.06556  0.82701  0.29098  Biso   1.000  C
  C51      1.0000 0.89557  0.80337  0.27921  Biso   1.000  C
  C52      1.0000 0.12401  0.79310  0.29216  Biso   1.000  C
  C53      1.0000 0.01554  0.92216  0.29420  Biso   1.000  C
  C54      1.0000 0.06836  0.88896  0.29521  Biso   1.000  C
  H20      1.0000 0.10520  0.90820  0.29870  Biso   1.000  H
  C55      1.0000 0.96053  0.89365  0.28926  Biso   1.000  C
  H21      1.0000 0.92540  0.91620  0.28850  Biso   1.000  H
  C56      1.0000 0.95773  0.83253  0.28544  Biso   1.000  C
  O25      1.0000 0.17002  0.82373  0.30401  Biso   1.000  O
  O26      1.0000 0.85241  0.83704  0.29147  Biso   1.000  O
  O27      1.0000 0.89465  0.75030  0.26294  Biso   1.000  O
  O28      1.0000 0.12158  0.73829  0.28075  Biso   1.000  O
  N7       1.0000 0.02299  0.98643  0.29611  Biso   1.000  N
  Co8      1.0000 0.19177  0.32314  0.73986  Biso   1.000  Co
  C57      1.0000 0.01017  0.20060  0.71468  Biso   1.000  C
  H22      1.0000 0.00820  0.24210  0.71860  Biso   1.000  H
  C58      1.0000 0.06556  0.17299  0.70902  Biso   1.000  C
  C59      1.0000 0.89557  0.19663  0.72079  Biso   1.000  C
  C60      1.0000 0.12401  0.20690  0.70784  Biso   1.000  C
  C61      1.0000 0.01554  0.07784  0.70580  Biso   1.000  C
  C62      1.0000 0.06836  0.11104  0.70479  Biso   1.000  C
  H23      1.0000 0.10520  0.09180  0.70130  Biso   1.000  H
  C63      1.0000 0.96053  0.10635  0.71074  Biso   1.000  C
  H24      1.0000 0.92540  0.08380  0.71150  Biso   1.000  H
  C64      1.0000 0.95773  0.16747  0.71456  Biso   1.000  C
  O29      1.0000 0.17002  0.17627  0.69599  Biso   1.000  O
  O30      1.0000 0.85241  0.16296  0.70853  Biso   1.000  O
  O31      1.0000 0.89465  0.24970  0.73706  Biso   1.000  O
  O32      1.0000 0.12158  0.26171  0.71925  Biso   1.000  O
  N8       1.0000 0.02299  0.01357  0.70389  Biso   1.000  N
  Co9      1.0000 0.26014  0.80823  0.32314  Biso   1.000  Co
  C65      1.0000 0.28532  0.98983  0.20060  Biso   1.000  C
  H25      1.0000 0.28140  0.99180  0.24210  Biso   1.000  H
  C66      1.0000 0.29098  0.93444  0.17299  Biso   1.000  C
  C67      1.0000 0.27921  0.10443  0.19663  Biso   1.000  C
  C68      1.0000 0.29216  0.87599  0.20690  Biso   1.000  C
  C69      1.0000 0.29420  0.98446  0.07784  Biso   1.000  C
  C70      1.0000 0.29521  0.93164  0.11104  Biso   1.000  C
  H26      1.0000 0.29870  0.89480  0.09180  Biso   1.000  H
  C71      1.0000 0.28926  0.03947  0.10635  Biso   1.000  C
  H27      1.0000 0.28850  0.07460  0.08380  Biso   1.000  H
  C72      1.0000 0.28544  0.04227  0.16747  Biso   1.000  C
  O33      1.0000 0.30401  0.82998  0.17627  Biso   1.000  O
  O34      1.0000 0.29147  0.14759  0.16296  Biso   1.000  O
  O35      1.0000 0.26294  0.10535  0.24970  Biso   1.000  O
  O36      1.0000 0.28075  0.87842  0.26171  Biso   1.000  O
  N9       1.0000 0.29611  0.97701  0.01357  Biso   1.000  N
  Co10     1.0000 0.73986  0.80823  0.67686  Biso   1.000  Co
  C73      1.0000 0.71468  0.98983  0.79940  Biso   1.000  C
  H28      1.0000 0.71860  0.99180  0.75790  Biso   1.000  H
  C74      1.0000 0.70902  0.93444  0.82701  Biso   1.000  C
  C75      1.0000 0.72079  0.10443  0.80337  Biso   1.000  C
  C76      1.0000 0.70784  0.87599  0.79310  Biso   1.000  C
  C77      1.0000 0.70580  0.98446  0.92216  Biso   1.000  C
  C78      1.0000 0.70479  0.93164  0.88896  Biso   1.000  C
  H29      1.0000 0.70130  0.89480  0.90820  Biso   1.000  H
  C79      1.0000 0.71074  0.03947  0.89365  Biso   1.000  C
  H30      1.0000 0.71150  0.07460  0.91620  Biso   1.000  H
  C80      1.0000 0.71456  0.04227  0.83253  Biso   1.000  C
  O37      1.0000 0.69599  0.82998  0.82373  Biso   1.000  O
  O38      1.0000 0.70853  0.14759  0.83704  Biso   1.000  O
  O39      1.0000 0.73706  0.10535  0.75030  Biso   1.000  O
  O40      1.0000 0.71925  0.87842  0.73829  Biso   1.000  O
  N10      1.0000 0.70389  0.97701  0.98643  Biso   1.000  N
  Co11     1.0000 0.26014  0.19177  0.67686  Biso   1.000  Co
  C81      1.0000 0.28532  0.01017  0.79940  Biso   1.000  C
  H31      1.0000 0.28140  0.00820  0.75790  Biso   1.000  H
  C82      1.0000 0.29098  0.06556  0.82701  Biso   1.000  C
  C83      1.0000 0.27921  0.89557  0.80337  Biso   1.000  C
  C84      1.0000 0.29216  0.12401  0.79310  Biso   1.000  C
  C85      1.0000 0.29420  0.01554  0.92216  Biso   1.000  C
  C86      1.0000 0.29521  0.06836  0.88896  Biso   1.000  C
  H32      1.0000 0.29870  0.10520  0.90820  Biso   1.000  H
  C87      1.0000 0.28926  0.96053  0.89365  Biso   1.000  C
  H33      1.0000 0.28850  0.92540  0.91620  Biso   1.000  H
  C88      1.0000 0.28544  0.95773  0.83253  Biso   1.000  C
  O41      1.0000 0.30401  0.17002  0.82373  Biso   1.000  O
  O42      1.0000 0.29147  0.85241  0.83704  Biso   1.000  O
  O43      1.0000 0.26294  0.89465  0.75030  Biso   1.000  O
  O44      1.0000 0.28075  0.12158  0.73829  Biso   1.000  O
  N11      1.0000 0.29611  0.02299  0.98643  Biso   1.000  N
  Co12     1.0000 0.73986  0.19177  0.32314  Biso   1.000  Co
  C89      1.0000 0.71468  0.01017  0.20060  Biso   1.000  C
  H34      1.0000 0.71860  0.00820  0.24210  Biso   1.000  H
  C90      1.0000 0.70902  0.06556  0.17299  Biso   1.000  C
  C91      1.0000 0.72079  0.89557  0.19663  Biso   1.000  C
  C92      1.0000 0.70784  0.12401  0.20690  Biso   1.000  C
  C93      1.0000 0.70580  0.01554  0.07784  Biso   1.000  C
  C94      1.0000 0.70479  0.06836  0.11104  Biso   1.000  C
  H35      1.0000 0.70130  0.10520  0.09180  Biso   1.000  H
  C95      1.0000 0.71074  0.96053  0.10635  Biso   1.000  C
  H36      1.0000 0.71150  0.92540  0.08380  Biso   1.000  H
  C96      1.0000 0.71456  0.95773  0.16747  Biso   1.000  C
  O45      1.0000 0.69599  0.17002  0.17627  Biso   1.000  O
  O46      1.0000 0.70853  0.85241  0.16296  Biso   1.000  O
  O47      1.0000 0.73706  0.89465  0.24970  Biso   1.000  O
  O48      1.0000 0.71925  0.12158  0.26171  Biso   1.000  O
  N12      1.0000 0.70389  0.02299  0.01357  Biso   1.000  N
  Co13     1.0000 0.76014  0.82314  0.30823  Biso   1.000  Co
  C97      1.0000 0.78532  0.70060  0.48983  Biso   1.000  C
  H37      1.0000 0.78140  0.74210  0.49180  Biso   1.000  H
  C98      1.0000 0.79098  0.67299  0.43444  Biso   1.000  C
  C99      1.0000 0.77921  0.69663  0.60443  Biso   1.000  C
  C100     1.0000 0.79216  0.70690  0.37599  Biso   1.000  C
  C101     1.0000 0.79420  0.57784  0.48446  Biso   1.000  C
  C102     1.0000 0.79521  0.61104  0.43164  Biso   1.000  C
  H38      1.0000 0.79870  0.59180  0.39480  Biso   1.000  H
  C103     1.0000 0.78926  0.60635  0.53947  Biso   1.000  C
  H39      1.0000 0.78850  0.58380  0.57460  Biso   1.000  H
  C104     1.0000 0.78544  0.66747  0.54227  Biso   1.000  C
  O49      1.0000 0.80401  0.67627  0.32998  Biso   1.000  O
  O50      1.0000 0.79147  0.66296  0.64759  Biso   1.000  O
  O51      1.0000 0.76294  0.74970  0.60535  Biso   1.000  O
  O52      1.0000 0.78075  0.76171  0.37842  Biso   1.000  O
  N13      1.0000 0.79611  0.51357  0.47701  Biso   1.000  N
  Co14     1.0000 0.23986  0.17686  0.30823  Biso   1.000  Co
  C105     1.0000 0.21468  0.29940  0.48983  Biso   1.000  C
  H40      1.0000 0.21860  0.25790  0.49180  Biso   1.000  H
  C106     1.0000 0.20902  0.32701  0.43444  Biso   1.000  C
  C107     1.0000 0.22079  0.30337  0.60443  Biso   1.000  C
  C108     1.0000 0.20784  0.29310  0.37599  Biso   1.000  C
  C109     1.0000 0.20580  0.42216  0.48446  Biso   1.000  C
  C110     1.0000 0.20479  0.38896  0.43164  Biso   1.000  C
  H41      1.0000 0.20130  0.40820  0.39480  Biso   1.000  H
  C111     1.0000 0.21074  0.39365  0.53947  Biso   1.000  C
  H42      1.0000 0.21150  0.41620  0.57460  Biso   1.000  H
  C112     1.0000 0.21456  0.33253  0.54227  Biso   1.000  C
  O53      1.0000 0.19599  0.32373  0.32998  Biso   1.000  O
  O54      1.0000 0.20853  0.33704  0.64759  Biso   1.000  O
  O55      1.0000 0.23706  0.25030  0.60535  Biso   1.000  O
  O56      1.0000 0.21925  0.23829  0.37842  Biso   1.000  O
  N14      1.0000 0.20389  0.48643  0.47701  Biso   1.000  N
  Co15     1.0000 0.76014  0.17686  0.69177  Biso   1.000  Co
  C113     1.0000 0.78532  0.29940  0.51017  Biso   1.000  C
  H43      1.0000 0.78140  0.25790  0.50820  Biso   1.000  H
  C114     1.0000 0.79098  0.32701  0.56556  Biso   1.000  C
  C115     1.0000 0.77921  0.30337  0.39557  Biso   1.000  C
  C116     1.0000 0.79216  0.29310  0.62401  Biso   1.000  C
  C117     1.0000 0.79420  0.42216  0.51554  Biso   1.000  C
  C118     1.0000 0.79521  0.38896  0.56836  Biso   1.000  C
  H44      1.0000 0.79870  0.40820  0.60520  Biso   1.000  H
  C119     1.0000 0.78926  0.39365  0.46053  Biso   1.000  C
  H45      1.0000 0.78850  0.41620  0.42540  Biso   1.000  H
  C120     1.0000 0.78544  0.33253  0.45773  Biso   1.000  C
  O57      1.0000 0.80401  0.32373  0.67002  Biso   1.000  O
  O58      1.0000 0.79147  0.33704  0.35241  Biso   1.000  O
  O59      1.0000 0.76294  0.25030  0.39465  Biso   1.000  O
  O60      1.0000 0.78075  0.23829  0.62158  Biso   1.000  O
  N15      1.0000 0.79611  0.48643  0.52299  Biso   1.000  N
  Co16     1.0000 0.23986  0.82314  0.69177  Biso   1.000  Co
  C121     1.0000 0.21468  0.70060  0.51017  Biso   1.000  C
  H46      1.0000 0.21860  0.74210  0.50820  Biso   1.000  H
  C122     1.0000 0.20902  0.67299  0.56556  Biso   1.000  C
  C123     1.0000 0.22079  0.69663  0.39557  Biso   1.000  C
  C124     1.0000 0.20784  0.70690  0.62401  Biso   1.000  C
  C125     1.0000 0.20580  0.57784  0.51554  Biso   1.000  C
  C126     1.0000 0.20479  0.61104  0.56836  Biso   1.000  C
  H47      1.0000 0.20130  0.59180  0.60520  Biso   1.000  H
  C127     1.0000 0.21074  0.60635  0.46053  Biso   1.000  C
  H48      1.0000 0.21150  0.58380  0.42540  Biso   1.000  H
  C128     1.0000 0.21456  0.66747  0.45773  Biso   1.000  C
  O61      1.0000 0.19599  0.67627  0.67002  Biso   1.000  O
  O62      1.0000 0.20853  0.66296  0.35241  Biso   1.000  O
  O63      1.0000 0.23706  0.74970  0.39465  Biso   1.000  O
  O64      1.0000 0.21925  0.76171  0.62158  Biso   1.000  O
  N16      1.0000 0.20389  0.51357  0.52299  Biso   1.000  N
  Co17     1.0000 0.82314  0.30823  0.76014  Biso   1.000  Co
  C129     1.0000 0.70060  0.48983  0.78532  Biso   1.000  C
  H49      1.0000 0.74210  0.49180  0.78140  Biso   1.000  H
  C130     1.0000 0.67299  0.43444  0.79098  Biso   1.000  C
  C131     1.0000 0.69663  0.60443  0.77921  Biso   1.000  C
  C132     1.0000 0.70690  0.37599  0.79216  Biso   1.000  C
  C133     1.0000 0.57784  0.48446  0.79420  Biso   1.000  C
  C134     1.0000 0.61104  0.43164  0.79521  Biso   1.000  C
  H50      1.0000 0.59180  0.39480  0.79870  Biso   1.000  H
  C135     1.0000 0.60635  0.53947  0.78926  Biso   1.000  C
  H51      1.0000 0.58380  0.57460  0.78850  Biso   1.000  H
  C136     1.0000 0.66747  0.54227  0.78544  Biso   1.000  C
  O65      1.0000 0.67627  0.32998  0.80401  Biso   1.000  O
  O66      1.0000 0.66296  0.64759  0.79147  Biso   1.000  O
  O67      1.0000 0.74970  0.60535  0.76294  Biso   1.000  O
  O68      1.0000 0.76171  0.37842  0.78075  Biso   1.000  O
  N17      1.0000 0.51357  0.47701  0.79611  Biso   1.000  N
  Co18     1.0000 0.17686  0.30823  0.23986  Biso   1.000  Co
  C137     1.0000 0.29940  0.48983  0.21468  Biso   1.000  C
  H52      1.0000 0.25790  0.49180  0.21860  Biso   1.000  H
  C138     1.0000 0.32701  0.43444  0.20902  Biso   1.000  C
  C139     1.0000 0.30337  0.60443  0.22079  Biso   1.000  C
  C140     1.0000 0.29310  0.37599  0.20784  Biso   1.000  C
  C141     1.0000 0.42216  0.48446  0.20580  Biso   1.000  C
  C142     1.0000 0.38896  0.43164  0.20479  Biso   1.000  C
  H53      1.0000 0.40820  0.39480  0.20130  Biso   1.000  H
  C143     1.0000 0.39365  0.53947  0.21074  Biso   1.000  C
  H54      1.0000 0.41620  0.57460  0.21150  Biso   1.000  H
  C144     1.0000 0.33253  0.54227  0.21456  Biso   1.000  C
  O69      1.0000 0.32373  0.32998  0.19599  Biso   1.000  O
  O70      1.0000 0.33704  0.64759  0.20853  Biso   1.000  O
  O71      1.0000 0.25030  0.60535  0.23706  Biso   1.000  O
  O72      1.0000 0.23829  0.37842  0.21925  Biso   1.000  O
  N18      1.0000 0.48643  0.47701  0.20389  Biso   1.000  N
  Co19     1.0000 0.17686  0.69177  0.76014  Biso   1.000  Co
  C145     1.0000 0.29940  0.51017  0.78532  Biso   1.000  C
  H55      1.0000 0.25790  0.50820  0.78140  Biso   1.000  H
  C146     1.0000 0.32701  0.56556  0.79098  Biso   1.000  C
  C147     1.0000 0.30337  0.39557  0.77921  Biso   1.000  C
  C148     1.0000 0.29310  0.62401  0.79216  Biso   1.000  C
  C149     1.0000 0.42216  0.51554  0.79420  Biso   1.000  C
  C150     1.0000 0.38896  0.56836  0.79521  Biso   1.000  C
  H56      1.0000 0.40820  0.60520  0.79870  Biso   1.000  H
  C151     1.0000 0.39365  0.46053  0.78926  Biso   1.000  C
  H57      1.0000 0.41620  0.42540  0.78850  Biso   1.000  H
  C152     1.0000 0.33253  0.45773  0.78544  Biso   1.000  C
  O73      1.0000 0.32373  0.67002  0.80401  Biso   1.000  O
  O74      1.0000 0.33704  0.35241  0.79147  Biso   1.000  O
  O75      1.0000 0.25030  0.39465  0.76294  Biso   1.000  O
  O76      1.0000 0.23829  0.62158  0.78075  Biso   1.000  O
  N19      1.0000 0.48643  0.52299  0.79611  Biso   1.000  N
  Co20     1.0000 0.82314  0.69177  0.23986  Biso   1.000  Co
  C153     1.0000 0.70060  0.51017  0.21468  Biso   1.000  C
  H58      1.0000 0.74210  0.50820  0.21860  Biso   1.000  H
  C154     1.0000 0.67299  0.56556  0.20902  Biso   1.000  C
  C155     1.0000 0.69663  0.39557  0.22079  Biso   1.000  C
  C156     1.0000 0.70690  0.62401  0.20784  Biso   1.000  C
  C157     1.0000 0.57784  0.51554  0.20580  Biso   1.000  C
  C158     1.0000 0.61104  0.56836  0.20479  Biso   1.000  C
  H59      1.0000 0.59180  0.60520  0.20130  Biso   1.000  H
  C159     1.0000 0.60635  0.46053  0.21074  Biso   1.000  C
  H60      1.0000 0.58380  0.42540  0.21150  Biso   1.000  H
  C160     1.0000 0.66747  0.45773  0.21456  Biso   1.000  C
  O77      1.0000 0.67627  0.67002  0.19599  Biso   1.000  O
  O78      1.0000 0.66296  0.35241  0.20853  Biso   1.000  O
  O79      1.0000 0.74970  0.39465  0.23706  Biso   1.000  O
  O80      1.0000 0.76171  0.62158  0.21925  Biso   1.000  O
  N20      1.0000 0.51357  0.52299  0.20389  Biso   1.000  N
  Co21     1.0000 0.30823  0.76014  0.82314  Biso   1.000  Co
  C161     1.0000 0.48983  0.78532  0.70060  Biso   1.000  C
  H61      1.0000 0.49180  0.78140  0.74210  Biso   1.000  H
  C162     1.0000 0.43444  0.79098  0.67299  Biso   1.000  C
  C163     1.0000 0.60443  0.77921  0.69663  Biso   1.000  C
  C164     1.0000 0.37599  0.79216  0.70690  Biso   1.000  C
  C165     1.0000 0.48446  0.79420  0.57784  Biso   1.000  C
  C166     1.0000 0.43164  0.79521  0.61104  Biso   1.000  C
  H62      1.0000 0.39480  0.79870  0.59180  Biso   1.000  H
  C167     1.0000 0.53947  0.78926  0.60635  Biso   1.000  C
  H63      1.0000 0.57460  0.78850  0.58380  Biso   1.000  H
  C168     1.0000 0.54227  0.78544  0.66747  Biso   1.000  C
  O81      1.0000 0.32998  0.80401  0.67627  Biso   1.000  O
  O82      1.0000 0.64759  0.79147  0.66296  Biso   1.000  O
  O83      1.0000 0.60535  0.76294  0.74970  Biso   1.000  O
  O84      1.0000 0.37842  0.78075  0.76171  Biso   1.000  O
  N21      1.0000 0.47701  0.79611  0.51357  Biso   1.000  N
  Co22     1.0000 0.30823  0.23986  0.17686  Biso   1.000  Co
  C169     1.0000 0.48983  0.21468  0.29940  Biso   1.000  C
  H64      1.0000 0.49180  0.21860  0.25790  Biso   1.000  H
  C170     1.0000 0.43444  0.20902  0.32701  Biso   1.000  C
  C171     1.0000 0.60443  0.22079  0.30337  Biso   1.000  C
  C172     1.0000 0.37599  0.20784  0.29310  Biso   1.000  C
  C173     1.0000 0.48446  0.20580  0.42216  Biso   1.000  C
  C174     1.0000 0.43164  0.20479  0.38896  Biso   1.000  C
  H65      1.0000 0.39480  0.20130  0.40820  Biso   1.000  H
  C175     1.0000 0.53947  0.21074  0.39365  Biso   1.000  C
  H66      1.0000 0.57460  0.21150  0.41620  Biso   1.000  H
  C176     1.0000 0.54227  0.21456  0.33253  Biso   1.000  C
  O85      1.0000 0.32998  0.19599  0.32373  Biso   1.000  O
  O86      1.0000 0.64759  0.20853  0.33704  Biso   1.000  O
  O87      1.0000 0.60535  0.23706  0.25030  Biso   1.000  O
  O88      1.0000 0.37842  0.21925  0.23829  Biso   1.000  O
  N22      1.0000 0.47701  0.20389  0.48643  Biso   1.000  N
  Co23     1.0000 0.69177  0.76014  0.17686  Biso   1.000  Co
  C177     1.0000 0.51017  0.78532  0.29940  Biso   1.000  C
  H67      1.0000 0.50820  0.78140  0.25790  Biso   1.000  H
  C178     1.0000 0.56556  0.79098  0.32701  Biso   1.000  C
  C179     1.0000 0.39557  0.77921  0.30337  Biso   1.000  C
  C180     1.0000 0.62401  0.79216  0.29310  Biso   1.000  C
  C181     1.0000 0.51554  0.79420  0.42216  Biso   1.000  C
  C182     1.0000 0.56836  0.79521  0.38896  Biso   1.000  C
  H68      1.0000 0.60520  0.79870  0.40820  Biso   1.000  H
  C183     1.0000 0.46053  0.78926  0.39365  Biso   1.000  C
  H69      1.0000 0.42540  0.78850  0.41620  Biso   1.000  H
  C184     1.0000 0.45773  0.78544  0.33253  Biso   1.000  C
  O89      1.0000 0.67002  0.80401  0.32373  Biso   1.000  O
  O90      1.0000 0.35241  0.79147  0.33704  Biso   1.000  O
  O91      1.0000 0.39465  0.76294  0.25030  Biso   1.000  O
  O92      1.0000 0.62158  0.78075  0.23829  Biso   1.000  O
  N23      1.0000 0.52299  0.79611  0.48643  Biso   1.000  N
  Co24     1.0000 0.69177  0.23986  0.82314  Biso   1.000  Co
  C185     1.0000 0.51017  0.21468  0.70060  Biso   1.000  C
  H70      1.0000 0.50820  0.21860  0.74210  Biso   1.000  H
  C186     1.0000 0.56556  0.20902  0.67299  Biso   1.000  C
  C187     1.0000 0.39557  0.22079  0.69663  Biso   1.000  C
  C188     1.0000 0.62401  0.20784  0.70690  Biso   1.000  C
  C189     1.0000 0.51554  0.20580  0.57784  Biso   1.000  C
  C190     1.0000 0.56836  0.20479  0.61104  Biso   1.000  C
  H71      1.0000 0.60520  0.20130  0.59180  Biso   1.000  H
  C191     1.0000 0.46053  0.21074  0.60635  Biso   1.000  C
  H72      1.0000 0.42540  0.21150  0.58380  Biso   1.000  H
  C192     1.0000 0.45773  0.21456  0.66747  Biso   1.000  C
  O93      1.0000 0.67002  0.19599  0.67627  Biso   1.000  O
  O94      1.0000 0.35241  0.20853  0.66296  Biso   1.000  O
  O95      1.0000 0.39465  0.23706  0.74970  Biso   1.000  O
  O96      1.0000 0.62158  0.21925  0.76171  Biso   1.000  O
  N24      1.0000 0.52299  0.20389  0.51357  Biso   1.000  N
  O97      1.0000 0.26355  0.26355  0.73645  Biso   1.000  O
  O98      1.0000 0.73645  0.73645  0.73645  Biso   1.000  O
  O99      1.0000 0.73645  0.26355  0.26355  Biso   1.000  O
  O100     1.0000 0.26355  0.73645  0.26355  Biso   1.000  O
  O101     1.0000 0.76355  0.76355  0.23645  Biso   1.000  O
  O102     1.0000 0.23645  0.23645  0.23645  Biso   1.000  O
  O103     1.0000 0.76355  0.23645  0.76355  Biso   1.000  O
  O104     1.0000 0.23645  0.76355  0.76355  Biso   1.000  O
