data_image0
_cell_length_a       22.1152
_cell_length_b       22.1152
_cell_length_c       22.1152
_cell_angle_alpha    90
_cell_angle_beta     90
_cell_angle_gamma    90

_symmetry_space_group_name_H-M    "P 1"
_symmetry_int_tables_number       1

loop_
  _symmetry_equiv_pos_as_xyz
  'x, y, z'

loop_
  _atom_site_label
  _atom_site_occupancy
  _atom_site_fract_x
  _atom_site_fract_y
  _atom_site_fract_z
  _atom_site_thermal_displace_type
  _atom_site_B_iso_or_equiv
  _atom_site_type_symbol
  Ni1      1.0000 0.23945  0.30666  0.17772  Biso   1.000  Ni
  C1       1.0000 0.22140  0.60478  0.30259  Biso   1.000  C
  C2       1.0000 0.20740  0.37407  0.29170  Biso   1.000  C
  C3       1.0000 0.20240  0.43123  0.38880  Biso   1.000  C
  H1       1.0000 0.19850  0.39420  0.40830  Biso   1.000  H
  C4       1.0000 0.21000  0.53966  0.39309  Biso   1.000  C
  H2       1.0000 0.21200  0.57490  0.41590  Biso   1.000  H
  C5       1.0000 0.20820  0.43381  0.32590  Biso   1.000  C
  C6       1.0000 0.20270  0.48420  0.42146  Biso   1.000  C
  C7       1.0000 0.21410  0.54236  0.33122  Biso   1.000  C
  C8       1.0000 0.21530  0.48978  0.29765  Biso   1.000  C
  H3       1.0000 0.22080  0.49160  0.25600  Biso   1.000  H
  O1       1.0000 0.19003  0.32988  0.32130  Biso   1.000  O
  O2       1.0000 0.20578  0.64817  0.33543  Biso   1.000  O
  O3       1.0000 0.24209  0.60592  0.25007  Biso   1.000  O
  O4       1.0000 0.22276  0.37645  0.23812  Biso   1.000  O
  N1       1.0000 0.20120  0.47728  0.48678  Biso   1.000  N
  Ni2      1.0000 0.76055  0.69334  0.17772  Biso   1.000  Ni
  C9       1.0000 0.77860  0.39522  0.30259  Biso   1.000  C
  C10      1.0000 0.79260  0.62593  0.29170  Biso   1.000  C
  C11      1.0000 0.79760  0.56877  0.38880  Biso   1.000  C
  H4       1.0000 0.80150  0.60580  0.40830  Biso   1.000  H
  C12      1.0000 0.79000  0.46034  0.39309  Biso   1.000  C
  H5       1.0000 0.78800  0.42510  0.41590  Biso   1.000  H
  C13      1.0000 0.79180  0.56619  0.32590  Biso   1.000  C
  C14      1.0000 0.79730  0.51580  0.42146  Biso   1.000  C
  C15      1.0000 0.78590  0.45764  0.33122  Biso   1.000  C
  C16      1.0000 0.78470  0.51022  0.29765  Biso   1.000  C
  H6       1.0000 0.77920  0.50840  0.25600  Biso   1.000  H
  O5       1.0000 0.80997  0.67012  0.32130  Biso   1.000  O
  O6       1.0000 0.79422  0.35183  0.33543  Biso   1.000  O
  O7       1.0000 0.75791  0.39408  0.25007  Biso   1.000  O
  O8       1.0000 0.77724  0.62355  0.23812  Biso   1.000  O
  N2       1.0000 0.79880  0.52272  0.48678  Biso   1.000  N
  Ni3      1.0000 0.76055  0.30666  0.82228  Biso   1.000  Ni
  C17      1.0000 0.77860  0.60478  0.69741  Biso   1.000  C
  C18      1.0000 0.79260  0.37407  0.70830  Biso   1.000  C
  C19      1.0000 0.79760  0.43123  0.61120  Biso   1.000  C
  H7       1.0000 0.80150  0.39420  0.59170  Biso   1.000  H
  C20      1.0000 0.79000  0.53966  0.60691  Biso   1.000  C
  H8       1.0000 0.78800  0.57490  0.58410  Biso   1.000  H
  C21      1.0000 0.79180  0.43381  0.67410  Biso   1.000  C
  C22      1.0000 0.79730  0.48420  0.57854  Biso   1.000  C
  C23      1.0000 0.78590  0.54236  0.66878  Biso   1.000  C
  C24      1.0000 0.78470  0.48978  0.70235  Biso   1.000  C
  H9       1.0000 0.77920  0.49160  0.74400  Biso   1.000  H
  O9       1.0000 0.80997  0.32988  0.67870  Biso   1.000  O
  O10      1.0000 0.79422  0.64817  0.66457  Biso   1.000  O
  O11      1.0000 0.75791  0.60592  0.74993  Biso   1.000  O
  O12      1.0000 0.77724  0.37645  0.76188  Biso   1.000  O
  N3       1.0000 0.79880  0.47728  0.51322  Biso   1.000  N
  Ni4      1.0000 0.23945  0.69334  0.82228  Biso   1.000  Ni
  C25      1.0000 0.22140  0.39522  0.69741  Biso   1.000  C
  C26      1.0000 0.20740  0.62593  0.70830  Biso   1.000  C
  C27      1.0000 0.20240  0.56877  0.61120  Biso   1.000  C
  H10      1.0000 0.19850  0.60580  0.59170  Biso   1.000  H
  C28      1.0000 0.21000  0.46034  0.60691  Biso   1.000  C
  H11      1.0000 0.21200  0.42510  0.58410  Biso   1.000  H
  C29      1.0000 0.20820  0.56619  0.67410  Biso   1.000  C
  C30      1.0000 0.20270  0.51580  0.57854  Biso   1.000  C
  C31      1.0000 0.21410  0.45764  0.66878  Biso   1.000  C
  C32      1.0000 0.21530  0.51022  0.70235  Biso   1.000  C
  H12      1.0000 0.22080  0.50840  0.74400  Biso   1.000  H
  O13      1.0000 0.19003  0.67012  0.67870  Biso   1.000  O
  O14      1.0000 0.20578  0.35183  0.66457  Biso   1.000  O
  O15      1.0000 0.24209  0.39408  0.74993  Biso   1.000  O
  O16      1.0000 0.22276  0.62355  0.76188  Biso   1.000  O
  N4       1.0000 0.20120  0.52272  0.51322  Biso   1.000  N
  Ni5      1.0000 0.17772  0.23945  0.30666  Biso   1.000  Ni
  C33      1.0000 0.30259  0.22140  0.60478  Biso   1.000  C
  C34      1.0000 0.29170  0.20740  0.37407  Biso   1.000  C
  C35      1.0000 0.38880  0.20240  0.43123  Biso   1.000  C
  H13      1.0000 0.40830  0.19850  0.39420  Biso   1.000  H
  C36      1.0000 0.39309  0.21000  0.53966  Biso   1.000  C
  H14      1.0000 0.41590  0.21200  0.57490  Biso   1.000  H
  C37      1.0000 0.32590  0.20820  0.43381  Biso   1.000  C
  C38      1.0000 0.42146  0.20270  0.48420  Biso   1.000  C
  C39      1.0000 0.33122  0.21410  0.54236  Biso   1.000  C
  C40      1.0000 0.29765  0.21530  0.48978  Biso   1.000  C
  H15      1.0000 0.25600  0.22080  0.49160  Biso   1.000  H
  O17      1.0000 0.32130  0.19003  0.32988  Biso   1.000  O
  O18      1.0000 0.33543  0.20578  0.64817  Biso   1.000  O
  O19      1.0000 0.25007  0.24209  0.60592  Biso   1.000  O
  O20      1.0000 0.23812  0.22276  0.37645  Biso   1.000  O
  N5       1.0000 0.48678  0.20120  0.47728  Biso   1.000  N
  Ni6      1.0000 0.17772  0.76055  0.69334  Biso   1.000  Ni
  C41      1.0000 0.30259  0.77860  0.39522  Biso   1.000  C
  C42      1.0000 0.29170  0.79260  0.62593  Biso   1.000  C
  C43      1.0000 0.38880  0.79760  0.56877  Biso   1.000  C
  H16      1.0000 0.40830  0.80150  0.60580  Biso   1.000  H
  C44      1.0000 0.39309  0.79000  0.46034  Biso   1.000  C
  H17      1.0000 0.41590  0.78800  0.42510  Biso   1.000  H
  C45      1.0000 0.32590  0.79180  0.56619  Biso   1.000  C
  C46      1.0000 0.42146  0.79730  0.51580  Biso   1.000  C
  C47      1.0000 0.33122  0.78590  0.45764  Biso   1.000  C
  C48      1.0000 0.29765  0.78470  0.51022  Biso   1.000  C
  H18      1.0000 0.25600  0.77920  0.50840  Biso   1.000  H
  O21      1.0000 0.32130  0.80997  0.67012  Biso   1.000  O
  O22      1.0000 0.33543  0.79422  0.35183  Biso   1.000  O
  O23      1.0000 0.25007  0.75791  0.39408  Biso   1.000  O
  O24      1.0000 0.23812  0.77724  0.62355  Biso   1.000  O
  N6       1.0000 0.48678  0.79880  0.52272  Biso   1.000  N
  Ni7      1.0000 0.82228  0.76055  0.30666  Biso   1.000  Ni
  C49      1.0000 0.69741  0.77860  0.60478  Biso   1.000  C
  C50      1.0000 0.70830  0.79260  0.37407  Biso   1.000  C
  C51      1.0000 0.61120  0.79760  0.43123  Biso   1.000  C
  H19      1.0000 0.59170  0.80150  0.39420  Biso   1.000  H
  C52      1.0000 0.60691  0.79000  0.53966  Biso   1.000  C
  H20      1.0000 0.58410  0.78800  0.57490  Biso   1.000  H
  C53      1.0000 0.67410  0.79180  0.43381  Biso   1.000  C
  C54      1.0000 0.57854  0.79730  0.48420  Biso   1.000  C
  C55      1.0000 0.66878  0.78590  0.54236  Biso   1.000  C
  C56      1.0000 0.70235  0.78470  0.48978  Biso   1.000  C
  H21      1.0000 0.74400  0.77920  0.49160  Biso   1.000  H
  O25      1.0000 0.67870  0.80997  0.32988  Biso   1.000  O
  O26      1.0000 0.66457  0.79422  0.64817  Biso   1.000  O
  O27      1.0000 0.74993  0.75791  0.60592  Biso   1.000  O
  O28      1.0000 0.76188  0.77724  0.37645  Biso   1.000  O
  N7       1.0000 0.51322  0.79880  0.47728  Biso   1.000  N
  Ni8      1.0000 0.82228  0.23945  0.69334  Biso   1.000  Ni
  C57      1.0000 0.69741  0.22140  0.39522  Biso   1.000  C
  C58      1.0000 0.70830  0.20740  0.62593  Biso   1.000  C
  C59      1.0000 0.61120  0.20240  0.56877  Biso   1.000  C
  H22      1.0000 0.59170  0.19850  0.60580  Biso   1.000  H
  C60      1.0000 0.60691  0.21000  0.46034  Biso   1.000  C
  H23      1.0000 0.58410  0.21200  0.42510  Biso   1.000  H
  C61      1.0000 0.67410  0.20820  0.56619  Biso   1.000  C
  C62      1.0000 0.57854  0.20270  0.51580  Biso   1.000  C
  C63      1.0000 0.66878  0.21410  0.45764  Biso   1.000  C
  C64      1.0000 0.70235  0.21530  0.51022  Biso   1.000  C
  H24      1.0000 0.74400  0.22080  0.50840  Biso   1.000  H
  O29      1.0000 0.67870  0.19003  0.67012  Biso   1.000  O
  O30      1.0000 0.66457  0.20578  0.35183  Biso   1.000  O
  O31      1.0000 0.74993  0.24209  0.39408  Biso   1.000  O
  O32      1.0000 0.76188  0.22276  0.62355  Biso   1.000  O
  N8       1.0000 0.51322  0.20120  0.52272  Biso   1.000  N
  Ni9      1.0000 0.30666  0.17772  0.23945  Biso   1.000  Ni
  C65      1.0000 0.60478  0.30259  0.22140  Biso   1.000  C
  C66      1.0000 0.37407  0.29170  0.20740  Biso   1.000  C
  C67      1.0000 0.43123  0.38880  0.20240  Biso   1.000  C
  H25      1.0000 0.39420  0.40830  0.19850  Biso   1.000  H
  C68      1.0000 0.53966  0.39309  0.21000  Biso   1.000  C
  H26      1.0000 0.57490  0.41590  0.21200  Biso   1.000  H
  C69      1.0000 0.43381  0.32590  0.20820  Biso   1.000  C
  C70      1.0000 0.48420  0.42146  0.20270  Biso   1.000  C
  C71      1.0000 0.54236  0.33122  0.21410  Biso   1.000  C
  C72      1.0000 0.48978  0.29765  0.21530  Biso   1.000  C
  H27      1.0000 0.49160  0.25600  0.22080  Biso   1.000  H
  O33      1.0000 0.32988  0.32130  0.19003  Biso   1.000  O
  O34      1.0000 0.64817  0.33543  0.20578  Biso   1.000  O
  O35      1.0000 0.60592  0.25007  0.24209  Biso   1.000  O
  O36      1.0000 0.37645  0.23812  0.22276  Biso   1.000  O
  N9       1.0000 0.47728  0.48678  0.20120  Biso   1.000  N
  Ni10     1.0000 0.69334  0.17772  0.76055  Biso   1.000  Ni
  C73      1.0000 0.39522  0.30259  0.77860  Biso   1.000  C
  C74      1.0000 0.62593  0.29170  0.79260  Biso   1.000  C
  C75      1.0000 0.56877  0.38880  0.79760  Biso   1.000  C
  H28      1.0000 0.60580  0.40830  0.80150  Biso   1.000  H
  C76      1.0000 0.46034  0.39309  0.79000  Biso   1.000  C
  H29      1.0000 0.42510  0.41590  0.78800  Biso   1.000  H
  C77      1.0000 0.56619  0.32590  0.79180  Biso   1.000  C
  C78      1.0000 0.51580  0.42146  0.79730  Biso   1.000  C
  C79      1.0000 0.45764  0.33122  0.78590  Biso   1.000  C
  C80      1.0000 0.51022  0.29765  0.78470  Biso   1.000  C
  H30      1.0000 0.50840  0.25600  0.77920  Biso   1.000  H
  O37      1.0000 0.67012  0.32130  0.80997  Biso   1.000  O
  O38      1.0000 0.35183  0.33543  0.79422  Biso   1.000  O
  O39      1.0000 0.39408  0.25007  0.75791  Biso   1.000  O
  O40      1.0000 0.62355  0.23812  0.77724  Biso   1.000  O
  N10      1.0000 0.52272  0.48678  0.79880  Biso   1.000  N
  Ni11     1.0000 0.30666  0.82228  0.76055  Biso   1.000  Ni
  C81      1.0000 0.60478  0.69741  0.77860  Biso   1.000  C
  C82      1.0000 0.37407  0.70830  0.79260  Biso   1.000  C
  C83      1.0000 0.43123  0.61120  0.79760  Biso   1.000  C
  H31      1.0000 0.39420  0.59170  0.80150  Biso   1.000  H
  C84      1.0000 0.53966  0.60691  0.79000  Biso   1.000  C
  H32      1.0000 0.57490  0.58410  0.78800  Biso   1.000  H
  C85      1.0000 0.43381  0.67410  0.79180  Biso   1.000  C
  C86      1.0000 0.48420  0.57854  0.79730  Biso   1.000  C
  C87      1.0000 0.54236  0.66878  0.78590  Biso   1.000  C
  C88      1.0000 0.48978  0.70235  0.78470  Biso   1.000  C
  H33      1.0000 0.49160  0.74400  0.77920  Biso   1.000  H
  O41      1.0000 0.32988  0.67870  0.80997  Biso   1.000  O
  O42      1.0000 0.64817  0.66457  0.79422  Biso   1.000  O
  O43      1.0000 0.60592  0.74993  0.75791  Biso   1.000  O
  O44      1.0000 0.37645  0.76188  0.77724  Biso   1.000  O
  N11      1.0000 0.47728  0.51322  0.79880  Biso   1.000  N
  Ni12     1.0000 0.69334  0.82228  0.23945  Biso   1.000  Ni
  C89      1.0000 0.39522  0.69741  0.22140  Biso   1.000  C
  C90      1.0000 0.62593  0.70830  0.20740  Biso   1.000  C
  C91      1.0000 0.56877  0.61120  0.20240  Biso   1.000  C
  H34      1.0000 0.60580  0.59170  0.19850  Biso   1.000  H
  C92      1.0000 0.46034  0.60691  0.21000  Biso   1.000  C
  H35      1.0000 0.42510  0.58410  0.21200  Biso   1.000  H
  C93      1.0000 0.56619  0.67410  0.20820  Biso   1.000  C
  C94      1.0000 0.51580  0.57854  0.20270  Biso   1.000  C
  C95      1.0000 0.45764  0.66878  0.21410  Biso   1.000  C
  C96      1.0000 0.51022  0.70235  0.21530  Biso   1.000  C
  H36      1.0000 0.50840  0.74400  0.22080  Biso   1.000  H
  O45      1.0000 0.67012  0.67870  0.19003  Biso   1.000  O
  O46      1.0000 0.35183  0.66457  0.20578  Biso   1.000  O
  O47      1.0000 0.39408  0.74993  0.24209  Biso   1.000  O
  O48      1.0000 0.62355  0.76188  0.22276  Biso   1.000  O
  N12      1.0000 0.52272  0.51322  0.20120  Biso   1.000  N
  Ni13     1.0000 0.80666  0.73945  0.67772  Biso   1.000  Ni
  C97      1.0000 0.10478  0.72140  0.80259  Biso   1.000  C
  C98      1.0000 0.87407  0.70740  0.79170  Biso   1.000  C
  C99      1.0000 0.93123  0.70240  0.88880  Biso   1.000  C
  H37      1.0000 0.89420  0.69850  0.90830  Biso   1.000  H
  C100     1.0000 0.03966  0.71000  0.89309  Biso   1.000  C
  H38      1.0000 0.07490  0.71200  0.91590  Biso   1.000  H
  C101     1.0000 0.93381  0.70820  0.82590  Biso   1.000  C
  C102     1.0000 0.98420  0.70270  0.92146  Biso   1.000  C
  C103     1.0000 0.04236  0.71410  0.83122  Biso   1.000  C
  C104     1.0000 0.98978  0.71530  0.79765  Biso   1.000  C
  H39      1.0000 0.99160  0.72080  0.75600  Biso   1.000  H
  O49      1.0000 0.82988  0.69003  0.82130  Biso   1.000  O
  O50      1.0000 0.14817  0.70578  0.83543  Biso   1.000  O
  O51      1.0000 0.10592  0.74209  0.75007  Biso   1.000  O
  O52      1.0000 0.87645  0.72276  0.73812  Biso   1.000  O
  N13      1.0000 0.97728  0.70120  0.98678  Biso   1.000  N
  Ni14     1.0000 0.19334  0.26055  0.67772  Biso   1.000  Ni
  C105     1.0000 0.89522  0.27860  0.80259  Biso   1.000  C
  C106     1.0000 0.12593  0.29260  0.79170  Biso   1.000  C
  C107     1.0000 0.06877  0.29760  0.88880  Biso   1.000  C
  H40      1.0000 0.10580  0.30150  0.90830  Biso   1.000  H
  C108     1.0000 0.96034  0.29000  0.89309  Biso   1.000  C
  H41      1.0000 0.92510  0.28800  0.91590  Biso   1.000  H
  C109     1.0000 0.06619  0.29180  0.82590  Biso   1.000  C
  C110     1.0000 0.01580  0.29730  0.92146  Biso   1.000  C
  C111     1.0000 0.95764  0.28590  0.83122  Biso   1.000  C
  C112     1.0000 0.01022  0.28470  0.79765  Biso   1.000  C
  H42      1.0000 0.00840  0.27920  0.75600  Biso   1.000  H
  O53      1.0000 0.17012  0.30997  0.82130  Biso   1.000  O
  O54      1.0000 0.85183  0.29422  0.83543  Biso   1.000  O
  O55      1.0000 0.89408  0.25791  0.75007  Biso   1.000  O
  O56      1.0000 0.12355  0.27724  0.73812  Biso   1.000  O
  N14      1.0000 0.02272  0.29880  0.98678  Biso   1.000  N
  Ni15     1.0000 0.80666  0.26055  0.32228  Biso   1.000  Ni
  C113     1.0000 0.10478  0.27860  0.19741  Biso   1.000  C
  C114     1.0000 0.87407  0.29260  0.20830  Biso   1.000  C
  C115     1.0000 0.93123  0.29760  0.11120  Biso   1.000  C
  H43      1.0000 0.89420  0.30150  0.09170  Biso   1.000  H
  C116     1.0000 0.03966  0.29000  0.10691  Biso   1.000  C
  H44      1.0000 0.07490  0.28800  0.08410  Biso   1.000  H
  C117     1.0000 0.93381  0.29180  0.17410  Biso   1.000  C
  C118     1.0000 0.98420  0.29730  0.07854  Biso   1.000  C
  C119     1.0000 0.04236  0.28590  0.16878  Biso   1.000  C
  C120     1.0000 0.98978  0.28470  0.20235  Biso   1.000  C
  H45      1.0000 0.99160  0.27920  0.24400  Biso   1.000  H
  O57      1.0000 0.82988  0.30997  0.17870  Biso   1.000  O
  O58      1.0000 0.14817  0.29422  0.16457  Biso   1.000  O
  O59      1.0000 0.10592  0.25791  0.24993  Biso   1.000  O
  O60      1.0000 0.87645  0.27724  0.26188  Biso   1.000  O
  N15      1.0000 0.97728  0.29880  0.01322  Biso   1.000  N
  Ni16     1.0000 0.19334  0.73945  0.32228  Biso   1.000  Ni
  C121     1.0000 0.89522  0.72140  0.19741  Biso   1.000  C
  C122     1.0000 0.12593  0.70740  0.20830  Biso   1.000  C
  C123     1.0000 0.06877  0.70240  0.11120  Biso   1.000  C
  H46      1.0000 0.10580  0.69850  0.09170  Biso   1.000  H
  C124     1.0000 0.96034  0.71000  0.10691  Biso   1.000  C
  H47      1.0000 0.92510  0.71200  0.08410  Biso   1.000  H
  C125     1.0000 0.06619  0.70820  0.17410  Biso   1.000  C
  C126     1.0000 0.01580  0.70270  0.07854  Biso   1.000  C
  C127     1.0000 0.95764  0.71410  0.16878  Biso   1.000  C
  C128     1.0000 0.01022  0.71530  0.20235  Biso   1.000  C
  H48      1.0000 0.00840  0.72080  0.24400  Biso   1.000  H
  O61      1.0000 0.17012  0.69003  0.17870  Biso   1.000  O
  O62      1.0000 0.85183  0.70578  0.16457  Biso   1.000  O
  O63      1.0000 0.89408  0.74209  0.24993  Biso   1.000  O
  O64      1.0000 0.12355  0.72276  0.26188  Biso   1.000  O
  N16      1.0000 0.02272  0.70120  0.01322  Biso   1.000  N
  Ni17     1.0000 0.73945  0.67772  0.80666  Biso   1.000  Ni
  C129     1.0000 0.72140  0.80259  0.10478  Biso   1.000  C
  C130     1.0000 0.70740  0.79170  0.87407  Biso   1.000  C
  C131     1.0000 0.70240  0.88880  0.93123  Biso   1.000  C
  H49      1.0000 0.69850  0.90830  0.89420  Biso   1.000  H
  C132     1.0000 0.71000  0.89309  0.03966  Biso   1.000  C
  H50      1.0000 0.71200  0.91590  0.07490  Biso   1.000  H
  C133     1.0000 0.70820  0.82590  0.93381  Biso   1.000  C
  C134     1.0000 0.70270  0.92146  0.98420  Biso   1.000  C
  C135     1.0000 0.71410  0.83122  0.04236  Biso   1.000  C
  C136     1.0000 0.71530  0.79765  0.98978  Biso   1.000  C
  H51      1.0000 0.72080  0.75600  0.99160  Biso   1.000  H
  O65      1.0000 0.69003  0.82130  0.82988  Biso   1.000  O
  O66      1.0000 0.70578  0.83543  0.14817  Biso   1.000  O
  O67      1.0000 0.74209  0.75007  0.10592  Biso   1.000  O
  O68      1.0000 0.72276  0.73812  0.87645  Biso   1.000  O
  N17      1.0000 0.70120  0.98678  0.97728  Biso   1.000  N
  Ni18     1.0000 0.26055  0.67772  0.19334  Biso   1.000  Ni
  C137     1.0000 0.27860  0.80259  0.89522  Biso   1.000  C
  C138     1.0000 0.29260  0.79170  0.12593  Biso   1.000  C
  C139     1.0000 0.29760  0.88880  0.06877  Biso   1.000  C
  H52      1.0000 0.30150  0.90830  0.10580  Biso   1.000  H
  C140     1.0000 0.29000  0.89309  0.96034  Biso   1.000  C
  H53      1.0000 0.28800  0.91590  0.92510  Biso   1.000  H
  C141     1.0000 0.29180  0.82590  0.06619  Biso   1.000  C
  C142     1.0000 0.29730  0.92146  0.01580  Biso   1.000  C
  C143     1.0000 0.28590  0.83122  0.95764  Biso   1.000  C
  C144     1.0000 0.28470  0.79765  0.01022  Biso   1.000  C
  H54      1.0000 0.27920  0.75600  0.00840  Biso   1.000  H
  O69      1.0000 0.30997  0.82130  0.17012  Biso   1.000  O
  O70      1.0000 0.29422  0.83543  0.85183  Biso   1.000  O
  O71      1.0000 0.25791  0.75007  0.89408  Biso   1.000  O
  O72      1.0000 0.27724  0.73812  0.12355  Biso   1.000  O
  N18      1.0000 0.29880  0.98678  0.02272  Biso   1.000  N
  Ni19     1.0000 0.26055  0.32228  0.80666  Biso   1.000  Ni
  C145     1.0000 0.27860  0.19741  0.10478  Biso   1.000  C
  C146     1.0000 0.29260  0.20830  0.87407  Biso   1.000  C
  C147     1.0000 0.29760  0.11120  0.93123  Biso   1.000  C
  H55      1.0000 0.30150  0.09170  0.89420  Biso   1.000  H
  C148     1.0000 0.29000  0.10691  0.03966  Biso   1.000  C
  H56      1.0000 0.28800  0.08410  0.07490  Biso   1.000  H
  C149     1.0000 0.29180  0.17410  0.93381  Biso   1.000  C
  C150     1.0000 0.29730  0.07854  0.98420  Biso   1.000  C
  C151     1.0000 0.28590  0.16878  0.04236  Biso   1.000  C
  C152     1.0000 0.28470  0.20235  0.98978  Biso   1.000  C
  H57      1.0000 0.27920  0.24400  0.99160  Biso   1.000  H
  O73      1.0000 0.30997  0.17870  0.82988  Biso   1.000  O
  O74      1.0000 0.29422  0.16457  0.14817  Biso   1.000  O
  O75      1.0000 0.25791  0.24993  0.10592  Biso   1.000  O
  O76      1.0000 0.27724  0.26188  0.87645  Biso   1.000  O
  N19      1.0000 0.29880  0.01322  0.97728  Biso   1.000  N
  Ni20     1.0000 0.73945  0.32228  0.19334  Biso   1.000  Ni
  C153     1.0000 0.72140  0.19741  0.89522  Biso   1.000  C
  C154     1.0000 0.70740  0.20830  0.12593  Biso   1.000  C
  C155     1.0000 0.70240  0.11120  0.06877  Biso   1.000  C
  H58      1.0000 0.69850  0.09170  0.10580  Biso   1.000  H
  C156     1.0000 0.71000  0.10691  0.96034  Biso   1.000  C
  H59      1.0000 0.71200  0.08410  0.92510  Biso   1.000  H
  C157     1.0000 0.70820  0.17410  0.06619  Biso   1.000  C
  C158     1.0000 0.70270  0.07854  0.01580  Biso   1.000  C
  C159     1.0000 0.71410  0.16878  0.95764  Biso   1.000  C
  C160     1.0000 0.71530  0.20235  0.01022  Biso   1.000  C
  H60      1.0000 0.72080  0.24400  0.00840  Biso   1.000  H
  O77      1.0000 0.69003  0.17870  0.17012  Biso   1.000  O
  O78      1.0000 0.70578  0.16457  0.85183  Biso   1.000  O
  O79      1.0000 0.74209  0.24993  0.89408  Biso   1.000  O
  O80      1.0000 0.72276  0.26188  0.12355  Biso   1.000  O
  N20      1.0000 0.70120  0.01322  0.02272  Biso   1.000  N
  Ni21     1.0000 0.67772  0.80666  0.73945  Biso   1.000  Ni
  C161     1.0000 0.80259  0.10478  0.72140  Biso   1.000  C
  C162     1.0000 0.79170  0.87407  0.70740  Biso   1.000  C
  C163     1.0000 0.88880  0.93123  0.70240  Biso   1.000  C
  H61      1.0000 0.90830  0.89420  0.69850  Biso   1.000  H
  C164     1.0000 0.89309  0.03966  0.71000  Biso   1.000  C
  H62      1.0000 0.91590  0.07490  0.71200  Biso   1.000  H
  C165     1.0000 0.82590  0.93381  0.70820  Biso   1.000  C
  C166     1.0000 0.92146  0.98420  0.70270  Biso   1.000  C
  C167     1.0000 0.83122  0.04236  0.71410  Biso   1.000  C
  C168     1.0000 0.79765  0.98978  0.71530  Biso   1.000  C
  H63      1.0000 0.75600  0.99160  0.72080  Biso   1.000  H
  O81      1.0000 0.82130  0.82988  0.69003  Biso   1.000  O
  O82      1.0000 0.83543  0.14817  0.70578  Biso   1.000  O
  O83      1.0000 0.75007  0.10592  0.74209  Biso   1.000  O
  O84      1.0000 0.73812  0.87645  0.72276  Biso   1.000  O
  N21      1.0000 0.98678  0.97728  0.70120  Biso   1.000  N
  Ni22     1.0000 0.67772  0.19334  0.26055  Biso   1.000  Ni
  C169     1.0000 0.80259  0.89522  0.27860  Biso   1.000  C
  C170     1.0000 0.79170  0.12593  0.29260  Biso   1.000  C
  C171     1.0000 0.88880  0.06877  0.29760  Biso   1.000  C
  H64      1.0000 0.90830  0.10580  0.30150  Biso   1.000  H
  C172     1.0000 0.89309  0.96034  0.29000  Biso   1.000  C
  H65      1.0000 0.91590  0.92510  0.28800  Biso   1.000  H
  C173     1.0000 0.82590  0.06619  0.29180  Biso   1.000  C
  C174     1.0000 0.92146  0.01580  0.29730  Biso   1.000  C
  C175     1.0000 0.83122  0.95764  0.28590  Biso   1.000  C
  C176     1.0000 0.79765  0.01022  0.28470  Biso   1.000  C
  H66      1.0000 0.75600  0.00840  0.27920  Biso   1.000  H
  O85      1.0000 0.82130  0.17012  0.30997  Biso   1.000  O
  O86      1.0000 0.83543  0.85183  0.29422  Biso   1.000  O
  O87      1.0000 0.75007  0.89408  0.25791  Biso   1.000  O
  O88      1.0000 0.73812  0.12355  0.27724  Biso   1.000  O
  N22      1.0000 0.98678  0.02272  0.29880  Biso   1.000  N
  Ni23     1.0000 0.32228  0.80666  0.26055  Biso   1.000  Ni
  C177     1.0000 0.19741  0.10478  0.27860  Biso   1.000  C
  C178     1.0000 0.20830  0.87407  0.29260  Biso   1.000  C
  C179     1.0000 0.11120  0.93123  0.29760  Biso   1.000  C
  H67      1.0000 0.09170  0.89420  0.30150  Biso   1.000  H
  C180     1.0000 0.10691  0.03966  0.29000  Biso   1.000  C
  H68      1.0000 0.08410  0.07490  0.28800  Biso   1.000  H
  C181     1.0000 0.17410  0.93381  0.29180  Biso   1.000  C
  C182     1.0000 0.07854  0.98420  0.29730  Biso   1.000  C
  C183     1.0000 0.16878  0.04236  0.28590  Biso   1.000  C
  C184     1.0000 0.20235  0.98978  0.28470  Biso   1.000  C
  H69      1.0000 0.24400  0.99160  0.27920  Biso   1.000  H
  O89      1.0000 0.17870  0.82988  0.30997  Biso   1.000  O
  O90      1.0000 0.16457  0.14817  0.29422  Biso   1.000  O
  O91      1.0000 0.24993  0.10592  0.25791  Biso   1.000  O
  O92      1.0000 0.26188  0.87645  0.27724  Biso   1.000  O
  N23      1.0000 0.01322  0.97728  0.29880  Biso   1.000  N
  Ni24     1.0000 0.32228  0.19334  0.73945  Biso   1.000  Ni
  C185     1.0000 0.19741  0.89522  0.72140  Biso   1.000  C
  C186     1.0000 0.20830  0.12593  0.70740  Biso   1.000  C
  C187     1.0000 0.11120  0.06877  0.70240  Biso   1.000  C
  H70      1.0000 0.09170  0.10580  0.69850  Biso   1.000  H
  C188     1.0000 0.10691  0.96034  0.71000  Biso   1.000  C
  H71      1.0000 0.08410  0.92510  0.71200  Biso   1.000  H
  C189     1.0000 0.17410  0.06619  0.70820  Biso   1.000  C
  C190     1.0000 0.07854  0.01580  0.70270  Biso   1.000  C
  C191     1.0000 0.16878  0.95764  0.71410  Biso   1.000  C
  C192     1.0000 0.20235  0.01022  0.71530  Biso   1.000  C
  H72      1.0000 0.24400  0.00840  0.72080  Biso   1.000  H
  O93      1.0000 0.17870  0.17012  0.69003  Biso   1.000  O
  O94      1.0000 0.16457  0.85183  0.70578  Biso   1.000  O
  O95      1.0000 0.24993  0.89408  0.74209  Biso   1.000  O
  O96      1.0000 0.26188  0.12355  0.72276  Biso   1.000  O
  N24      1.0000 0.01322  0.02272  0.70120  Biso   1.000  N
  O97      1.0000 0.23843  0.23843  0.23843  Biso   1.000  O
  O98      1.0000 0.76157  0.76157  0.23843  Biso   1.000  O
  O99      1.0000 0.76157  0.23843  0.76157  Biso   1.000  O
  O100     1.0000 0.23843  0.76157  0.76157  Biso   1.000  O
  O101     1.0000 0.73843  0.73843  0.73843  Biso   1.000  O
  O102     1.0000 0.26157  0.26157  0.73843  Biso   1.000  O
  O103     1.0000 0.73843  0.26157  0.26157  Biso   1.000  O
  O104     1.0000 0.26157  0.73843  0.26157  Biso   1.000  O
