data_image0
_cell_length_a       22.3051
_cell_length_b       22.3051
_cell_length_c       22.3051
_cell_angle_alpha    90
_cell_angle_beta     90
_cell_angle_gamma    90

_symmetry_space_group_name_H-M    "P 1"
_symmetry_int_tables_number       1

loop_
  _symmetry_equiv_pos_as_xyz
  'x, y, z'

loop_
  _atom_site_label
  _atom_site_occupancy
  _atom_site_fract_x
  _atom_site_fract_y
  _atom_site_fract_z
  _atom_site_thermal_displace_type
  _atom_site_B_iso_or_equiv
  _atom_site_type_symbol
  Mg1      1.0000 0.17677  0.24063  0.69084  Biso   1.000  Mg
  C1       1.0000 0.33257  0.21600  0.45670  Biso   1.000  C
  C2       1.0000 0.29916  0.21589  0.51022  Biso   1.000  C
  H1       1.0000 0.25770  0.21980  0.50840  Biso   1.000  H
  C3       1.0000 0.32650  0.21016  0.56518  Biso   1.000  C
  C4       1.0000 0.38891  0.20720  0.56662  Biso   1.000  C
  H2       1.0000 0.40850  0.20280  0.60320  Biso   1.000  H
  C5       1.0000 0.42166  0.21070  0.51519  Biso   1.000  C
  C6       1.0000 0.39375  0.21230  0.46057  Biso   1.000  C
  H3       1.0000 0.41660  0.21090  0.42570  Biso   1.000  H
  C7       1.0000 0.29250  0.20881  0.62296  Biso   1.000  C
  C8       1.0000 0.30308  0.22155  0.39515  Biso   1.000  C
  O1       1.0000 0.25019  0.23938  0.39344  Biso   1.000  O
  O2       1.0000 0.33595  0.20750  0.35191  Biso   1.000  O
  O3       1.0000 0.32253  0.19417  0.66920  Biso   1.000  O
  O4       1.0000 0.23830  0.22319  0.62159  Biso   1.000  O
  N1       1.0000 0.48647  0.20650  0.52248  Biso   1.000  N
  Mg2      1.0000 0.82323  0.75937  0.69084  Biso   1.000  Mg
  C9       1.0000 0.66743  0.78400  0.45670  Biso   1.000  C
  C10      1.0000 0.70084  0.78411  0.51022  Biso   1.000  C
  H4       1.0000 0.74230  0.78020  0.50840  Biso   1.000  H
  C11      1.0000 0.67350  0.78984  0.56518  Biso   1.000  C
  C12      1.0000 0.61109  0.79280  0.56662  Biso   1.000  C
  H5       1.0000 0.59150  0.79720  0.60320  Biso   1.000  H
  C13      1.0000 0.57834  0.78930  0.51519  Biso   1.000  C
  C14      1.0000 0.60625  0.78770  0.46057  Biso   1.000  C
  H6       1.0000 0.58340  0.78910  0.42570  Biso   1.000  H
  C15      1.0000 0.70750  0.79119  0.62296  Biso   1.000  C
  C16      1.0000 0.69692  0.77845  0.39515  Biso   1.000  C
  O5       1.0000 0.74981  0.76062  0.39344  Biso   1.000  O
  O6       1.0000 0.66405  0.79250  0.35191  Biso   1.000  O
  O7       1.0000 0.67747  0.80583  0.66920  Biso   1.000  O
  O8       1.0000 0.76170  0.77681  0.62159  Biso   1.000  O
  N2       1.0000 0.51353  0.79350  0.52248  Biso   1.000  N
  Mg3      1.0000 0.82323  0.24063  0.30916  Biso   1.000  Mg
  C17      1.0000 0.66743  0.21600  0.54330  Biso   1.000  C
  C18      1.0000 0.70084  0.21589  0.48978  Biso   1.000  C
  H7       1.0000 0.74230  0.21980  0.49160  Biso   1.000  H
  C19      1.0000 0.67350  0.21016  0.43482  Biso   1.000  C
  C20      1.0000 0.61109  0.20720  0.43338  Biso   1.000  C
  H8       1.0000 0.59150  0.20280  0.39680  Biso   1.000  H
  C21      1.0000 0.57834  0.21070  0.48481  Biso   1.000  C
  C22      1.0000 0.60625  0.21230  0.53943  Biso   1.000  C
  H9       1.0000 0.58340  0.21090  0.57430  Biso   1.000  H
  C23      1.0000 0.70750  0.20881  0.37704  Biso   1.000  C
  C24      1.0000 0.69692  0.22155  0.60485  Biso   1.000  C
  O9       1.0000 0.74981  0.23938  0.60656  Biso   1.000  O
  O10      1.0000 0.66405  0.20750  0.64809  Biso   1.000  O
  O11      1.0000 0.67747  0.19417  0.33080  Biso   1.000  O
  O12      1.0000 0.76170  0.22319  0.37841  Biso   1.000  O
  N3       1.0000 0.51353  0.20650  0.47752  Biso   1.000  N
  Mg4      1.0000 0.17677  0.75937  0.30916  Biso   1.000  Mg
  C25      1.0000 0.33257  0.78400  0.54330  Biso   1.000  C
  C26      1.0000 0.29916  0.78411  0.48978  Biso   1.000  C
  H10      1.0000 0.25770  0.78020  0.49160  Biso   1.000  H
  C27      1.0000 0.32650  0.78984  0.43482  Biso   1.000  C
  C28      1.0000 0.38891  0.79280  0.43338  Biso   1.000  C
  H11      1.0000 0.40850  0.79720  0.39680  Biso   1.000  H
  C29      1.0000 0.42166  0.78930  0.48481  Biso   1.000  C
  C30      1.0000 0.39375  0.78770  0.53943  Biso   1.000  C
  H12      1.0000 0.41660  0.78910  0.57430  Biso   1.000  H
  C31      1.0000 0.29250  0.79119  0.37704  Biso   1.000  C
  C32      1.0000 0.30308  0.77845  0.60485  Biso   1.000  C
  O13      1.0000 0.25019  0.76062  0.60656  Biso   1.000  O
  O14      1.0000 0.33595  0.79250  0.64809  Biso   1.000  O
  O15      1.0000 0.32253  0.80583  0.33080  Biso   1.000  O
  O16      1.0000 0.23830  0.77681  0.37841  Biso   1.000  O
  N4       1.0000 0.48647  0.79350  0.47752  Biso   1.000  N
  Mg5      1.0000 0.69084  0.17677  0.24063  Biso   1.000  Mg
  C33      1.0000 0.45670  0.33257  0.21600  Biso   1.000  C
  C34      1.0000 0.51022  0.29916  0.21589  Biso   1.000  C
  H13      1.0000 0.50840  0.25770  0.21980  Biso   1.000  H
  C35      1.0000 0.56518  0.32650  0.21016  Biso   1.000  C
  C36      1.0000 0.56662  0.38891  0.20720  Biso   1.000  C
  H14      1.0000 0.60320  0.40850  0.20280  Biso   1.000  H
  C37      1.0000 0.51519  0.42166  0.21070  Biso   1.000  C
  C38      1.0000 0.46057  0.39375  0.21230  Biso   1.000  C
  H15      1.0000 0.42570  0.41660  0.21090  Biso   1.000  H
  C39      1.0000 0.62296  0.29250  0.20881  Biso   1.000  C
  C40      1.0000 0.39515  0.30308  0.22155  Biso   1.000  C
  O17      1.0000 0.39344  0.25019  0.23938  Biso   1.000  O
  O18      1.0000 0.35191  0.33595  0.20750  Biso   1.000  O
  O19      1.0000 0.66920  0.32253  0.19417  Biso   1.000  O
  O20      1.0000 0.62159  0.23830  0.22319  Biso   1.000  O
  N5       1.0000 0.52248  0.48647  0.20650  Biso   1.000  N
  Mg6      1.0000 0.69084  0.82323  0.75937  Biso   1.000  Mg
  C41      1.0000 0.45670  0.66743  0.78400  Biso   1.000  C
  C42      1.0000 0.51022  0.70084  0.78411  Biso   1.000  C
  H16      1.0000 0.50840  0.74230  0.78020  Biso   1.000  H
  C43      1.0000 0.56518  0.67350  0.78984  Biso   1.000  C
  C44      1.0000 0.56662  0.61109  0.79280  Biso   1.000  C
  H17      1.0000 0.60320  0.59150  0.79720  Biso   1.000  H
  C45      1.0000 0.51519  0.57834  0.78930  Biso   1.000  C
  C46      1.0000 0.46057  0.60625  0.78770  Biso   1.000  C
  H18      1.0000 0.42570  0.58340  0.78910  Biso   1.000  H
  C47      1.0000 0.62296  0.70750  0.79119  Biso   1.000  C
  C48      1.0000 0.39515  0.69692  0.77845  Biso   1.000  C
  O21      1.0000 0.39344  0.74981  0.76062  Biso   1.000  O
  O22      1.0000 0.35191  0.66405  0.79250  Biso   1.000  O
  O23      1.0000 0.66920  0.67747  0.80583  Biso   1.000  O
  O24      1.0000 0.62159  0.76170  0.77681  Biso   1.000  O
  N6       1.0000 0.52248  0.51353  0.79350  Biso   1.000  N
  Mg7      1.0000 0.30916  0.82323  0.24063  Biso   1.000  Mg
  C49      1.0000 0.54330  0.66743  0.21600  Biso   1.000  C
  C50      1.0000 0.48978  0.70084  0.21589  Biso   1.000  C
  H19      1.0000 0.49160  0.74230  0.21980  Biso   1.000  H
  C51      1.0000 0.43482  0.67350  0.21016  Biso   1.000  C
  C52      1.0000 0.43338  0.61109  0.20720  Biso   1.000  C
  H20      1.0000 0.39680  0.59150  0.20280  Biso   1.000  H
  C53      1.0000 0.48481  0.57834  0.21070  Biso   1.000  C
  C54      1.0000 0.53943  0.60625  0.21230  Biso   1.000  C
  H21      1.0000 0.57430  0.58340  0.21090  Biso   1.000  H
  C55      1.0000 0.37704  0.70750  0.20881  Biso   1.000  C
  C56      1.0000 0.60485  0.69692  0.22155  Biso   1.000  C
  O25      1.0000 0.60656  0.74981  0.23938  Biso   1.000  O
  O26      1.0000 0.64809  0.66405  0.20750  Biso   1.000  O
  O27      1.0000 0.33080  0.67747  0.19417  Biso   1.000  O
  O28      1.0000 0.37841  0.76170  0.22319  Biso   1.000  O
  N7       1.0000 0.47752  0.51353  0.20650  Biso   1.000  N
  Mg8      1.0000 0.30916  0.17677  0.75937  Biso   1.000  Mg
  C57      1.0000 0.54330  0.33257  0.78400  Biso   1.000  C
  C58      1.0000 0.48978  0.29916  0.78411  Biso   1.000  C
  H22      1.0000 0.49160  0.25770  0.78020  Biso   1.000  H
  C59      1.0000 0.43482  0.32650  0.78984  Biso   1.000  C
  C60      1.0000 0.43338  0.38891  0.79280  Biso   1.000  C
  H23      1.0000 0.39680  0.40850  0.79720  Biso   1.000  H
  C61      1.0000 0.48481  0.42166  0.78930  Biso   1.000  C
  C62      1.0000 0.53943  0.39375  0.78770  Biso   1.000  C
  H24      1.0000 0.57430  0.41660  0.78910  Biso   1.000  H
  C63      1.0000 0.37704  0.29250  0.79119  Biso   1.000  C
  C64      1.0000 0.60485  0.30308  0.77845  Biso   1.000  C
  O29      1.0000 0.60656  0.25019  0.76062  Biso   1.000  O
  O30      1.0000 0.64809  0.33595  0.79250  Biso   1.000  O
  O31      1.0000 0.33080  0.32253  0.80583  Biso   1.000  O
  O32      1.0000 0.37841  0.23830  0.77681  Biso   1.000  O
  N8       1.0000 0.47752  0.48647  0.79350  Biso   1.000  N
  Mg9      1.0000 0.24063  0.69084  0.17677  Biso   1.000  Mg
  C65      1.0000 0.21600  0.45670  0.33257  Biso   1.000  C
  C66      1.0000 0.21589  0.51022  0.29916  Biso   1.000  C
  H25      1.0000 0.21980  0.50840  0.25770  Biso   1.000  H
  C67      1.0000 0.21016  0.56518  0.32650  Biso   1.000  C
  C68      1.0000 0.20720  0.56662  0.38891  Biso   1.000  C
  H26      1.0000 0.20280  0.60320  0.40850  Biso   1.000  H
  C69      1.0000 0.21070  0.51519  0.42166  Biso   1.000  C
  C70      1.0000 0.21230  0.46057  0.39375  Biso   1.000  C
  H27      1.0000 0.21090  0.42570  0.41660  Biso   1.000  H
  C71      1.0000 0.20881  0.62296  0.29250  Biso   1.000  C
  C72      1.0000 0.22155  0.39515  0.30308  Biso   1.000  C
  O33      1.0000 0.23938  0.39344  0.25019  Biso   1.000  O
  O34      1.0000 0.20750  0.35191  0.33595  Biso   1.000  O
  O35      1.0000 0.19417  0.66920  0.32253  Biso   1.000  O
  O36      1.0000 0.22319  0.62159  0.23830  Biso   1.000  O
  N9       1.0000 0.20650  0.52248  0.48647  Biso   1.000  N
  Mg10     1.0000 0.75937  0.69084  0.82323  Biso   1.000  Mg
  C73      1.0000 0.78400  0.45670  0.66743  Biso   1.000  C
  C74      1.0000 0.78411  0.51022  0.70084  Biso   1.000  C
  H28      1.0000 0.78020  0.50840  0.74230  Biso   1.000  H
  C75      1.0000 0.78984  0.56518  0.67350  Biso   1.000  C
  C76      1.0000 0.79280  0.56662  0.61109  Biso   1.000  C
  H29      1.0000 0.79720  0.60320  0.59150  Biso   1.000  H
  C77      1.0000 0.78930  0.51519  0.57834  Biso   1.000  C
  C78      1.0000 0.78770  0.46057  0.60625  Biso   1.000  C
  H30      1.0000 0.78910  0.42570  0.58340  Biso   1.000  H
  C79      1.0000 0.79119  0.62296  0.70750  Biso   1.000  C
  C80      1.0000 0.77845  0.39515  0.69692  Biso   1.000  C
  O37      1.0000 0.76062  0.39344  0.74981  Biso   1.000  O
  O38      1.0000 0.79250  0.35191  0.66405  Biso   1.000  O
  O39      1.0000 0.80583  0.66920  0.67747  Biso   1.000  O
  O40      1.0000 0.77681  0.62159  0.76170  Biso   1.000  O
  N10      1.0000 0.79350  0.52248  0.51353  Biso   1.000  N
  Mg11     1.0000 0.24063  0.30916  0.82323  Biso   1.000  Mg
  C81      1.0000 0.21600  0.54330  0.66743  Biso   1.000  C
  C82      1.0000 0.21589  0.48978  0.70084  Biso   1.000  C
  H31      1.0000 0.21980  0.49160  0.74230  Biso   1.000  H
  C83      1.0000 0.21016  0.43482  0.67350  Biso   1.000  C
  C84      1.0000 0.20720  0.43338  0.61109  Biso   1.000  C
  H32      1.0000 0.20280  0.39680  0.59150  Biso   1.000  H
  C85      1.0000 0.21070  0.48481  0.57834  Biso   1.000  C
  C86      1.0000 0.21230  0.53943  0.60625  Biso   1.000  C
  H33      1.0000 0.21090  0.57430  0.58340  Biso   1.000  H
  C87      1.0000 0.20881  0.37704  0.70750  Biso   1.000  C
  C88      1.0000 0.22155  0.60485  0.69692  Biso   1.000  C
  O41      1.0000 0.23938  0.60656  0.74981  Biso   1.000  O
  O42      1.0000 0.20750  0.64809  0.66405  Biso   1.000  O
  O43      1.0000 0.19417  0.33080  0.67747  Biso   1.000  O
  O44      1.0000 0.22319  0.37841  0.76170  Biso   1.000  O
  N11      1.0000 0.20650  0.47752  0.51353  Biso   1.000  N
  Mg12     1.0000 0.75937  0.30916  0.17677  Biso   1.000  Mg
  C89      1.0000 0.78400  0.54330  0.33257  Biso   1.000  C
  C90      1.0000 0.78411  0.48978  0.29916  Biso   1.000  C
  H34      1.0000 0.78020  0.49160  0.25770  Biso   1.000  H
  C91      1.0000 0.78984  0.43482  0.32650  Biso   1.000  C
  C92      1.0000 0.79280  0.43338  0.38891  Biso   1.000  C
  H35      1.0000 0.79720  0.39680  0.40850  Biso   1.000  H
  C93      1.0000 0.78930  0.48481  0.42166  Biso   1.000  C
  C94      1.0000 0.78770  0.53943  0.39375  Biso   1.000  C
  H36      1.0000 0.78910  0.57430  0.41660  Biso   1.000  H
  C95      1.0000 0.79119  0.37704  0.29250  Biso   1.000  C
  C96      1.0000 0.77845  0.60485  0.30308  Biso   1.000  C
  O45      1.0000 0.76062  0.60656  0.25019  Biso   1.000  O
  O46      1.0000 0.79250  0.64809  0.33595  Biso   1.000  O
  O47      1.0000 0.80583  0.33080  0.32253  Biso   1.000  O
  O48      1.0000 0.77681  0.37841  0.23830  Biso   1.000  O
  N12      1.0000 0.79350  0.47752  0.48647  Biso   1.000  N
  Mg13     1.0000 0.74063  0.67677  0.19084  Biso   1.000  Mg
  C97      1.0000 0.71600  0.83257  0.95670  Biso   1.000  C
  C98      1.0000 0.71589  0.79916  0.01022  Biso   1.000  C
  H37      1.0000 0.71980  0.75770  0.00840  Biso   1.000  H
  C99      1.0000 0.71016  0.82650  0.06518  Biso   1.000  C
  C100     1.0000 0.70720  0.88891  0.06662  Biso   1.000  C
  H38      1.0000 0.70280  0.90850  0.10320  Biso   1.000  H
  C101     1.0000 0.71070  0.92166  0.01519  Biso   1.000  C
  C102     1.0000 0.71230  0.89375  0.96057  Biso   1.000  C
  H39      1.0000 0.71090  0.91660  0.92570  Biso   1.000  H
  C103     1.0000 0.70881  0.79250  0.12296  Biso   1.000  C
  C104     1.0000 0.72155  0.80308  0.89515  Biso   1.000  C
  O49      1.0000 0.73938  0.75019  0.89344  Biso   1.000  O
  O50      1.0000 0.70750  0.83595  0.85191  Biso   1.000  O
  O51      1.0000 0.69417  0.82253  0.16920  Biso   1.000  O
  O52      1.0000 0.72319  0.73830  0.12159  Biso   1.000  O
  N13      1.0000 0.70650  0.98647  0.02248  Biso   1.000  N
  Mg14     1.0000 0.25937  0.32323  0.19084  Biso   1.000  Mg
  C105     1.0000 0.28400  0.16743  0.95670  Biso   1.000  C
  C106     1.0000 0.28411  0.20084  0.01022  Biso   1.000  C
  H40      1.0000 0.28020  0.24230  0.00840  Biso   1.000  H
  C107     1.0000 0.28984  0.17350  0.06518  Biso   1.000  C
  C108     1.0000 0.29280  0.11109  0.06662  Biso   1.000  C
  H41      1.0000 0.29720  0.09150  0.10320  Biso   1.000  H
  C109     1.0000 0.28930  0.07834  0.01519  Biso   1.000  C
  C110     1.0000 0.28770  0.10625  0.96057  Biso   1.000  C
  H42      1.0000 0.28910  0.08340  0.92570  Biso   1.000  H
  C111     1.0000 0.29119  0.20750  0.12296  Biso   1.000  C
  C112     1.0000 0.27845  0.19692  0.89515  Biso   1.000  C
  O53      1.0000 0.26062  0.24981  0.89344  Biso   1.000  O
  O54      1.0000 0.29250  0.16405  0.85191  Biso   1.000  O
  O55      1.0000 0.30583  0.17747  0.16920  Biso   1.000  O
  O56      1.0000 0.27681  0.26170  0.12159  Biso   1.000  O
  N14      1.0000 0.29350  0.01353  0.02248  Biso   1.000  N
  Mg15     1.0000 0.74063  0.32323  0.80916  Biso   1.000  Mg
  C113     1.0000 0.71600  0.16743  0.04330  Biso   1.000  C
  C114     1.0000 0.71589  0.20084  0.98978  Biso   1.000  C
  H43      1.0000 0.71980  0.24230  0.99160  Biso   1.000  H
  C115     1.0000 0.71016  0.17350  0.93482  Biso   1.000  C
  C116     1.0000 0.70720  0.11109  0.93338  Biso   1.000  C
  H44      1.0000 0.70280  0.09150  0.89680  Biso   1.000  H
  C117     1.0000 0.71070  0.07834  0.98481  Biso   1.000  C
  C118     1.0000 0.71230  0.10625  0.03943  Biso   1.000  C
  H45      1.0000 0.71090  0.08340  0.07430  Biso   1.000  H
  C119     1.0000 0.70881  0.20750  0.87704  Biso   1.000  C
  C120     1.0000 0.72155  0.19692  0.10485  Biso   1.000  C
  O57      1.0000 0.73938  0.24981  0.10656  Biso   1.000  O
  O58      1.0000 0.70750  0.16405  0.14809  Biso   1.000  O
  O59      1.0000 0.69417  0.17747  0.83080  Biso   1.000  O
  O60      1.0000 0.72319  0.26170  0.87841  Biso   1.000  O
  N15      1.0000 0.70650  0.01353  0.97752  Biso   1.000  N
  Mg16     1.0000 0.25937  0.67677  0.80916  Biso   1.000  Mg
  C121     1.0000 0.28400  0.83257  0.04330  Biso   1.000  C
  C122     1.0000 0.28411  0.79916  0.98978  Biso   1.000  C
  H46      1.0000 0.28020  0.75770  0.99160  Biso   1.000  H
  C123     1.0000 0.28984  0.82650  0.93482  Biso   1.000  C
  C124     1.0000 0.29280  0.88891  0.93338  Biso   1.000  C
  H47      1.0000 0.29720  0.90850  0.89680  Biso   1.000  H
  C125     1.0000 0.28930  0.92166  0.98481  Biso   1.000  C
  C126     1.0000 0.28770  0.89375  0.03943  Biso   1.000  C
  H48      1.0000 0.28910  0.91660  0.07430  Biso   1.000  H
  C127     1.0000 0.29119  0.79250  0.87704  Biso   1.000  C
  C128     1.0000 0.27845  0.80308  0.10485  Biso   1.000  C
  O61      1.0000 0.26062  0.75019  0.10656  Biso   1.000  O
  O62      1.0000 0.29250  0.83595  0.14809  Biso   1.000  O
  O63      1.0000 0.30583  0.82253  0.83080  Biso   1.000  O
  O64      1.0000 0.27681  0.73830  0.87841  Biso   1.000  O
  N16      1.0000 0.29350  0.98647  0.97752  Biso   1.000  N
  Mg17     1.0000 0.67677  0.19084  0.74063  Biso   1.000  Mg
  C129     1.0000 0.83257  0.95670  0.71600  Biso   1.000  C
  C130     1.0000 0.79916  0.01022  0.71589  Biso   1.000  C
  H49      1.0000 0.75770  0.00840  0.71980  Biso   1.000  H
  C131     1.0000 0.82650  0.06518  0.71016  Biso   1.000  C
  C132     1.0000 0.88891  0.06662  0.70720  Biso   1.000  C
  H50      1.0000 0.90850  0.10320  0.70280  Biso   1.000  H
  C133     1.0000 0.92166  0.01519  0.71070  Biso   1.000  C
  C134     1.0000 0.89375  0.96057  0.71230  Biso   1.000  C
  H51      1.0000 0.91660  0.92570  0.71090  Biso   1.000  H
  C135     1.0000 0.79250  0.12296  0.70881  Biso   1.000  C
  C136     1.0000 0.80308  0.89515  0.72155  Biso   1.000  C
  O65      1.0000 0.75019  0.89344  0.73938  Biso   1.000  O
  O66      1.0000 0.83595  0.85191  0.70750  Biso   1.000  O
  O67      1.0000 0.82253  0.16920  0.69417  Biso   1.000  O
  O68      1.0000 0.73830  0.12159  0.72319  Biso   1.000  O
  N17      1.0000 0.98647  0.02248  0.70650  Biso   1.000  N
  Mg18     1.0000 0.32323  0.19084  0.25937  Biso   1.000  Mg
  C137     1.0000 0.16743  0.95670  0.28400  Biso   1.000  C
  C138     1.0000 0.20084  0.01022  0.28411  Biso   1.000  C
  H52      1.0000 0.24230  0.00840  0.28020  Biso   1.000  H
  C139     1.0000 0.17350  0.06518  0.28984  Biso   1.000  C
  C140     1.0000 0.11109  0.06662  0.29280  Biso   1.000  C
  H53      1.0000 0.09150  0.10320  0.29720  Biso   1.000  H
  C141     1.0000 0.07834  0.01519  0.28930  Biso   1.000  C
  C142     1.0000 0.10625  0.96057  0.28770  Biso   1.000  C
  H54      1.0000 0.08340  0.92570  0.28910  Biso   1.000  H
  C143     1.0000 0.20750  0.12296  0.29119  Biso   1.000  C
  C144     1.0000 0.19692  0.89515  0.27845  Biso   1.000  C
  O69      1.0000 0.24981  0.89344  0.26062  Biso   1.000  O
  O70      1.0000 0.16405  0.85191  0.29250  Biso   1.000  O
  O71      1.0000 0.17747  0.16920  0.30583  Biso   1.000  O
  O72      1.0000 0.26170  0.12159  0.27681  Biso   1.000  O
  N18      1.0000 0.01353  0.02248  0.29350  Biso   1.000  N
  Mg19     1.0000 0.32323  0.80916  0.74063  Biso   1.000  Mg
  C145     1.0000 0.16743  0.04330  0.71600  Biso   1.000  C
  C146     1.0000 0.20084  0.98978  0.71589  Biso   1.000  C
  H55      1.0000 0.24230  0.99160  0.71980  Biso   1.000  H
  C147     1.0000 0.17350  0.93482  0.71016  Biso   1.000  C
  C148     1.0000 0.11109  0.93338  0.70720  Biso   1.000  C
  H56      1.0000 0.09150  0.89680  0.70280  Biso   1.000  H
  C149     1.0000 0.07834  0.98481  0.71070  Biso   1.000  C
  C150     1.0000 0.10625  0.03943  0.71230  Biso   1.000  C
  H57      1.0000 0.08340  0.07430  0.71090  Biso   1.000  H
  C151     1.0000 0.20750  0.87704  0.70881  Biso   1.000  C
  C152     1.0000 0.19692  0.10485  0.72155  Biso   1.000  C
  O73      1.0000 0.24981  0.10656  0.73938  Biso   1.000  O
  O74      1.0000 0.16405  0.14809  0.70750  Biso   1.000  O
  O75      1.0000 0.17747  0.83080  0.69417  Biso   1.000  O
  O76      1.0000 0.26170  0.87841  0.72319  Biso   1.000  O
  N19      1.0000 0.01353  0.97752  0.70650  Biso   1.000  N
  Mg20     1.0000 0.67677  0.80916  0.25937  Biso   1.000  Mg
  C153     1.0000 0.83257  0.04330  0.28400  Biso   1.000  C
  C154     1.0000 0.79916  0.98978  0.28411  Biso   1.000  C
  H58      1.0000 0.75770  0.99160  0.28020  Biso   1.000  H
  C155     1.0000 0.82650  0.93482  0.28984  Biso   1.000  C
  C156     1.0000 0.88891  0.93338  0.29280  Biso   1.000  C
  H59      1.0000 0.90850  0.89680  0.29720  Biso   1.000  H
  C157     1.0000 0.92166  0.98481  0.28930  Biso   1.000  C
  C158     1.0000 0.89375  0.03943  0.28770  Biso   1.000  C
  H60      1.0000 0.91660  0.07430  0.28910  Biso   1.000  H
  C159     1.0000 0.79250  0.87704  0.29119  Biso   1.000  C
  C160     1.0000 0.80308  0.10485  0.27845  Biso   1.000  C
  O77      1.0000 0.75019  0.10656  0.26062  Biso   1.000  O
  O78      1.0000 0.83595  0.14809  0.29250  Biso   1.000  O
  O79      1.0000 0.82253  0.83080  0.30583  Biso   1.000  O
  O80      1.0000 0.73830  0.87841  0.27681  Biso   1.000  O
  N20      1.0000 0.98647  0.97752  0.29350  Biso   1.000  N
  Mg21     1.0000 0.19084  0.74063  0.67677  Biso   1.000  Mg
  C161     1.0000 0.95670  0.71600  0.83257  Biso   1.000  C
  C162     1.0000 0.01022  0.71589  0.79916  Biso   1.000  C
  H61      1.0000 0.00840  0.71980  0.75770  Biso   1.000  H
  C163     1.0000 0.06518  0.71016  0.82650  Biso   1.000  C
  C164     1.0000 0.06662  0.70720  0.88891  Biso   1.000  C
  H62      1.0000 0.10320  0.70280  0.90850  Biso   1.000  H
  C165     1.0000 0.01519  0.71070  0.92166  Biso   1.000  C
  C166     1.0000 0.96057  0.71230  0.89375  Biso   1.000  C
  H63      1.0000 0.92570  0.71090  0.91660  Biso   1.000  H
  C167     1.0000 0.12296  0.70881  0.79250  Biso   1.000  C
  C168     1.0000 0.89515  0.72155  0.80308  Biso   1.000  C
  O81      1.0000 0.89344  0.73938  0.75019  Biso   1.000  O
  O82      1.0000 0.85191  0.70750  0.83595  Biso   1.000  O
  O83      1.0000 0.16920  0.69417  0.82253  Biso   1.000  O
  O84      1.0000 0.12159  0.72319  0.73830  Biso   1.000  O
  N21      1.0000 0.02248  0.70650  0.98647  Biso   1.000  N
  Mg22     1.0000 0.19084  0.25937  0.32323  Biso   1.000  Mg
  C169     1.0000 0.95670  0.28400  0.16743  Biso   1.000  C
  C170     1.0000 0.01022  0.28411  0.20084  Biso   1.000  C
  H64      1.0000 0.00840  0.28020  0.24230  Biso   1.000  H
  C171     1.0000 0.06518  0.28984  0.17350  Biso   1.000  C
  C172     1.0000 0.06662  0.29280  0.11109  Biso   1.000  C
  H65      1.0000 0.10320  0.29720  0.09150  Biso   1.000  H
  C173     1.0000 0.01519  0.28930  0.07834  Biso   1.000  C
  C174     1.0000 0.96057  0.28770  0.10625  Biso   1.000  C
  H66      1.0000 0.92570  0.28910  0.08340  Biso   1.000  H
  C175     1.0000 0.12296  0.29119  0.20750  Biso   1.000  C
  C176     1.0000 0.89515  0.27845  0.19692  Biso   1.000  C
  O85      1.0000 0.89344  0.26062  0.24981  Biso   1.000  O
  O86      1.0000 0.85191  0.29250  0.16405  Biso   1.000  O
  O87      1.0000 0.16920  0.30583  0.17747  Biso   1.000  O
  O88      1.0000 0.12159  0.27681  0.26170  Biso   1.000  O
  N22      1.0000 0.02248  0.29350  0.01353  Biso   1.000  N
  Mg23     1.0000 0.80916  0.74063  0.32323  Biso   1.000  Mg
  C177     1.0000 0.04330  0.71600  0.16743  Biso   1.000  C
  C178     1.0000 0.98978  0.71589  0.20084  Biso   1.000  C
  H67      1.0000 0.99160  0.71980  0.24230  Biso   1.000  H
  C179     1.0000 0.93482  0.71016  0.17350  Biso   1.000  C
  C180     1.0000 0.93338  0.70720  0.11109  Biso   1.000  C
  H68      1.0000 0.89680  0.70280  0.09150  Biso   1.000  H
  C181     1.0000 0.98481  0.71070  0.07834  Biso   1.000  C
  C182     1.0000 0.03943  0.71230  0.10625  Biso   1.000  C
  H69      1.0000 0.07430  0.71090  0.08340  Biso   1.000  H
  C183     1.0000 0.87704  0.70881  0.20750  Biso   1.000  C
  C184     1.0000 0.10485  0.72155  0.19692  Biso   1.000  C
  O89      1.0000 0.10656  0.73938  0.24981  Biso   1.000  O
  O90      1.0000 0.14809  0.70750  0.16405  Biso   1.000  O
  O91      1.0000 0.83080  0.69417  0.17747  Biso   1.000  O
  O92      1.0000 0.87841  0.72319  0.26170  Biso   1.000  O
  N23      1.0000 0.97752  0.70650  0.01353  Biso   1.000  N
  Mg24     1.0000 0.80916  0.25937  0.67677  Biso   1.000  Mg
  C185     1.0000 0.04330  0.28400  0.83257  Biso   1.000  C
  C186     1.0000 0.98978  0.28411  0.79916  Biso   1.000  C
  H70      1.0000 0.99160  0.28020  0.75770  Biso   1.000  H
  C187     1.0000 0.93482  0.28984  0.82650  Biso   1.000  C
  C188     1.0000 0.93338  0.29280  0.88891  Biso   1.000  C
  H71      1.0000 0.89680  0.29720  0.90850  Biso   1.000  H
  C189     1.0000 0.98481  0.28930  0.92166  Biso   1.000  C
  C190     1.0000 0.03943  0.28770  0.89375  Biso   1.000  C
  H72      1.0000 0.07430  0.28910  0.91660  Biso   1.000  H
  C191     1.0000 0.87704  0.29119  0.79250  Biso   1.000  C
  C192     1.0000 0.10485  0.27845  0.80308  Biso   1.000  C
  O93      1.0000 0.10656  0.26062  0.75019  Biso   1.000  O
  O94      1.0000 0.14809  0.29250  0.83595  Biso   1.000  O
  O95      1.0000 0.83080  0.30583  0.82253  Biso   1.000  O
  O96      1.0000 0.87841  0.27681  0.73830  Biso   1.000  O
  N24      1.0000 0.97752  0.29350  0.98647  Biso   1.000  N
  O97      1.0000 0.23806  0.23806  0.76194  Biso   1.000  O
  O98      1.0000 0.76194  0.76194  0.76194  Biso   1.000  O
  O99      1.0000 0.76194  0.23806  0.23806  Biso   1.000  O
  O100     1.0000 0.23806  0.76194  0.23806  Biso   1.000  O
  O101     1.0000 0.73806  0.73806  0.26194  Biso   1.000  O
  O102     1.0000 0.26194  0.26194  0.26194  Biso   1.000  O
  O103     1.0000 0.73806  0.26194  0.73806  Biso   1.000  O
  O104     1.0000 0.26194  0.73806  0.73806  Biso   1.000  O
