data_image0
_cell_length_a       21.9692
_cell_length_b       21.9692
_cell_length_c       21.9692
_cell_angle_alpha    90
_cell_angle_beta     90
_cell_angle_gamma    90

_symmetry_space_group_name_H-M    "P 1"
_symmetry_int_tables_number       1

loop_
  _symmetry_equiv_pos_as_xyz
  'x, y, z'

loop_
  _atom_site_label
  _atom_site_occupancy
  _atom_site_fract_x
  _atom_site_fract_y
  _atom_site_fract_z
  _atom_site_thermal_displace_type
  _atom_site_B_iso_or_equiv
  _atom_site_type_symbol
  Mg1      1.0000 0.67826  0.25965  0.19353  Biso   1.000  Mg
  C1       1.0000 0.79110  0.29370  0.12540  Biso   1.000  C
  C2       1.0000 0.79890  0.28660  0.01020  Biso   1.000  C
  H1       1.0000 0.75700  0.28080  0.00820  Biso   1.000  H
  C3       1.0000 0.82390  0.29520  0.06670  Biso   1.000  C
  C4       1.0000 0.83120  0.28590  0.95540  Biso   1.000  C
  C5       1.0000 0.80220  0.28000  0.89320  Biso   1.000  C
  C6       1.0000 0.92170  0.30540  0.01540  Biso   1.000  C
  C7       1.0000 0.88840  0.30320  0.06680  Biso   1.000  C
  H2       1.0000 0.90830  0.30700  0.10400  Biso   1.000  H
  C8       1.0000 0.89170  0.29940  0.95900  Biso   1.000  C
  H3       1.0000 0.91380  0.30470  0.92330  Biso   1.000  H
  N1       1.0000 0.98440  0.30870  0.02420  Biso   1.000  N
  O1       1.0000 0.75010  0.25940  0.89344  Biso   1.000  O
  O2       1.0000 0.73490  0.27687  0.12387  Biso   1.000  O
  O3       1.0000 0.83590  0.29620  0.84970  Biso   1.000  O
  O4       1.0000 0.82000  0.30961  0.17180  Biso   1.000  O
  Mg2      1.0000 0.32174  0.74035  0.19353  Biso   1.000  Mg
  C9       1.0000 0.20890  0.70630  0.12540  Biso   1.000  C
  C10      1.0000 0.20110  0.71340  0.01020  Biso   1.000  C
  H4       1.0000 0.24300  0.71920  0.00820  Biso   1.000  H
  C11      1.0000 0.17610  0.70480  0.06670  Biso   1.000  C
  C12      1.0000 0.16880  0.71410  0.95540  Biso   1.000  C
  C13      1.0000 0.19780  0.72000  0.89320  Biso   1.000  C
  C14      1.0000 0.07830  0.69460  0.01540  Biso   1.000  C
  C15      1.0000 0.11160  0.69680  0.06680  Biso   1.000  C
  H5       1.0000 0.09170  0.69300  0.10400  Biso   1.000  H
  C16      1.0000 0.10830  0.70060  0.95900  Biso   1.000  C
  H6       1.0000 0.08620  0.69530  0.92330  Biso   1.000  H
  N2       1.0000 0.01560  0.69130  0.02420  Biso   1.000  N
  O5       1.0000 0.24990  0.74060  0.89344  Biso   1.000  O
  O6       1.0000 0.26510  0.72313  0.12387  Biso   1.000  O
  O7       1.0000 0.16410  0.70380  0.84970  Biso   1.000  O
  O8       1.0000 0.18000  0.69039  0.17180  Biso   1.000  O
  Mg3      1.0000 0.32174  0.25965  0.80647  Biso   1.000  Mg
  C17      1.0000 0.20890  0.29370  0.87460  Biso   1.000  C
  C18      1.0000 0.20110  0.28660  0.98980  Biso   1.000  C
  H7       1.0000 0.24300  0.28080  0.99180  Biso   1.000  H
  C19      1.0000 0.17610  0.29520  0.93330  Biso   1.000  C
  C20      1.0000 0.16880  0.28590  0.04460  Biso   1.000  C
  C21      1.0000 0.19780  0.28000  0.10680  Biso   1.000  C
  C22      1.0000 0.07830  0.30540  0.98460  Biso   1.000  C
  C23      1.0000 0.11160  0.30320  0.93320  Biso   1.000  C
  H8       1.0000 0.09170  0.30700  0.89600  Biso   1.000  H
  C24      1.0000 0.10830  0.29940  0.04100  Biso   1.000  C
  H9       1.0000 0.08620  0.30470  0.07670  Biso   1.000  H
  N3       1.0000 0.01560  0.30870  0.97580  Biso   1.000  N
  O9       1.0000 0.24990  0.25940  0.10656  Biso   1.000  O
  O10      1.0000 0.26510  0.27687  0.87613  Biso   1.000  O
  O11      1.0000 0.16410  0.29620  0.15030  Biso   1.000  O
  O12      1.0000 0.18000  0.30961  0.82820  Biso   1.000  O
  Mg4      1.0000 0.67826  0.74035  0.80647  Biso   1.000  Mg
  C25      1.0000 0.79110  0.70630  0.87460  Biso   1.000  C
  C26      1.0000 0.79890  0.71340  0.98980  Biso   1.000  C
  H10      1.0000 0.75700  0.71920  0.99180  Biso   1.000  H
  C27      1.0000 0.82390  0.70480  0.93330  Biso   1.000  C
  C28      1.0000 0.83120  0.71410  0.04460  Biso   1.000  C
  C29      1.0000 0.80220  0.72000  0.10680  Biso   1.000  C
  C30      1.0000 0.92170  0.69460  0.98460  Biso   1.000  C
  C31      1.0000 0.88840  0.69680  0.93320  Biso   1.000  C
  H11      1.0000 0.90830  0.69300  0.89600  Biso   1.000  H
  C32      1.0000 0.89170  0.70060  0.04100  Biso   1.000  C
  H12      1.0000 0.91380  0.69530  0.07670  Biso   1.000  H
  N4       1.0000 0.98440  0.69130  0.97580  Biso   1.000  N
  O13      1.0000 0.75010  0.74060  0.10656  Biso   1.000  O
  O14      1.0000 0.73490  0.72313  0.87613  Biso   1.000  O
  O15      1.0000 0.83590  0.70380  0.15030  Biso   1.000  O
  O16      1.0000 0.82000  0.69039  0.82820  Biso   1.000  O
  Mg5      1.0000 0.19353  0.67826  0.25965  Biso   1.000  Mg
  C33      1.0000 0.12540  0.79110  0.29370  Biso   1.000  C
  C34      1.0000 0.01020  0.79890  0.28660  Biso   1.000  C
  H13      1.0000 0.00820  0.75700  0.28080  Biso   1.000  H
  C35      1.0000 0.06670  0.82390  0.29520  Biso   1.000  C
  C36      1.0000 0.95540  0.83120  0.28590  Biso   1.000  C
  C37      1.0000 0.89320  0.80220  0.28000  Biso   1.000  C
  C38      1.0000 0.01540  0.92170  0.30540  Biso   1.000  C
  C39      1.0000 0.06680  0.88840  0.30320  Biso   1.000  C
  H14      1.0000 0.10400  0.90830  0.30700  Biso   1.000  H
  C40      1.0000 0.95900  0.89170  0.29940  Biso   1.000  C
  H15      1.0000 0.92330  0.91380  0.30470  Biso   1.000  H
  N5       1.0000 0.02420  0.98440  0.30870  Biso   1.000  N
  O17      1.0000 0.89344  0.75010  0.25940  Biso   1.000  O
  O18      1.0000 0.12387  0.73490  0.27687  Biso   1.000  O
  O19      1.0000 0.84970  0.83590  0.29620  Biso   1.000  O
  O20      1.0000 0.17180  0.82000  0.30961  Biso   1.000  O
  Mg6      1.0000 0.19353  0.32174  0.74035  Biso   1.000  Mg
  C41      1.0000 0.12540  0.20890  0.70630  Biso   1.000  C
  C42      1.0000 0.01020  0.20110  0.71340  Biso   1.000  C
  H16      1.0000 0.00820  0.24300  0.71920  Biso   1.000  H
  C43      1.0000 0.06670  0.17610  0.70480  Biso   1.000  C
  C44      1.0000 0.95540  0.16880  0.71410  Biso   1.000  C
  C45      1.0000 0.89320  0.19780  0.72000  Biso   1.000  C
  C46      1.0000 0.01540  0.07830  0.69460  Biso   1.000  C
  C47      1.0000 0.06680  0.11160  0.69680  Biso   1.000  C
  H17      1.0000 0.10400  0.09170  0.69300  Biso   1.000  H
  C48      1.0000 0.95900  0.10830  0.70060  Biso   1.000  C
  H18      1.0000 0.92330  0.08620  0.69530  Biso   1.000  H
  N6       1.0000 0.02420  0.01560  0.69130  Biso   1.000  N
  O21      1.0000 0.89344  0.24990  0.74060  Biso   1.000  O
  O22      1.0000 0.12387  0.26510  0.72313  Biso   1.000  O
  O23      1.0000 0.84970  0.16410  0.70380  Biso   1.000  O
  O24      1.0000 0.17180  0.18000  0.69039  Biso   1.000  O
  Mg7      1.0000 0.80647  0.32174  0.25965  Biso   1.000  Mg
  C49      1.0000 0.87460  0.20890  0.29370  Biso   1.000  C
  C50      1.0000 0.98980  0.20110  0.28660  Biso   1.000  C
  H19      1.0000 0.99180  0.24300  0.28080  Biso   1.000  H
  C51      1.0000 0.93330  0.17610  0.29520  Biso   1.000  C
  C52      1.0000 0.04460  0.16880  0.28590  Biso   1.000  C
  C53      1.0000 0.10680  0.19780  0.28000  Biso   1.000  C
  C54      1.0000 0.98460  0.07830  0.30540  Biso   1.000  C
  C55      1.0000 0.93320  0.11160  0.30320  Biso   1.000  C
  H20      1.0000 0.89600  0.09170  0.30700  Biso   1.000  H
  C56      1.0000 0.04100  0.10830  0.29940  Biso   1.000  C
  H21      1.0000 0.07670  0.08620  0.30470  Biso   1.000  H
  N7       1.0000 0.97580  0.01560  0.30870  Biso   1.000  N
  O25      1.0000 0.10656  0.24990  0.25940  Biso   1.000  O
  O26      1.0000 0.87613  0.26510  0.27687  Biso   1.000  O
  O27      1.0000 0.15030  0.16410  0.29620  Biso   1.000  O
  O28      1.0000 0.82820  0.18000  0.30961  Biso   1.000  O
  Mg8      1.0000 0.80647  0.67826  0.74035  Biso   1.000  Mg
  C57      1.0000 0.87460  0.79110  0.70630  Biso   1.000  C
  C58      1.0000 0.98980  0.79890  0.71340  Biso   1.000  C
  H22      1.0000 0.99180  0.75700  0.71920  Biso   1.000  H
  C59      1.0000 0.93330  0.82390  0.70480  Biso   1.000  C
  C60      1.0000 0.04460  0.83120  0.71410  Biso   1.000  C
  C61      1.0000 0.10680  0.80220  0.72000  Biso   1.000  C
  C62      1.0000 0.98460  0.92170  0.69460  Biso   1.000  C
  C63      1.0000 0.93320  0.88840  0.69680  Biso   1.000  C
  H23      1.0000 0.89600  0.90830  0.69300  Biso   1.000  H
  C64      1.0000 0.04100  0.89170  0.70060  Biso   1.000  C
  H24      1.0000 0.07670  0.91380  0.69530  Biso   1.000  H
  N8       1.0000 0.97580  0.98440  0.69130  Biso   1.000  N
  O29      1.0000 0.10656  0.75010  0.74060  Biso   1.000  O
  O30      1.0000 0.87613  0.73490  0.72313  Biso   1.000  O
  O31      1.0000 0.15030  0.83590  0.70380  Biso   1.000  O
  O32      1.0000 0.82820  0.82000  0.69039  Biso   1.000  O
  Mg9      1.0000 0.25965  0.19353  0.67826  Biso   1.000  Mg
  C65      1.0000 0.29370  0.12540  0.79110  Biso   1.000  C
  C66      1.0000 0.28660  0.01020  0.79890  Biso   1.000  C
  H25      1.0000 0.28080  0.00820  0.75700  Biso   1.000  H
  C67      1.0000 0.29520  0.06670  0.82390  Biso   1.000  C
  C68      1.0000 0.28590  0.95540  0.83120  Biso   1.000  C
  C69      1.0000 0.28000  0.89320  0.80220  Biso   1.000  C
  C70      1.0000 0.30540  0.01540  0.92170  Biso   1.000  C
  C71      1.0000 0.30320  0.06680  0.88840  Biso   1.000  C
  H26      1.0000 0.30700  0.10400  0.90830  Biso   1.000  H
  C72      1.0000 0.29940  0.95900  0.89170  Biso   1.000  C
  H27      1.0000 0.30470  0.92330  0.91380  Biso   1.000  H
  N9       1.0000 0.30870  0.02420  0.98440  Biso   1.000  N
  O33      1.0000 0.25940  0.89344  0.75010  Biso   1.000  O
  O34      1.0000 0.27687  0.12387  0.73490  Biso   1.000  O
  O35      1.0000 0.29620  0.84970  0.83590  Biso   1.000  O
  O36      1.0000 0.30961  0.17180  0.82000  Biso   1.000  O
  Mg10     1.0000 0.74035  0.19353  0.32174  Biso   1.000  Mg
  C73      1.0000 0.70630  0.12540  0.20890  Biso   1.000  C
  C74      1.0000 0.71340  0.01020  0.20110  Biso   1.000  C
  H28      1.0000 0.71920  0.00820  0.24300  Biso   1.000  H
  C75      1.0000 0.70480  0.06670  0.17610  Biso   1.000  C
  C76      1.0000 0.71410  0.95540  0.16880  Biso   1.000  C
  C77      1.0000 0.72000  0.89320  0.19780  Biso   1.000  C
  C78      1.0000 0.69460  0.01540  0.07830  Biso   1.000  C
  C79      1.0000 0.69680  0.06680  0.11160  Biso   1.000  C
  H29      1.0000 0.69300  0.10400  0.09170  Biso   1.000  H
  C80      1.0000 0.70060  0.95900  0.10830  Biso   1.000  C
  H30      1.0000 0.69530  0.92330  0.08620  Biso   1.000  H
  N10      1.0000 0.69130  0.02420  0.01560  Biso   1.000  N
  O37      1.0000 0.74060  0.89344  0.24990  Biso   1.000  O
  O38      1.0000 0.72313  0.12387  0.26510  Biso   1.000  O
  O39      1.0000 0.70380  0.84970  0.16410  Biso   1.000  O
  O40      1.0000 0.69039  0.17180  0.18000  Biso   1.000  O
  Mg11     1.0000 0.25965  0.80647  0.32174  Biso   1.000  Mg
  C81      1.0000 0.29370  0.87460  0.20890  Biso   1.000  C
  C82      1.0000 0.28660  0.98980  0.20110  Biso   1.000  C
  H31      1.0000 0.28080  0.99180  0.24300  Biso   1.000  H
  C83      1.0000 0.29520  0.93330  0.17610  Biso   1.000  C
  C84      1.0000 0.28590  0.04460  0.16880  Biso   1.000  C
  C85      1.0000 0.28000  0.10680  0.19780  Biso   1.000  C
  C86      1.0000 0.30540  0.98460  0.07830  Biso   1.000  C
  C87      1.0000 0.30320  0.93320  0.11160  Biso   1.000  C
  H32      1.0000 0.30700  0.89600  0.09170  Biso   1.000  H
  C88      1.0000 0.29940  0.04100  0.10830  Biso   1.000  C
  H33      1.0000 0.30470  0.07670  0.08620  Biso   1.000  H
  N11      1.0000 0.30870  0.97580  0.01560  Biso   1.000  N
  O41      1.0000 0.25940  0.10656  0.24990  Biso   1.000  O
  O42      1.0000 0.27687  0.87613  0.26510  Biso   1.000  O
  O43      1.0000 0.29620  0.15030  0.16410  Biso   1.000  O
  O44      1.0000 0.30961  0.82820  0.18000  Biso   1.000  O
  Mg12     1.0000 0.74035  0.80647  0.67826  Biso   1.000  Mg
  C89      1.0000 0.70630  0.87460  0.79110  Biso   1.000  C
  C90      1.0000 0.71340  0.98980  0.79890  Biso   1.000  C
  H34      1.0000 0.71920  0.99180  0.75700  Biso   1.000  H
  C91      1.0000 0.70480  0.93330  0.82390  Biso   1.000  C
  C92      1.0000 0.71410  0.04460  0.83120  Biso   1.000  C
  C93      1.0000 0.72000  0.10680  0.80220  Biso   1.000  C
  C94      1.0000 0.69460  0.98460  0.92170  Biso   1.000  C
  C95      1.0000 0.69680  0.93320  0.88840  Biso   1.000  C
  H35      1.0000 0.69300  0.89600  0.90830  Biso   1.000  H
  C96      1.0000 0.70060  0.04100  0.89170  Biso   1.000  C
  H36      1.0000 0.69530  0.07670  0.91380  Biso   1.000  H
  N12      1.0000 0.69130  0.97580  0.98440  Biso   1.000  N
  O45      1.0000 0.74060  0.10656  0.75010  Biso   1.000  O
  O46      1.0000 0.72313  0.87613  0.73490  Biso   1.000  O
  O47      1.0000 0.70380  0.15030  0.83590  Biso   1.000  O
  O48      1.0000 0.69039  0.82820  0.82000  Biso   1.000  O
  Mg13     1.0000 0.75965  0.17826  0.69353  Biso   1.000  Mg
  C97      1.0000 0.79370  0.29110  0.62540  Biso   1.000  C
  C98      1.0000 0.78660  0.29890  0.51020  Biso   1.000  C
  H37      1.0000 0.78080  0.25700  0.50820  Biso   1.000  H
  C99      1.0000 0.79520  0.32390  0.56670  Biso   1.000  C
  C100     1.0000 0.78590  0.33120  0.45540  Biso   1.000  C
  C101     1.0000 0.78000  0.30220  0.39320  Biso   1.000  C
  C102     1.0000 0.80540  0.42170  0.51540  Biso   1.000  C
  C103     1.0000 0.80320  0.38840  0.56680  Biso   1.000  C
  H38      1.0000 0.80700  0.40830  0.60400  Biso   1.000  H
  C104     1.0000 0.79940  0.39170  0.45900  Biso   1.000  C
  H39      1.0000 0.80470  0.41380  0.42330  Biso   1.000  H
  N13      1.0000 0.80870  0.48440  0.52420  Biso   1.000  N
  O49      1.0000 0.75940  0.25010  0.39344  Biso   1.000  O
  O50      1.0000 0.77687  0.23490  0.62387  Biso   1.000  O
  O51      1.0000 0.79620  0.33590  0.34970  Biso   1.000  O
  O52      1.0000 0.80961  0.32000  0.67180  Biso   1.000  O
  Mg14     1.0000 0.24035  0.82174  0.69353  Biso   1.000  Mg
  C105     1.0000 0.20630  0.70890  0.62540  Biso   1.000  C
  C106     1.0000 0.21340  0.70110  0.51020  Biso   1.000  C
  H40      1.0000 0.21920  0.74300  0.50820  Biso   1.000  H
  C107     1.0000 0.20480  0.67610  0.56670  Biso   1.000  C
  C108     1.0000 0.21410  0.66880  0.45540  Biso   1.000  C
  C109     1.0000 0.22000  0.69780  0.39320  Biso   1.000  C
  C110     1.0000 0.19460  0.57830  0.51540  Biso   1.000  C
  C111     1.0000 0.19680  0.61160  0.56680  Biso   1.000  C
  H41      1.0000 0.19300  0.59170  0.60400  Biso   1.000  H
  C112     1.0000 0.20060  0.60830  0.45900  Biso   1.000  C
  H42      1.0000 0.19530  0.58620  0.42330  Biso   1.000  H
  N14      1.0000 0.19130  0.51560  0.52420  Biso   1.000  N
  O53      1.0000 0.24060  0.74990  0.39344  Biso   1.000  O
  O54      1.0000 0.22313  0.76510  0.62387  Biso   1.000  O
  O55      1.0000 0.20380  0.66410  0.34970  Biso   1.000  O
  O56      1.0000 0.19039  0.68000  0.67180  Biso   1.000  O
  Mg15     1.0000 0.75965  0.82174  0.30647  Biso   1.000  Mg
  C113     1.0000 0.79370  0.70890  0.37460  Biso   1.000  C
  C114     1.0000 0.78660  0.70110  0.48980  Biso   1.000  C
  H43      1.0000 0.78080  0.74300  0.49180  Biso   1.000  H
  C115     1.0000 0.79520  0.67610  0.43330  Biso   1.000  C
  C116     1.0000 0.78590  0.66880  0.54460  Biso   1.000  C
  C117     1.0000 0.78000  0.69780  0.60680  Biso   1.000  C
  C118     1.0000 0.80540  0.57830  0.48460  Biso   1.000  C
  C119     1.0000 0.80320  0.61160  0.43320  Biso   1.000  C
  H44      1.0000 0.80700  0.59170  0.39600  Biso   1.000  H
  C120     1.0000 0.79940  0.60830  0.54100  Biso   1.000  C
  H45      1.0000 0.80470  0.58620  0.57670  Biso   1.000  H
  N15      1.0000 0.80870  0.51560  0.47580  Biso   1.000  N
  O57      1.0000 0.75940  0.74990  0.60656  Biso   1.000  O
  O58      1.0000 0.77687  0.76510  0.37613  Biso   1.000  O
  O59      1.0000 0.79620  0.66410  0.65030  Biso   1.000  O
  O60      1.0000 0.80961  0.68000  0.32820  Biso   1.000  O
  Mg16     1.0000 0.24035  0.17826  0.30647  Biso   1.000  Mg
  C121     1.0000 0.20630  0.29110  0.37460  Biso   1.000  C
  C122     1.0000 0.21340  0.29890  0.48980  Biso   1.000  C
  H46      1.0000 0.21920  0.25700  0.49180  Biso   1.000  H
  C123     1.0000 0.20480  0.32390  0.43330  Biso   1.000  C
  C124     1.0000 0.21410  0.33120  0.54460  Biso   1.000  C
  C125     1.0000 0.22000  0.30220  0.60680  Biso   1.000  C
  C126     1.0000 0.19460  0.42170  0.48460  Biso   1.000  C
  C127     1.0000 0.19680  0.38840  0.43320  Biso   1.000  C
  H47      1.0000 0.19300  0.40830  0.39600  Biso   1.000  H
  C128     1.0000 0.20060  0.39170  0.54100  Biso   1.000  C
  H48      1.0000 0.19530  0.41380  0.57670  Biso   1.000  H
  N16      1.0000 0.19130  0.48440  0.47580  Biso   1.000  N
  O61      1.0000 0.24060  0.25010  0.60656  Biso   1.000  O
  O62      1.0000 0.22313  0.23490  0.37613  Biso   1.000  O
  O63      1.0000 0.20380  0.33590  0.65030  Biso   1.000  O
  O64      1.0000 0.19039  0.32000  0.32820  Biso   1.000  O
  Mg17     1.0000 0.17826  0.69353  0.75965  Biso   1.000  Mg
  C129     1.0000 0.29110  0.62540  0.79370  Biso   1.000  C
  C130     1.0000 0.29890  0.51020  0.78660  Biso   1.000  C
  H49      1.0000 0.25700  0.50820  0.78080  Biso   1.000  H
  C131     1.0000 0.32390  0.56670  0.79520  Biso   1.000  C
  C132     1.0000 0.33120  0.45540  0.78590  Biso   1.000  C
  C133     1.0000 0.30220  0.39320  0.78000  Biso   1.000  C
  C134     1.0000 0.42170  0.51540  0.80540  Biso   1.000  C
  C135     1.0000 0.38840  0.56680  0.80320  Biso   1.000  C
  H50      1.0000 0.40830  0.60400  0.80700  Biso   1.000  H
  C136     1.0000 0.39170  0.45900  0.79940  Biso   1.000  C
  H51      1.0000 0.41380  0.42330  0.80470  Biso   1.000  H
  N17      1.0000 0.48440  0.52420  0.80870  Biso   1.000  N
  O65      1.0000 0.25010  0.39344  0.75940  Biso   1.000  O
  O66      1.0000 0.23490  0.62387  0.77687  Biso   1.000  O
  O67      1.0000 0.33590  0.34970  0.79620  Biso   1.000  O
  O68      1.0000 0.32000  0.67180  0.80961  Biso   1.000  O
  Mg18     1.0000 0.82174  0.69353  0.24035  Biso   1.000  Mg
  C137     1.0000 0.70890  0.62540  0.20630  Biso   1.000  C
  C138     1.0000 0.70110  0.51020  0.21340  Biso   1.000  C
  H52      1.0000 0.74300  0.50820  0.21920  Biso   1.000  H
  C139     1.0000 0.67610  0.56670  0.20480  Biso   1.000  C
  C140     1.0000 0.66880  0.45540  0.21410  Biso   1.000  C
  C141     1.0000 0.69780  0.39320  0.22000  Biso   1.000  C
  C142     1.0000 0.57830  0.51540  0.19460  Biso   1.000  C
  C143     1.0000 0.61160  0.56680  0.19680  Biso   1.000  C
  H53      1.0000 0.59170  0.60400  0.19300  Biso   1.000  H
  C144     1.0000 0.60830  0.45900  0.20060  Biso   1.000  C
  H54      1.0000 0.58620  0.42330  0.19530  Biso   1.000  H
  N18      1.0000 0.51560  0.52420  0.19130  Biso   1.000  N
  O69      1.0000 0.74990  0.39344  0.24060  Biso   1.000  O
  O70      1.0000 0.76510  0.62387  0.22313  Biso   1.000  O
  O71      1.0000 0.66410  0.34970  0.20380  Biso   1.000  O
  O72      1.0000 0.68000  0.67180  0.19039  Biso   1.000  O
  Mg19     1.0000 0.82174  0.30647  0.75965  Biso   1.000  Mg
  C145     1.0000 0.70890  0.37460  0.79370  Biso   1.000  C
  C146     1.0000 0.70110  0.48980  0.78660  Biso   1.000  C
  H55      1.0000 0.74300  0.49180  0.78080  Biso   1.000  H
  C147     1.0000 0.67610  0.43330  0.79520  Biso   1.000  C
  C148     1.0000 0.66880  0.54460  0.78590  Biso   1.000  C
  C149     1.0000 0.69780  0.60680  0.78000  Biso   1.000  C
  C150     1.0000 0.57830  0.48460  0.80540  Biso   1.000  C
  C151     1.0000 0.61160  0.43320  0.80320  Biso   1.000  C
  H56      1.0000 0.59170  0.39600  0.80700  Biso   1.000  H
  C152     1.0000 0.60830  0.54100  0.79940  Biso   1.000  C
  H57      1.0000 0.58620  0.57670  0.80470  Biso   1.000  H
  N19      1.0000 0.51560  0.47580  0.80870  Biso   1.000  N
  O73      1.0000 0.74990  0.60656  0.75940  Biso   1.000  O
  O74      1.0000 0.76510  0.37613  0.77687  Biso   1.000  O
  O75      1.0000 0.66410  0.65030  0.79620  Biso   1.000  O
  O76      1.0000 0.68000  0.32820  0.80961  Biso   1.000  O
  Mg20     1.0000 0.17826  0.30647  0.24035  Biso   1.000  Mg
  C153     1.0000 0.29110  0.37460  0.20630  Biso   1.000  C
  C154     1.0000 0.29890  0.48980  0.21340  Biso   1.000  C
  H58      1.0000 0.25700  0.49180  0.21920  Biso   1.000  H
  C155     1.0000 0.32390  0.43330  0.20480  Biso   1.000  C
  C156     1.0000 0.33120  0.54460  0.21410  Biso   1.000  C
  C157     1.0000 0.30220  0.60680  0.22000  Biso   1.000  C
  C158     1.0000 0.42170  0.48460  0.19460  Biso   1.000  C
  C159     1.0000 0.38840  0.43320  0.19680  Biso   1.000  C
  H59      1.0000 0.40830  0.39600  0.19300  Biso   1.000  H
  C160     1.0000 0.39170  0.54100  0.20060  Biso   1.000  C
  H60      1.0000 0.41380  0.57670  0.19530  Biso   1.000  H
  N20      1.0000 0.48440  0.47580  0.19130  Biso   1.000  N
  O77      1.0000 0.25010  0.60656  0.24060  Biso   1.000  O
  O78      1.0000 0.23490  0.37613  0.22313  Biso   1.000  O
  O79      1.0000 0.33590  0.65030  0.20380  Biso   1.000  O
  O80      1.0000 0.32000  0.32820  0.19039  Biso   1.000  O
  Mg21     1.0000 0.69353  0.75965  0.17826  Biso   1.000  Mg
  C161     1.0000 0.62540  0.79370  0.29110  Biso   1.000  C
  C162     1.0000 0.51020  0.78660  0.29890  Biso   1.000  C
  H61      1.0000 0.50820  0.78080  0.25700  Biso   1.000  H
  C163     1.0000 0.56670  0.79520  0.32390  Biso   1.000  C
  C164     1.0000 0.45540  0.78590  0.33120  Biso   1.000  C
  C165     1.0000 0.39320  0.78000  0.30220  Biso   1.000  C
  C166     1.0000 0.51540  0.80540  0.42170  Biso   1.000  C
  C167     1.0000 0.56680  0.80320  0.38840  Biso   1.000  C
  H62      1.0000 0.60400  0.80700  0.40830  Biso   1.000  H
  C168     1.0000 0.45900  0.79940  0.39170  Biso   1.000  C
  H63      1.0000 0.42330  0.80470  0.41380  Biso   1.000  H
  N21      1.0000 0.52420  0.80870  0.48440  Biso   1.000  N
  O81      1.0000 0.39344  0.75940  0.25010  Biso   1.000  O
  O82      1.0000 0.62387  0.77687  0.23490  Biso   1.000  O
  O83      1.0000 0.34970  0.79620  0.33590  Biso   1.000  O
  O84      1.0000 0.67180  0.80961  0.32000  Biso   1.000  O
  Mg22     1.0000 0.69353  0.24035  0.82174  Biso   1.000  Mg
  C169     1.0000 0.62540  0.20630  0.70890  Biso   1.000  C
  C170     1.0000 0.51020  0.21340  0.70110  Biso   1.000  C
  H64      1.0000 0.50820  0.21920  0.74300  Biso   1.000  H
  C171     1.0000 0.56670  0.20480  0.67610  Biso   1.000  C
  C172     1.0000 0.45540  0.21410  0.66880  Biso   1.000  C
  C173     1.0000 0.39320  0.22000  0.69780  Biso   1.000  C
  C174     1.0000 0.51540  0.19460  0.57830  Biso   1.000  C
  C175     1.0000 0.56680  0.19680  0.61160  Biso   1.000  C
  H65      1.0000 0.60400  0.19300  0.59170  Biso   1.000  H
  C176     1.0000 0.45900  0.20060  0.60830  Biso   1.000  C
  H66      1.0000 0.42330  0.19530  0.58620  Biso   1.000  H
  N22      1.0000 0.52420  0.19130  0.51560  Biso   1.000  N
  O85      1.0000 0.39344  0.24060  0.74990  Biso   1.000  O
  O86      1.0000 0.62387  0.22313  0.76510  Biso   1.000  O
  O87      1.0000 0.34970  0.20380  0.66410  Biso   1.000  O
  O88      1.0000 0.67180  0.19039  0.68000  Biso   1.000  O
  Mg23     1.0000 0.30647  0.75965  0.82174  Biso   1.000  Mg
  C177     1.0000 0.37460  0.79370  0.70890  Biso   1.000  C
  C178     1.0000 0.48980  0.78660  0.70110  Biso   1.000  C
  H67      1.0000 0.49180  0.78080  0.74300  Biso   1.000  H
  C179     1.0000 0.43330  0.79520  0.67610  Biso   1.000  C
  C180     1.0000 0.54460  0.78590  0.66880  Biso   1.000  C
  C181     1.0000 0.60680  0.78000  0.69780  Biso   1.000  C
  C182     1.0000 0.48460  0.80540  0.57830  Biso   1.000  C
  C183     1.0000 0.43320  0.80320  0.61160  Biso   1.000  C
  H68      1.0000 0.39600  0.80700  0.59170  Biso   1.000  H
  C184     1.0000 0.54100  0.79940  0.60830  Biso   1.000  C
  H69      1.0000 0.57670  0.80470  0.58620  Biso   1.000  H
  N23      1.0000 0.47580  0.80870  0.51560  Biso   1.000  N
  O89      1.0000 0.60656  0.75940  0.74990  Biso   1.000  O
  O90      1.0000 0.37613  0.77687  0.76510  Biso   1.000  O
  O91      1.0000 0.65030  0.79620  0.66410  Biso   1.000  O
  O92      1.0000 0.32820  0.80961  0.68000  Biso   1.000  O
  Mg24     1.0000 0.30647  0.24035  0.17826  Biso   1.000  Mg
  C185     1.0000 0.37460  0.20630  0.29110  Biso   1.000  C
  C186     1.0000 0.48980  0.21340  0.29890  Biso   1.000  C
  H70      1.0000 0.49180  0.21920  0.25700  Biso   1.000  H
  C187     1.0000 0.43330  0.20480  0.32390  Biso   1.000  C
  C188     1.0000 0.54460  0.21410  0.33120  Biso   1.000  C
  C189     1.0000 0.60680  0.22000  0.30220  Biso   1.000  C
  C190     1.0000 0.48460  0.19460  0.42170  Biso   1.000  C
  C191     1.0000 0.43320  0.19680  0.38840  Biso   1.000  C
  H71      1.0000 0.39600  0.19300  0.40830  Biso   1.000  H
  C192     1.0000 0.54100  0.20060  0.39170  Biso   1.000  C
  H72      1.0000 0.57670  0.19530  0.41380  Biso   1.000  H
  N24      1.0000 0.47580  0.19130  0.48440  Biso   1.000  N
  O93      1.0000 0.60656  0.24060  0.25010  Biso   1.000  O
  O94      1.0000 0.37613  0.22313  0.23490  Biso   1.000  O
  O95      1.0000 0.65030  0.20380  0.33590  Biso   1.000  O
  O96      1.0000 0.32820  0.19039  0.32000  Biso   1.000  O
  O97      1.0000 0.74040  0.25960  0.25960  Biso   1.000  O
  O98      1.0000 0.25960  0.74040  0.25960  Biso   1.000  O
  O99      1.0000 0.25960  0.25960  0.74040  Biso   1.000  O
  O100     1.0000 0.74040  0.74040  0.74040  Biso   1.000  O
  O101     1.0000 0.75960  0.24040  0.75960  Biso   1.000  O
  O102     1.0000 0.24040  0.75960  0.75960  Biso   1.000  O
  O103     1.0000 0.75960  0.75960  0.24040  Biso   1.000  O
  O104     1.0000 0.24040  0.24040  0.24040  Biso   1.000  O
