data_image0
_cell_length_a       22.4704
_cell_length_b       22.4704
_cell_length_c       22.4704
_cell_angle_alpha    90
_cell_angle_beta     90
_cell_angle_gamma    90

_symmetry_space_group_name_H-M    "P 1"
_symmetry_int_tables_number       1

loop_
  _symmetry_equiv_pos_as_xyz
  'x, y, z'

loop_
  _atom_site_label
  _atom_site_occupancy
  _atom_site_fract_x
  _atom_site_fract_y
  _atom_site_fract_z
  _atom_site_thermal_displace_type
  _atom_site_B_iso_or_equiv
  _atom_site_type_symbol
  Mn1      1.0000 0.17635  0.31040  0.24086  Biso   1.000  Mn
  C1       1.0000 0.20605  0.29090  0.87830  Biso   1.000  C
  C2       1.0000 0.19578  0.27895  0.10461  Biso   1.000  C
  C3       1.0000 0.16608  0.28110  0.04265  Biso   1.000  C
  C4       1.0000 0.19937  0.28291  0.99068  Biso   1.000  C
  H1       1.0000 0.24070  0.28120  0.99290  Biso   1.000  H
  C5       1.0000 0.17226  0.28722  0.93568  Biso   1.000  C
  C6       1.0000 0.10583  0.28210  0.03929  Biso   1.000  C
  H2       1.0000 0.08350  0.28160  0.07410  Biso   1.000  H
  C7       1.0000 0.11052  0.28690  0.93278  Biso   1.000  C
  H3       1.0000 0.09150  0.28880  0.89610  Biso   1.000  H
  C8       1.0000 0.07702  0.28380  0.98504  Biso   1.000  C
  O1       1.0000 0.17509  0.30077  0.83191  Biso   1.000  O
  O2       1.0000 0.16200  0.28884  0.14726  Biso   1.000  O
  O3       1.0000 0.24985  0.26695  0.10513  Biso   1.000  O
  O4       1.0000 0.26109  0.28213  0.88058  Biso   1.000  O
  N1       1.0000 0.01373  0.28290  0.97732  Biso   1.000  N
  Mn2      1.0000 0.82365  0.68960  0.24086  Biso   1.000  Mn
  C9       1.0000 0.79395  0.70910  0.87830  Biso   1.000  C
  C10      1.0000 0.80422  0.72105  0.10461  Biso   1.000  C
  C11      1.0000 0.83392  0.71890  0.04265  Biso   1.000  C
  C12      1.0000 0.80063  0.71709  0.99068  Biso   1.000  C
  H4       1.0000 0.75930  0.71880  0.99290  Biso   1.000  H
  C13      1.0000 0.82774  0.71278  0.93568  Biso   1.000  C
  C14      1.0000 0.89417  0.71790  0.03929  Biso   1.000  C
  H5       1.0000 0.91650  0.71840  0.07410  Biso   1.000  H
  C15      1.0000 0.88948  0.71310  0.93278  Biso   1.000  C
  H6       1.0000 0.90850  0.71120  0.89610  Biso   1.000  H
  C16      1.0000 0.92298  0.71620  0.98504  Biso   1.000  C
  O5       1.0000 0.82491  0.69923  0.83191  Biso   1.000  O
  O6       1.0000 0.83800  0.71116  0.14726  Biso   1.000  O
  O7       1.0000 0.75015  0.73305  0.10513  Biso   1.000  O
  O8       1.0000 0.73891  0.71787  0.88058  Biso   1.000  O
  N2       1.0000 0.98627  0.71710  0.97732  Biso   1.000  N
  Mn3      1.0000 0.82365  0.31040  0.75914  Biso   1.000  Mn
  C17      1.0000 0.79395  0.29090  0.12170  Biso   1.000  C
  C18      1.0000 0.80422  0.27895  0.89539  Biso   1.000  C
  C19      1.0000 0.83392  0.28110  0.95735  Biso   1.000  C
  C20      1.0000 0.80063  0.28291  0.00932  Biso   1.000  C
  H7       1.0000 0.75930  0.28120  0.00710  Biso   1.000  H
  C21      1.0000 0.82774  0.28722  0.06432  Biso   1.000  C
  C22      1.0000 0.89417  0.28210  0.96071  Biso   1.000  C
  H8       1.0000 0.91650  0.28160  0.92590  Biso   1.000  H
  C23      1.0000 0.88948  0.28690  0.06722  Biso   1.000  C
  H9       1.0000 0.90850  0.28880  0.10390  Biso   1.000  H
  C24      1.0000 0.92298  0.28380  0.01496  Biso   1.000  C
  O9       1.0000 0.82491  0.30077  0.16809  Biso   1.000  O
  O10      1.0000 0.83800  0.28884  0.85274  Biso   1.000  O
  O11      1.0000 0.75015  0.26695  0.89487  Biso   1.000  O
  O12      1.0000 0.73891  0.28213  0.11942  Biso   1.000  O
  N3       1.0000 0.98627  0.28290  0.02268  Biso   1.000  N
  Mn4      1.0000 0.17635  0.68960  0.75914  Biso   1.000  Mn
  C25      1.0000 0.20605  0.70910  0.12170  Biso   1.000  C
  C26      1.0000 0.19578  0.72105  0.89539  Biso   1.000  C
  C27      1.0000 0.16608  0.71890  0.95735  Biso   1.000  C
  C28      1.0000 0.19937  0.71709  0.00932  Biso   1.000  C
  H10      1.0000 0.24070  0.71880  0.00710  Biso   1.000  H
  C29      1.0000 0.17226  0.71278  0.06432  Biso   1.000  C
  C30      1.0000 0.10583  0.71790  0.96071  Biso   1.000  C
  H11      1.0000 0.08350  0.71840  0.92590  Biso   1.000  H
  C31      1.0000 0.11052  0.71310  0.06722  Biso   1.000  C
  H12      1.0000 0.09150  0.71120  0.10390  Biso   1.000  H
  C32      1.0000 0.07702  0.71620  0.01496  Biso   1.000  C
  O13      1.0000 0.17509  0.69923  0.16809  Biso   1.000  O
  O14      1.0000 0.16200  0.71116  0.85274  Biso   1.000  O
  O15      1.0000 0.24985  0.73305  0.89487  Biso   1.000  O
  O16      1.0000 0.26109  0.71787  0.11942  Biso   1.000  O
  N4       1.0000 0.01373  0.71710  0.02268  Biso   1.000  N
  Mn5      1.0000 0.24086  0.17635  0.31040  Biso   1.000  Mn
  C33      1.0000 0.87830  0.20605  0.29090  Biso   1.000  C
  C34      1.0000 0.10461  0.19578  0.27895  Biso   1.000  C
  C35      1.0000 0.04265  0.16608  0.28110  Biso   1.000  C
  C36      1.0000 0.99068  0.19937  0.28291  Biso   1.000  C
  H13      1.0000 0.99290  0.24070  0.28120  Biso   1.000  H
  C37      1.0000 0.93568  0.17226  0.28722  Biso   1.000  C
  C38      1.0000 0.03929  0.10583  0.28210  Biso   1.000  C
  H14      1.0000 0.07410  0.08350  0.28160  Biso   1.000  H
  C39      1.0000 0.93278  0.11052  0.28690  Biso   1.000  C
  H15      1.0000 0.89610  0.09150  0.28880  Biso   1.000  H
  C40      1.0000 0.98504  0.07702  0.28380  Biso   1.000  C
  O17      1.0000 0.83191  0.17509  0.30077  Biso   1.000  O
  O18      1.0000 0.14726  0.16200  0.28884  Biso   1.000  O
  O19      1.0000 0.10513  0.24985  0.26695  Biso   1.000  O
  O20      1.0000 0.88058  0.26109  0.28213  Biso   1.000  O
  N5       1.0000 0.97732  0.01373  0.28290  Biso   1.000  N
  Mn6      1.0000 0.24086  0.82365  0.68960  Biso   1.000  Mn
  C41      1.0000 0.87830  0.79395  0.70910  Biso   1.000  C
  C42      1.0000 0.10461  0.80422  0.72105  Biso   1.000  C
  C43      1.0000 0.04265  0.83392  0.71890  Biso   1.000  C
  C44      1.0000 0.99068  0.80063  0.71709  Biso   1.000  C
  H16      1.0000 0.99290  0.75930  0.71880  Biso   1.000  H
  C45      1.0000 0.93568  0.82774  0.71278  Biso   1.000  C
  C46      1.0000 0.03929  0.89417  0.71790  Biso   1.000  C
  H17      1.0000 0.07410  0.91650  0.71840  Biso   1.000  H
  C47      1.0000 0.93278  0.88948  0.71310  Biso   1.000  C
  H18      1.0000 0.89610  0.90850  0.71120  Biso   1.000  H
  C48      1.0000 0.98504  0.92298  0.71620  Biso   1.000  C
  O21      1.0000 0.83191  0.82491  0.69923  Biso   1.000  O
  O22      1.0000 0.14726  0.83800  0.71116  Biso   1.000  O
  O23      1.0000 0.10513  0.75015  0.73305  Biso   1.000  O
  O24      1.0000 0.88058  0.73891  0.71787  Biso   1.000  O
  N6       1.0000 0.97732  0.98627  0.71710  Biso   1.000  N
  Mn7      1.0000 0.75914  0.82365  0.31040  Biso   1.000  Mn
  C49      1.0000 0.12170  0.79395  0.29090  Biso   1.000  C
  C50      1.0000 0.89539  0.80422  0.27895  Biso   1.000  C
  C51      1.0000 0.95735  0.83392  0.28110  Biso   1.000  C
  C52      1.0000 0.00932  0.80063  0.28291  Biso   1.000  C
  H19      1.0000 0.00710  0.75930  0.28120  Biso   1.000  H
  C53      1.0000 0.06432  0.82774  0.28722  Biso   1.000  C
  C54      1.0000 0.96071  0.89417  0.28210  Biso   1.000  C
  H20      1.0000 0.92590  0.91650  0.28160  Biso   1.000  H
  C55      1.0000 0.06722  0.88948  0.28690  Biso   1.000  C
  H21      1.0000 0.10390  0.90850  0.28880  Biso   1.000  H
  C56      1.0000 0.01496  0.92298  0.28380  Biso   1.000  C
  O25      1.0000 0.16809  0.82491  0.30077  Biso   1.000  O
  O26      1.0000 0.85274  0.83800  0.28884  Biso   1.000  O
  O27      1.0000 0.89487  0.75015  0.26695  Biso   1.000  O
  O28      1.0000 0.11942  0.73891  0.28213  Biso   1.000  O
  N7       1.0000 0.02268  0.98627  0.28290  Biso   1.000  N
  Mn8      1.0000 0.75914  0.17635  0.68960  Biso   1.000  Mn
  C57      1.0000 0.12170  0.20605  0.70910  Biso   1.000  C
  C58      1.0000 0.89539  0.19578  0.72105  Biso   1.000  C
  C59      1.0000 0.95735  0.16608  0.71890  Biso   1.000  C
  C60      1.0000 0.00932  0.19937  0.71709  Biso   1.000  C
  H22      1.0000 0.00710  0.24070  0.71880  Biso   1.000  H
  C61      1.0000 0.06432  0.17226  0.71278  Biso   1.000  C
  C62      1.0000 0.96071  0.10583  0.71790  Biso   1.000  C
  H23      1.0000 0.92590  0.08350  0.71840  Biso   1.000  H
  C63      1.0000 0.06722  0.11052  0.71310  Biso   1.000  C
  H24      1.0000 0.10390  0.09150  0.71120  Biso   1.000  H
  C64      1.0000 0.01496  0.07702  0.71620  Biso   1.000  C
  O29      1.0000 0.16809  0.17509  0.69923  Biso   1.000  O
  O30      1.0000 0.85274  0.16200  0.71116  Biso   1.000  O
  O31      1.0000 0.89487  0.24985  0.73305  Biso   1.000  O
  O32      1.0000 0.11942  0.26109  0.71787  Biso   1.000  O
  N8       1.0000 0.02268  0.01373  0.71710  Biso   1.000  N
  Mn9      1.0000 0.31040  0.24086  0.17635  Biso   1.000  Mn
  C65      1.0000 0.29090  0.87830  0.20605  Biso   1.000  C
  C66      1.0000 0.27895  0.10461  0.19578  Biso   1.000  C
  C67      1.0000 0.28110  0.04265  0.16608  Biso   1.000  C
  C68      1.0000 0.28291  0.99068  0.19937  Biso   1.000  C
  H25      1.0000 0.28120  0.99290  0.24070  Biso   1.000  H
  C69      1.0000 0.28722  0.93568  0.17226  Biso   1.000  C
  C70      1.0000 0.28210  0.03929  0.10583  Biso   1.000  C
  H26      1.0000 0.28160  0.07410  0.08350  Biso   1.000  H
  C71      1.0000 0.28690  0.93278  0.11052  Biso   1.000  C
  H27      1.0000 0.28880  0.89610  0.09150  Biso   1.000  H
  C72      1.0000 0.28380  0.98504  0.07702  Biso   1.000  C
  O33      1.0000 0.30077  0.83191  0.17509  Biso   1.000  O
  O34      1.0000 0.28884  0.14726  0.16200  Biso   1.000  O
  O35      1.0000 0.26695  0.10513  0.24985  Biso   1.000  O
  O36      1.0000 0.28213  0.88058  0.26109  Biso   1.000  O
  N9       1.0000 0.28290  0.97732  0.01373  Biso   1.000  N
  Mn10     1.0000 0.68960  0.24086  0.82365  Biso   1.000  Mn
  C73      1.0000 0.70910  0.87830  0.79395  Biso   1.000  C
  C74      1.0000 0.72105  0.10461  0.80422  Biso   1.000  C
  C75      1.0000 0.71890  0.04265  0.83392  Biso   1.000  C
  C76      1.0000 0.71709  0.99068  0.80063  Biso   1.000  C
  H28      1.0000 0.71880  0.99290  0.75930  Biso   1.000  H
  C77      1.0000 0.71278  0.93568  0.82774  Biso   1.000  C
  C78      1.0000 0.71790  0.03929  0.89417  Biso   1.000  C
  H29      1.0000 0.71840  0.07410  0.91650  Biso   1.000  H
  C79      1.0000 0.71310  0.93278  0.88948  Biso   1.000  C
  H30      1.0000 0.71120  0.89610  0.90850  Biso   1.000  H
  C80      1.0000 0.71620  0.98504  0.92298  Biso   1.000  C
  O37      1.0000 0.69923  0.83191  0.82491  Biso   1.000  O
  O38      1.0000 0.71116  0.14726  0.83800  Biso   1.000  O
  O39      1.0000 0.73305  0.10513  0.75015  Biso   1.000  O
  O40      1.0000 0.71787  0.88058  0.73891  Biso   1.000  O
  N10      1.0000 0.71710  0.97732  0.98627  Biso   1.000  N
  Mn11     1.0000 0.31040  0.75914  0.82365  Biso   1.000  Mn
  C81      1.0000 0.29090  0.12170  0.79395  Biso   1.000  C
  C82      1.0000 0.27895  0.89539  0.80422  Biso   1.000  C
  C83      1.0000 0.28110  0.95735  0.83392  Biso   1.000  C
  C84      1.0000 0.28291  0.00932  0.80063  Biso   1.000  C
  H31      1.0000 0.28120  0.00710  0.75930  Biso   1.000  H
  C85      1.0000 0.28722  0.06432  0.82774  Biso   1.000  C
  C86      1.0000 0.28210  0.96071  0.89417  Biso   1.000  C
  H32      1.0000 0.28160  0.92590  0.91650  Biso   1.000  H
  C87      1.0000 0.28690  0.06722  0.88948  Biso   1.000  C
  H33      1.0000 0.28880  0.10390  0.90850  Biso   1.000  H
  C88      1.0000 0.28380  0.01496  0.92298  Biso   1.000  C
  O41      1.0000 0.30077  0.16809  0.82491  Biso   1.000  O
  O42      1.0000 0.28884  0.85274  0.83800  Biso   1.000  O
  O43      1.0000 0.26695  0.89487  0.75015  Biso   1.000  O
  O44      1.0000 0.28213  0.11942  0.73891  Biso   1.000  O
  N11      1.0000 0.28290  0.02268  0.98627  Biso   1.000  N
  Mn12     1.0000 0.68960  0.75914  0.17635  Biso   1.000  Mn
  C89      1.0000 0.70910  0.12170  0.20605  Biso   1.000  C
  C90      1.0000 0.72105  0.89539  0.19578  Biso   1.000  C
  C91      1.0000 0.71890  0.95735  0.16608  Biso   1.000  C
  C92      1.0000 0.71709  0.00932  0.19937  Biso   1.000  C
  H34      1.0000 0.71880  0.00710  0.24070  Biso   1.000  H
  C93      1.0000 0.71278  0.06432  0.17226  Biso   1.000  C
  C94      1.0000 0.71790  0.96071  0.10583  Biso   1.000  C
  H35      1.0000 0.71840  0.92590  0.08350  Biso   1.000  H
  C95      1.0000 0.71310  0.06722  0.11052  Biso   1.000  C
  H36      1.0000 0.71120  0.10390  0.09150  Biso   1.000  H
  C96      1.0000 0.71620  0.01496  0.07702  Biso   1.000  C
  O45      1.0000 0.69923  0.16809  0.17509  Biso   1.000  O
  O46      1.0000 0.71116  0.85274  0.16200  Biso   1.000  O
  O47      1.0000 0.73305  0.89487  0.24985  Biso   1.000  O
  O48      1.0000 0.71787  0.11942  0.26109  Biso   1.000  O
  N12      1.0000 0.71710  0.02268  0.01373  Biso   1.000  N
  Mn13     1.0000 0.81040  0.67635  0.74086  Biso   1.000  Mn
  C97      1.0000 0.79090  0.70605  0.37830  Biso   1.000  C
  C98      1.0000 0.77895  0.69578  0.60461  Biso   1.000  C
  C99      1.0000 0.78110  0.66608  0.54265  Biso   1.000  C
  C100     1.0000 0.78291  0.69937  0.49068  Biso   1.000  C
  H37      1.0000 0.78120  0.74070  0.49290  Biso   1.000  H
  C101     1.0000 0.78722  0.67226  0.43568  Biso   1.000  C
  C102     1.0000 0.78210  0.60583  0.53929  Biso   1.000  C
  H38      1.0000 0.78160  0.58350  0.57410  Biso   1.000  H
  C103     1.0000 0.78690  0.61052  0.43278  Biso   1.000  C
  H39      1.0000 0.78880  0.59150  0.39610  Biso   1.000  H
  C104     1.0000 0.78380  0.57702  0.48504  Biso   1.000  C
  O49      1.0000 0.80077  0.67509  0.33191  Biso   1.000  O
  O50      1.0000 0.78884  0.66200  0.64726  Biso   1.000  O
  O51      1.0000 0.76695  0.74985  0.60513  Biso   1.000  O
  O52      1.0000 0.78213  0.76109  0.38058  Biso   1.000  O
  N13      1.0000 0.78290  0.51373  0.47732  Biso   1.000  N
  Mn14     1.0000 0.18960  0.32365  0.74086  Biso   1.000  Mn
  C105     1.0000 0.20910  0.29395  0.37830  Biso   1.000  C
  C106     1.0000 0.22105  0.30422  0.60461  Biso   1.000  C
  C107     1.0000 0.21890  0.33392  0.54265  Biso   1.000  C
  C108     1.0000 0.21709  0.30063  0.49068  Biso   1.000  C
  H40      1.0000 0.21880  0.25930  0.49290  Biso   1.000  H
  C109     1.0000 0.21278  0.32774  0.43568  Biso   1.000  C
  C110     1.0000 0.21790  0.39417  0.53929  Biso   1.000  C
  H41      1.0000 0.21840  0.41650  0.57410  Biso   1.000  H
  C111     1.0000 0.21310  0.38948  0.43278  Biso   1.000  C
  H42      1.0000 0.21120  0.40850  0.39610  Biso   1.000  H
  C112     1.0000 0.21620  0.42298  0.48504  Biso   1.000  C
  O53      1.0000 0.19923  0.32491  0.33191  Biso   1.000  O
  O54      1.0000 0.21116  0.33800  0.64726  Biso   1.000  O
  O55      1.0000 0.23305  0.25015  0.60513  Biso   1.000  O
  O56      1.0000 0.21787  0.23891  0.38058  Biso   1.000  O
  N14      1.0000 0.21710  0.48627  0.47732  Biso   1.000  N
  Mn15     1.0000 0.81040  0.32365  0.25914  Biso   1.000  Mn
  C113     1.0000 0.79090  0.29395  0.62170  Biso   1.000  C
  C114     1.0000 0.77895  0.30422  0.39539  Biso   1.000  C
  C115     1.0000 0.78110  0.33392  0.45735  Biso   1.000  C
  C116     1.0000 0.78291  0.30063  0.50932  Biso   1.000  C
  H43      1.0000 0.78120  0.25930  0.50710  Biso   1.000  H
  C117     1.0000 0.78722  0.32774  0.56432  Biso   1.000  C
  C118     1.0000 0.78210  0.39417  0.46071  Biso   1.000  C
  H44      1.0000 0.78160  0.41650  0.42590  Biso   1.000  H
  C119     1.0000 0.78690  0.38948  0.56722  Biso   1.000  C
  H45      1.0000 0.78880  0.40850  0.60390  Biso   1.000  H
  C120     1.0000 0.78380  0.42298  0.51496  Biso   1.000  C
  O57      1.0000 0.80077  0.32491  0.66809  Biso   1.000  O
  O58      1.0000 0.78884  0.33800  0.35274  Biso   1.000  O
  O59      1.0000 0.76695  0.25015  0.39487  Biso   1.000  O
  O60      1.0000 0.78213  0.23891  0.61942  Biso   1.000  O
  N15      1.0000 0.78290  0.48627  0.52268  Biso   1.000  N
  Mn16     1.0000 0.18960  0.67635  0.25914  Biso   1.000  Mn
  C121     1.0000 0.20910  0.70605  0.62170  Biso   1.000  C
  C122     1.0000 0.22105  0.69578  0.39539  Biso   1.000  C
  C123     1.0000 0.21890  0.66608  0.45735  Biso   1.000  C
  C124     1.0000 0.21709  0.69937  0.50932  Biso   1.000  C
  H46      1.0000 0.21880  0.74070  0.50710  Biso   1.000  H
  C125     1.0000 0.21278  0.67226  0.56432  Biso   1.000  C
  C126     1.0000 0.21790  0.60583  0.46071  Biso   1.000  C
  H47      1.0000 0.21840  0.58350  0.42590  Biso   1.000  H
  C127     1.0000 0.21310  0.61052  0.56722  Biso   1.000  C
  H48      1.0000 0.21120  0.59150  0.60390  Biso   1.000  H
  C128     1.0000 0.21620  0.57702  0.51496  Biso   1.000  C
  O61      1.0000 0.19923  0.67509  0.66809  Biso   1.000  O
  O62      1.0000 0.21116  0.66200  0.35274  Biso   1.000  O
  O63      1.0000 0.23305  0.74985  0.39487  Biso   1.000  O
  O64      1.0000 0.21787  0.76109  0.61942  Biso   1.000  O
  N16      1.0000 0.21710  0.51373  0.52268  Biso   1.000  N
  Mn17     1.0000 0.67635  0.74086  0.81040  Biso   1.000  Mn
  C129     1.0000 0.70605  0.37830  0.79090  Biso   1.000  C
  C130     1.0000 0.69578  0.60461  0.77895  Biso   1.000  C
  C131     1.0000 0.66608  0.54265  0.78110  Biso   1.000  C
  C132     1.0000 0.69937  0.49068  0.78291  Biso   1.000  C
  H49      1.0000 0.74070  0.49290  0.78120  Biso   1.000  H
  C133     1.0000 0.67226  0.43568  0.78722  Biso   1.000  C
  C134     1.0000 0.60583  0.53929  0.78210  Biso   1.000  C
  H50      1.0000 0.58350  0.57410  0.78160  Biso   1.000  H
  C135     1.0000 0.61052  0.43278  0.78690  Biso   1.000  C
  H51      1.0000 0.59150  0.39610  0.78880  Biso   1.000  H
  C136     1.0000 0.57702  0.48504  0.78380  Biso   1.000  C
  O65      1.0000 0.67509  0.33191  0.80077  Biso   1.000  O
  O66      1.0000 0.66200  0.64726  0.78884  Biso   1.000  O
  O67      1.0000 0.74985  0.60513  0.76695  Biso   1.000  O
  O68      1.0000 0.76109  0.38058  0.78213  Biso   1.000  O
  N17      1.0000 0.51373  0.47732  0.78290  Biso   1.000  N
  Mn18     1.0000 0.32365  0.74086  0.18960  Biso   1.000  Mn
  C137     1.0000 0.29395  0.37830  0.20910  Biso   1.000  C
  C138     1.0000 0.30422  0.60461  0.22105  Biso   1.000  C
  C139     1.0000 0.33392  0.54265  0.21890  Biso   1.000  C
  C140     1.0000 0.30063  0.49068  0.21709  Biso   1.000  C
  H52      1.0000 0.25930  0.49290  0.21880  Biso   1.000  H
  C141     1.0000 0.32774  0.43568  0.21278  Biso   1.000  C
  C142     1.0000 0.39417  0.53929  0.21790  Biso   1.000  C
  H53      1.0000 0.41650  0.57410  0.21840  Biso   1.000  H
  C143     1.0000 0.38948  0.43278  0.21310  Biso   1.000  C
  H54      1.0000 0.40850  0.39610  0.21120  Biso   1.000  H
  C144     1.0000 0.42298  0.48504  0.21620  Biso   1.000  C
  O69      1.0000 0.32491  0.33191  0.19923  Biso   1.000  O
  O70      1.0000 0.33800  0.64726  0.21116  Biso   1.000  O
  O71      1.0000 0.25015  0.60513  0.23305  Biso   1.000  O
  O72      1.0000 0.23891  0.38058  0.21787  Biso   1.000  O
  N18      1.0000 0.48627  0.47732  0.21710  Biso   1.000  N
  Mn19     1.0000 0.32365  0.25914  0.81040  Biso   1.000  Mn
  C145     1.0000 0.29395  0.62170  0.79090  Biso   1.000  C
  C146     1.0000 0.30422  0.39539  0.77895  Biso   1.000  C
  C147     1.0000 0.33392  0.45735  0.78110  Biso   1.000  C
  C148     1.0000 0.30063  0.50932  0.78291  Biso   1.000  C
  H55      1.0000 0.25930  0.50710  0.78120  Biso   1.000  H
  C149     1.0000 0.32774  0.56432  0.78722  Biso   1.000  C
  C150     1.0000 0.39417  0.46071  0.78210  Biso   1.000  C
  H56      1.0000 0.41650  0.42590  0.78160  Biso   1.000  H
  C151     1.0000 0.38948  0.56722  0.78690  Biso   1.000  C
  H57      1.0000 0.40850  0.60390  0.78880  Biso   1.000  H
  C152     1.0000 0.42298  0.51496  0.78380  Biso   1.000  C
  O73      1.0000 0.32491  0.66809  0.80077  Biso   1.000  O
  O74      1.0000 0.33800  0.35274  0.78884  Biso   1.000  O
  O75      1.0000 0.25015  0.39487  0.76695  Biso   1.000  O
  O76      1.0000 0.23891  0.61942  0.78213  Biso   1.000  O
  N19      1.0000 0.48627  0.52268  0.78290  Biso   1.000  N
  Mn20     1.0000 0.67635  0.25914  0.18960  Biso   1.000  Mn
  C153     1.0000 0.70605  0.62170  0.20910  Biso   1.000  C
  C154     1.0000 0.69578  0.39539  0.22105  Biso   1.000  C
  C155     1.0000 0.66608  0.45735  0.21890  Biso   1.000  C
  C156     1.0000 0.69937  0.50932  0.21709  Biso   1.000  C
  H58      1.0000 0.74070  0.50710  0.21880  Biso   1.000  H
  C157     1.0000 0.67226  0.56432  0.21278  Biso   1.000  C
  C158     1.0000 0.60583  0.46071  0.21790  Biso   1.000  C
  H59      1.0000 0.58350  0.42590  0.21840  Biso   1.000  H
  C159     1.0000 0.61052  0.56722  0.21310  Biso   1.000  C
  H60      1.0000 0.59150  0.60390  0.21120  Biso   1.000  H
  C160     1.0000 0.57702  0.51496  0.21620  Biso   1.000  C
  O77      1.0000 0.67509  0.66809  0.19923  Biso   1.000  O
  O78      1.0000 0.66200  0.35274  0.21116  Biso   1.000  O
  O79      1.0000 0.74985  0.39487  0.23305  Biso   1.000  O
  O80      1.0000 0.76109  0.61942  0.21787  Biso   1.000  O
  N20      1.0000 0.51373  0.52268  0.21710  Biso   1.000  N
  Mn21     1.0000 0.74086  0.81040  0.67635  Biso   1.000  Mn
  C161     1.0000 0.37830  0.79090  0.70605  Biso   1.000  C
  C162     1.0000 0.60461  0.77895  0.69578  Biso   1.000  C
  C163     1.0000 0.54265  0.78110  0.66608  Biso   1.000  C
  C164     1.0000 0.49068  0.78291  0.69937  Biso   1.000  C
  H61      1.0000 0.49290  0.78120  0.74070  Biso   1.000  H
  C165     1.0000 0.43568  0.78722  0.67226  Biso   1.000  C
  C166     1.0000 0.53929  0.78210  0.60583  Biso   1.000  C
  H62      1.0000 0.57410  0.78160  0.58350  Biso   1.000  H
  C167     1.0000 0.43278  0.78690  0.61052  Biso   1.000  C
  H63      1.0000 0.39610  0.78880  0.59150  Biso   1.000  H
  C168     1.0000 0.48504  0.78380  0.57702  Biso   1.000  C
  O81      1.0000 0.33191  0.80077  0.67509  Biso   1.000  O
  O82      1.0000 0.64726  0.78884  0.66200  Biso   1.000  O
  O83      1.0000 0.60513  0.76695  0.74985  Biso   1.000  O
  O84      1.0000 0.38058  0.78213  0.76109  Biso   1.000  O
  N21      1.0000 0.47732  0.78290  0.51373  Biso   1.000  N
  Mn22     1.0000 0.74086  0.18960  0.32365  Biso   1.000  Mn
  C169     1.0000 0.37830  0.20910  0.29395  Biso   1.000  C
  C170     1.0000 0.60461  0.22105  0.30422  Biso   1.000  C
  C171     1.0000 0.54265  0.21890  0.33392  Biso   1.000  C
  C172     1.0000 0.49068  0.21709  0.30063  Biso   1.000  C
  H64      1.0000 0.49290  0.21880  0.25930  Biso   1.000  H
  C173     1.0000 0.43568  0.21278  0.32774  Biso   1.000  C
  C174     1.0000 0.53929  0.21790  0.39417  Biso   1.000  C
  H65      1.0000 0.57410  0.21840  0.41650  Biso   1.000  H
  C175     1.0000 0.43278  0.21310  0.38948  Biso   1.000  C
  H66      1.0000 0.39610  0.21120  0.40850  Biso   1.000  H
  C176     1.0000 0.48504  0.21620  0.42298  Biso   1.000  C
  O85      1.0000 0.33191  0.19923  0.32491  Biso   1.000  O
  O86      1.0000 0.64726  0.21116  0.33800  Biso   1.000  O
  O87      1.0000 0.60513  0.23305  0.25015  Biso   1.000  O
  O88      1.0000 0.38058  0.21787  0.23891  Biso   1.000  O
  N22      1.0000 0.47732  0.21710  0.48627  Biso   1.000  N
  Mn23     1.0000 0.25914  0.81040  0.32365  Biso   1.000  Mn
  C177     1.0000 0.62170  0.79090  0.29395  Biso   1.000  C
  C178     1.0000 0.39539  0.77895  0.30422  Biso   1.000  C
  C179     1.0000 0.45735  0.78110  0.33392  Biso   1.000  C
  C180     1.0000 0.50932  0.78291  0.30063  Biso   1.000  C
  H67      1.0000 0.50710  0.78120  0.25930  Biso   1.000  H
  C181     1.0000 0.56432  0.78722  0.32774  Biso   1.000  C
  C182     1.0000 0.46071  0.78210  0.39417  Biso   1.000  C
  H68      1.0000 0.42590  0.78160  0.41650  Biso   1.000  H
  C183     1.0000 0.56722  0.78690  0.38948  Biso   1.000  C
  H69      1.0000 0.60390  0.78880  0.40850  Biso   1.000  H
  C184     1.0000 0.51496  0.78380  0.42298  Biso   1.000  C
  O89      1.0000 0.66809  0.80077  0.32491  Biso   1.000  O
  O90      1.0000 0.35274  0.78884  0.33800  Biso   1.000  O
  O91      1.0000 0.39487  0.76695  0.25015  Biso   1.000  O
  O92      1.0000 0.61942  0.78213  0.23891  Biso   1.000  O
  N23      1.0000 0.52268  0.78290  0.48627  Biso   1.000  N
  Mn24     1.0000 0.25914  0.18960  0.67635  Biso   1.000  Mn
  C185     1.0000 0.62170  0.20910  0.70605  Biso   1.000  C
  C186     1.0000 0.39539  0.22105  0.69578  Biso   1.000  C
  C187     1.0000 0.45735  0.21890  0.66608  Biso   1.000  C
  C188     1.0000 0.50932  0.21709  0.69937  Biso   1.000  C
  H70      1.0000 0.50710  0.21880  0.74070  Biso   1.000  H
  C189     1.0000 0.56432  0.21278  0.67226  Biso   1.000  C
  C190     1.0000 0.46071  0.21790  0.60583  Biso   1.000  C
  H71      1.0000 0.42590  0.21840  0.58350  Biso   1.000  H
  C191     1.0000 0.56722  0.21310  0.61052  Biso   1.000  C
  H72      1.0000 0.60390  0.21120  0.59150  Biso   1.000  H
  C192     1.0000 0.51496  0.21620  0.57702  Biso   1.000  C
  O93      1.0000 0.66809  0.19923  0.67509  Biso   1.000  O
  O94      1.0000 0.35274  0.21116  0.66200  Biso   1.000  O
  O95      1.0000 0.39487  0.23305  0.74985  Biso   1.000  O
  O96      1.0000 0.61942  0.21787  0.76109  Biso   1.000  O
  N24      1.0000 0.52268  0.21710  0.51373  Biso   1.000  N
  O97      1.0000 0.23817  0.23817  0.23817  Biso   1.000  O
  O98      1.0000 0.76183  0.76183  0.23817  Biso   1.000  O
  O99      1.0000 0.76183  0.23817  0.76183  Biso   1.000  O
  O100     1.0000 0.23817  0.76183  0.76183  Biso   1.000  O
  O101     1.0000 0.73817  0.73817  0.73817  Biso   1.000  O
  O102     1.0000 0.26183  0.26183  0.73817  Biso   1.000  O
  O103     1.0000 0.73817  0.26183  0.26183  Biso   1.000  O
  O104     1.0000 0.26183  0.73817  0.26183  Biso   1.000  O
