data_image0
_cell_length_a       25.7599
_cell_length_b       25.7599
_cell_length_c       6.8766
_cell_angle_alpha    90
_cell_angle_beta     90
_cell_angle_gamma    120

_symmetry_space_group_name_H-M    "P 1"
_symmetry_int_tables_number       1

loop_
  _symmetry_equiv_pos_as_xyz
  'x, y, z'

loop_
  _atom_site_label
  _atom_site_occupancy
  _atom_site_fract_x
  _atom_site_fract_y
  _atom_site_fract_z
  _atom_site_thermal_displace_type
  _atom_site_B_iso_or_equiv
  _atom_site_type_symbol
  Co1      1.0000 0.31428  0.36412  0.47743  Biso   1.000  Co
  O1       1.0000 0.02929  0.32539  0.64150  Biso   1.000  O
  O2       1.0000 0.25231  0.31108  0.67050  Biso   1.000  O
  O3       1.0000 0.07257  0.30239  0.40470  Biso   1.000  O
  C1       1.0000 0.07160  0.31830  0.57540  Biso   1.000  C
  C2       1.0000 0.11970  0.32700  0.71340  Biso   1.000  C
  C3       1.0000 0.16490  0.31810  0.64310  Biso   1.000  C
  H1       1.0000 0.16360  0.30790  0.50970  Biso   1.000  H
  C4       1.0000 0.21150  0.32290  0.75400  Biso   1.000  C
  Co2      1.0000 0.98095  0.69745  0.81076  Biso   1.000  Co
  O4       1.0000 0.69596  0.65872  0.97483  Biso   1.000  O
  O5       1.0000 0.91898  0.64441  0.00383  Biso   1.000  O
  O6       1.0000 0.73924  0.63572  0.73803  Biso   1.000  O
  C5       1.0000 0.73827  0.65163  0.90873  Biso   1.000  C
  C6       1.0000 0.78637  0.66033  0.04673  Biso   1.000  C
  C7       1.0000 0.83157  0.65143  0.97643  Biso   1.000  C
  H2       1.0000 0.83027  0.64123  0.84303  Biso   1.000  H
  C8       1.0000 0.87817  0.65623  0.08733  Biso   1.000  C
  Co3      1.0000 0.64761  0.03079  0.14410  Biso   1.000  Co
  O7       1.0000 0.36262  0.99206  0.30817  Biso   1.000  O
  O8       1.0000 0.58564  0.97775  0.33717  Biso   1.000  O
  O9       1.0000 0.40590  0.96906  0.07137  Biso   1.000  O
  C9       1.0000 0.40493  0.98497  0.24207  Biso   1.000  C
  C10      1.0000 0.45303  0.99367  0.38007  Biso   1.000  C
  C11      1.0000 0.49823  0.98477  0.30977  Biso   1.000  C
  H3       1.0000 0.49693  0.97457  0.17637  Biso   1.000  H
  C12      1.0000 0.54483  0.98957  0.42067  Biso   1.000  C
  Co4      1.0000 0.63588  0.95016  0.47743  Biso   1.000  Co
  O10      1.0000 0.67461  0.70390  0.64150  Biso   1.000  O
  O11      1.0000 0.68892  0.94123  0.67050  Biso   1.000  O
  O12      1.0000 0.69761  0.77018  0.40470  Biso   1.000  O
  C13      1.0000 0.68170  0.75330  0.57540  Biso   1.000  C
  C14      1.0000 0.67300  0.79270  0.71340  Biso   1.000  C
  C15      1.0000 0.68190  0.84680  0.64310  Biso   1.000  C
  H4       1.0000 0.69210  0.85570  0.50970  Biso   1.000  H
  C16      1.0000 0.67710  0.88860  0.75400  Biso   1.000  C
  Co5      1.0000 0.30255  0.28349  0.81076  Biso   1.000  Co
  O13      1.0000 0.34128  0.03723  0.97483  Biso   1.000  O
  O14      1.0000 0.35559  0.27456  0.00383  Biso   1.000  O
  O15      1.0000 0.36428  0.10351  0.73803  Biso   1.000  O
  C17      1.0000 0.34837  0.08663  0.90873  Biso   1.000  C
  C18      1.0000 0.33967  0.12603  0.04673  Biso   1.000  C
  C19      1.0000 0.34857  0.18013  0.97643  Biso   1.000  C
  H5       1.0000 0.35877  0.18903  0.84303  Biso   1.000  H
  C20      1.0000 0.34377  0.22193  0.08733  Biso   1.000  C
  Co6      1.0000 0.96921  0.61683  0.14410  Biso   1.000  Co
  O16      1.0000 0.00794  0.37057  0.30817  Biso   1.000  O
  O17      1.0000 0.02225  0.60790  0.33717  Biso   1.000  O
  O18      1.0000 0.03094  0.43685  0.07137  Biso   1.000  O
  C21      1.0000 0.01503  0.41997  0.24207  Biso   1.000  C
  C22      1.0000 0.00633  0.45937  0.38007  Biso   1.000  C
  C23      1.0000 0.01523  0.51347  0.30977  Biso   1.000  C
  H6       1.0000 0.02543  0.52237  0.17637  Biso   1.000  H
  C24      1.0000 0.01043  0.55527  0.42067  Biso   1.000  C
  Co7      1.0000 0.04984  0.68572  0.47743  Biso   1.000  Co
  O19      1.0000 0.29610  0.97071  0.64150  Biso   1.000  O
  O20      1.0000 0.05877  0.74769  0.67050  Biso   1.000  O
  O21      1.0000 0.22982  0.92743  0.40470  Biso   1.000  O
  C25      1.0000 0.24670  0.92840  0.57540  Biso   1.000  C
  C26      1.0000 0.20730  0.88030  0.71340  Biso   1.000  C
  C27      1.0000 0.15320  0.83510  0.64310  Biso   1.000  C
  H7       1.0000 0.14430  0.83640  0.50970  Biso   1.000  H
  C28      1.0000 0.11140  0.78850  0.75400  Biso   1.000  C
  Co8      1.0000 0.71651  0.01905  0.81076  Biso   1.000  Co
  O22      1.0000 0.96277  0.30404  0.97483  Biso   1.000  O
  O23      1.0000 0.72544  0.08102  0.00383  Biso   1.000  O
  O24      1.0000 0.89649  0.26076  0.73803  Biso   1.000  O
  C29      1.0000 0.91337  0.26173  0.90873  Biso   1.000  C
  C30      1.0000 0.87397  0.21363  0.04673  Biso   1.000  C
  C31      1.0000 0.81987  0.16843  0.97643  Biso   1.000  C
  H8       1.0000 0.81097  0.16973  0.84303  Biso   1.000  H
  C32      1.0000 0.77807  0.12183  0.08733  Biso   1.000  C
  Co9      1.0000 0.38317  0.35239  0.14410  Biso   1.000  Co
  O25      1.0000 0.62943  0.63738  0.30817  Biso   1.000  O
  O26      1.0000 0.39210  0.41436  0.33717  Biso   1.000  O
  O27      1.0000 0.56315  0.59410  0.07137  Biso   1.000  O
  C33      1.0000 0.58003  0.59507  0.24207  Biso   1.000  C
  C34      1.0000 0.54063  0.54697  0.38007  Biso   1.000  C
  C35      1.0000 0.48653  0.50177  0.30977  Biso   1.000  C
  H9       1.0000 0.47763  0.50307  0.17637  Biso   1.000  H
  C36      1.0000 0.44473  0.45517  0.42067  Biso   1.000  C
  Co10     1.0000 0.68572  0.63588  0.52257  Biso   1.000  Co
  O28      1.0000 0.97071  0.67461  0.35850  Biso   1.000  O
  O29      1.0000 0.74769  0.68892  0.32950  Biso   1.000  O
  O30      1.0000 0.92743  0.69761  0.59530  Biso   1.000  O
  C37      1.0000 0.92840  0.68170  0.42460  Biso   1.000  C
  C38      1.0000 0.88030  0.67300  0.28660  Biso   1.000  C
  C39      1.0000 0.83510  0.68190  0.35690  Biso   1.000  C
  H10      1.0000 0.83640  0.69210  0.49030  Biso   1.000  H
  C40      1.0000 0.78850  0.67710  0.24600  Biso   1.000  C
  Co11     1.0000 0.35239  0.96921  0.85590  Biso   1.000  Co
  O31      1.0000 0.63738  0.00794  0.69183  Biso   1.000  O
  O32      1.0000 0.41436  0.02225  0.66283  Biso   1.000  O
  O33      1.0000 0.59410  0.03094  0.92863  Biso   1.000  O
  C41      1.0000 0.59507  0.01503  0.75793  Biso   1.000  C
  C42      1.0000 0.54697  0.00633  0.61993  Biso   1.000  C
  C43      1.0000 0.50177  0.01523  0.69023  Biso   1.000  C
  H11      1.0000 0.50307  0.02543  0.82363  Biso   1.000  H
  C44      1.0000 0.45517  0.01043  0.57933  Biso   1.000  C
  Co12     1.0000 0.01905  0.30255  0.18924  Biso   1.000  Co
  O34      1.0000 0.30404  0.34128  0.02517  Biso   1.000  O
  O35      1.0000 0.08102  0.35559  0.99617  Biso   1.000  O
  O36      1.0000 0.26076  0.36428  0.26197  Biso   1.000  O
  C45      1.0000 0.26173  0.34837  0.09127  Biso   1.000  C
  C46      1.0000 0.21363  0.33967  0.95327  Biso   1.000  C
  C47      1.0000 0.16843  0.34857  0.02357  Biso   1.000  C
  H12      1.0000 0.16973  0.35877  0.15697  Biso   1.000  H
  C48      1.0000 0.12183  0.34377  0.91267  Biso   1.000  C
  Co13     1.0000 0.36412  0.04984  0.52257  Biso   1.000  Co
  O37      1.0000 0.32539  0.29610  0.35850  Biso   1.000  O
  O38      1.0000 0.31108  0.05877  0.32950  Biso   1.000  O
  O39      1.0000 0.30239  0.22982  0.59530  Biso   1.000  O
  C49      1.0000 0.31830  0.24670  0.42460  Biso   1.000  C
  C50      1.0000 0.32700  0.20730  0.28660  Biso   1.000  C
  C51      1.0000 0.31810  0.15320  0.35690  Biso   1.000  C
  H13      1.0000 0.30790  0.14430  0.49030  Biso   1.000  H
  C52      1.0000 0.32290  0.11140  0.24600  Biso   1.000  C
  Co14     1.0000 0.03079  0.38317  0.85590  Biso   1.000  Co
  O40      1.0000 0.99206  0.62943  0.69183  Biso   1.000  O
  O41      1.0000 0.97775  0.39210  0.66283  Biso   1.000  O
  O42      1.0000 0.96906  0.56315  0.92863  Biso   1.000  O
  C53      1.0000 0.98497  0.58003  0.75793  Biso   1.000  C
  C54      1.0000 0.99367  0.54063  0.61993  Biso   1.000  C
  C55      1.0000 0.98477  0.48653  0.69023  Biso   1.000  C
  H14      1.0000 0.97457  0.47763  0.82363  Biso   1.000  H
  C56      1.0000 0.98957  0.44473  0.57933  Biso   1.000  C
  Co15     1.0000 0.69745  0.71651  0.18924  Biso   1.000  Co
  O43      1.0000 0.65872  0.96277  0.02517  Biso   1.000  O
  O44      1.0000 0.64441  0.72544  0.99617  Biso   1.000  O
  O45      1.0000 0.63572  0.89649  0.26197  Biso   1.000  O
  C57      1.0000 0.65163  0.91337  0.09127  Biso   1.000  C
  C58      1.0000 0.66033  0.87397  0.95327  Biso   1.000  C
  C59      1.0000 0.65143  0.81987  0.02357  Biso   1.000  C
  H15      1.0000 0.64123  0.81097  0.15697  Biso   1.000  H
  C60      1.0000 0.65623  0.77807  0.91267  Biso   1.000  C
  Co16     1.0000 0.95016  0.31428  0.52257  Biso   1.000  Co
  O46      1.0000 0.70390  0.02929  0.35850  Biso   1.000  O
  O47      1.0000 0.94123  0.25231  0.32950  Biso   1.000  O
  O48      1.0000 0.77018  0.07257  0.59530  Biso   1.000  O
  C61      1.0000 0.75330  0.07160  0.42460  Biso   1.000  C
  C62      1.0000 0.79270  0.11970  0.28660  Biso   1.000  C
  C63      1.0000 0.84680  0.16490  0.35690  Biso   1.000  C
  H16      1.0000 0.85570  0.16360  0.49030  Biso   1.000  H
  C64      1.0000 0.88860  0.21150  0.24600  Biso   1.000  C
  Co17     1.0000 0.61683  0.64761  0.85590  Biso   1.000  Co
  O49      1.0000 0.37057  0.36262  0.69183  Biso   1.000  O
  O50      1.0000 0.60790  0.58564  0.66283  Biso   1.000  O
  O51      1.0000 0.43685  0.40590  0.92863  Biso   1.000  O
  C65      1.0000 0.41997  0.40493  0.75793  Biso   1.000  C
  C66      1.0000 0.45937  0.45303  0.61993  Biso   1.000  C
  C67      1.0000 0.51347  0.49823  0.69023  Biso   1.000  C
  H17      1.0000 0.52237  0.49693  0.82363  Biso   1.000  H
  C68      1.0000 0.55527  0.54483  0.57933  Biso   1.000  C
  Co18     1.0000 0.28349  0.98095  0.18924  Biso   1.000  Co
  O52      1.0000 0.03723  0.69596  0.02517  Biso   1.000  O
  O53      1.0000 0.27456  0.91898  0.99617  Biso   1.000  O
  O54      1.0000 0.10351  0.73924  0.26197  Biso   1.000  O
  C69      1.0000 0.08663  0.73827  0.09127  Biso   1.000  C
  C70      1.0000 0.12603  0.78637  0.95327  Biso   1.000  C
  C71      1.0000 0.18013  0.83157  0.02357  Biso   1.000  C
  H18      1.0000 0.18903  0.83027  0.15697  Biso   1.000  H
  C72      1.0000 0.22193  0.87817  0.91267  Biso   1.000  C
