data_image0
_cell_length_a       25.866
_cell_length_b       25.866
_cell_length_c       6.8457
_cell_angle_alpha    90
_cell_angle_beta     90
_cell_angle_gamma    120

_symmetry_space_group_name_H-M    "P 1"
_symmetry_int_tables_number       1

loop_
  _symmetry_equiv_pos_as_xyz
  'x, y, z'

loop_
  _atom_site_label
  _atom_site_occupancy
  _atom_site_fract_x
  _atom_site_fract_y
  _atom_site_fract_z
  _atom_site_thermal_displace_type
  _atom_site_B_iso_or_equiv
  _atom_site_type_symbol
  Co1      1.0000 0.97041  0.61787  0.14301  Biso   1.000  Co
  O1       1.0000 0.02201  0.60776  0.33840  Biso   1.000  O
  O2       1.0000 0.99381  0.62945  0.69610  Biso   1.000  O
  O3       1.0000 0.96838  0.56260  0.93220  Biso   1.000  O
  C1       1.0000 0.01033  0.55561  0.42280  Biso   1.000  C
  C2       1.0000 0.99415  0.54070  0.62150  Biso   1.000  C
  C3       1.0000 0.98405  0.48547  0.69270  Biso   1.000  C
  H1       1.0000 0.97290  0.47580  0.82560  Biso   1.000  H
  C4       1.0000 0.98494  0.57941  0.76030  Biso   1.000  C
  Co2      1.0000 0.63708  0.95120  0.47634  Biso   1.000  Co
  O4       1.0000 0.68868  0.94109  0.67173  Biso   1.000  O
  O5       1.0000 0.66048  0.96278  0.02943  Biso   1.000  O
  O6       1.0000 0.63505  0.89593  0.26553  Biso   1.000  O
  C5       1.0000 0.67700  0.88894  0.75613  Biso   1.000  C
  C6       1.0000 0.66082  0.87403  0.95483  Biso   1.000  C
  C7       1.0000 0.65072  0.81880  0.02603  Biso   1.000  C
  H2       1.0000 0.63957  0.80913  0.15893  Biso   1.000  H
  C8       1.0000 0.65161  0.91274  0.09363  Biso   1.000  C
  Co3      1.0000 0.30374  0.28454  0.80968  Biso   1.000  Co
  O7       1.0000 0.35534  0.27443  0.00507  Biso   1.000  O
  O8       1.0000 0.32714  0.29612  0.36277  Biso   1.000  O
  O9       1.0000 0.30171  0.22927  0.59887  Biso   1.000  O
  C9       1.0000 0.34366  0.22228  0.08947  Biso   1.000  C
  C10      1.0000 0.32748  0.20737  0.28817  Biso   1.000  C
  C11      1.0000 0.31738  0.15214  0.35937  Biso   1.000  C
  H3       1.0000 0.30623  0.14247  0.49227  Biso   1.000  H
  C12      1.0000 0.31827  0.24608  0.42697  Biso   1.000  C
  Co4      1.0000 0.38213  0.35254  0.14301  Biso   1.000  Co
  O10      1.0000 0.39224  0.41425  0.33840  Biso   1.000  O
  O11      1.0000 0.37055  0.36436  0.69610  Biso   1.000  O
  O12      1.0000 0.43740  0.40578  0.93220  Biso   1.000  O
  C13      1.0000 0.44439  0.45472  0.42280  Biso   1.000  C
  C14      1.0000 0.45930  0.45345  0.62150  Biso   1.000  C
  C15      1.0000 0.51453  0.49858  0.69270  Biso   1.000  C
  H4       1.0000 0.52420  0.49710  0.82560  Biso   1.000  H
  C16      1.0000 0.42059  0.40553  0.76030  Biso   1.000  C
  Co5      1.0000 0.04880  0.68587  0.47634  Biso   1.000  Co
  O13      1.0000 0.05891  0.74758  0.67173  Biso   1.000  O
  O14      1.0000 0.03722  0.69769  0.02943  Biso   1.000  O
  O15      1.0000 0.10407  0.73911  0.26553  Biso   1.000  O
  C17      1.0000 0.11106  0.78805  0.75613  Biso   1.000  C
  C18      1.0000 0.12597  0.78678  0.95483  Biso   1.000  C
  C19      1.0000 0.18120  0.83191  0.02603  Biso   1.000  C
  H5       1.0000 0.19087  0.83043  0.15893  Biso   1.000  H
  C20      1.0000 0.08726  0.73886  0.09363  Biso   1.000  C
  Co6      1.0000 0.71546  0.01921  0.80968  Biso   1.000  Co
  O16      1.0000 0.72557  0.08092  0.00507  Biso   1.000  O
  O17      1.0000 0.70388  0.03103  0.36277  Biso   1.000  O
  O18      1.0000 0.77073  0.07245  0.59887  Biso   1.000  O
  C21      1.0000 0.77772  0.12139  0.08947  Biso   1.000  C
  C22      1.0000 0.79263  0.12012  0.28817  Biso   1.000  C
  C23      1.0000 0.84786  0.16525  0.35937  Biso   1.000  C
  H6       1.0000 0.85753  0.16377  0.49227  Biso   1.000  H
  C24      1.0000 0.75392  0.07220  0.42697  Biso   1.000  C
  Co7      1.0000 0.64746  0.02959  0.14301  Biso   1.000  Co
  O19      1.0000 0.58575  0.97799  0.33840  Biso   1.000  O
  O20      1.0000 0.63564  0.00619  0.69610  Biso   1.000  O
  O21      1.0000 0.59422  0.03162  0.93220  Biso   1.000  O
  C25      1.0000 0.54528  0.98967  0.42280  Biso   1.000  C
  C26      1.0000 0.54655  0.00585  0.62150  Biso   1.000  C
  C27      1.0000 0.50142  0.01595  0.69270  Biso   1.000  C
  H7       1.0000 0.50290  0.02710  0.82560  Biso   1.000  H
  C28      1.0000 0.59447  0.01506  0.76030  Biso   1.000  C
  Co8      1.0000 0.31413  0.36292  0.47634  Biso   1.000  Co
  O22      1.0000 0.25242  0.31132  0.67173  Biso   1.000  O
  O23      1.0000 0.30231  0.33952  0.02943  Biso   1.000  O
  O24      1.0000 0.26089  0.36495  0.26553  Biso   1.000  O
  C29      1.0000 0.21195  0.32300  0.75613  Biso   1.000  C
  C30      1.0000 0.21322  0.33918  0.95483  Biso   1.000  C
  C31      1.0000 0.16809  0.34928  0.02603  Biso   1.000  C
  H8       1.0000 0.16957  0.36043  0.15893  Biso   1.000  H
  C32      1.0000 0.26114  0.34839  0.09363  Biso   1.000  C
  Co9      1.0000 0.98079  0.69626  0.80968  Biso   1.000  Co
  O25      1.0000 0.91908  0.64466  0.00507  Biso   1.000  O
  O26      1.0000 0.96897  0.67286  0.36277  Biso   1.000  O
  O27      1.0000 0.92755  0.69829  0.59887  Biso   1.000  O
  C33      1.0000 0.87861  0.65634  0.08947  Biso   1.000  C
  C34      1.0000 0.87988  0.67252  0.28817  Biso   1.000  C
  C35      1.0000 0.83475  0.68262  0.35937  Biso   1.000  C
  H9       1.0000 0.83623  0.69377  0.49227  Biso   1.000  H
  C36      1.0000 0.92780  0.68173  0.42697  Biso   1.000  C
  Co10     1.0000 0.02959  0.38213  0.85699  Biso   1.000  Co
  O28      1.0000 0.97799  0.39224  0.66160  Biso   1.000  O
  O29      1.0000 0.00619  0.37055  0.30390  Biso   1.000  O
  O30      1.0000 0.03162  0.43740  0.06780  Biso   1.000  O
  C37      1.0000 0.98967  0.44439  0.57720  Biso   1.000  C
  C38      1.0000 0.00585  0.45930  0.37850  Biso   1.000  C
  C39      1.0000 0.01595  0.51453  0.30730  Biso   1.000  C
  H10      1.0000 0.02710  0.52420  0.17440  Biso   1.000  H
  C40      1.0000 0.01506  0.42059  0.23970  Biso   1.000  C
  Co11     1.0000 0.69626  0.71546  0.19032  Biso   1.000  Co
  O31      1.0000 0.64466  0.72557  0.99493  Biso   1.000  O
  O32      1.0000 0.67286  0.70388  0.63723  Biso   1.000  O
  O33      1.0000 0.69829  0.77073  0.40113  Biso   1.000  O
  C41      1.0000 0.65634  0.77772  0.91053  Biso   1.000  C
  C42      1.0000 0.67252  0.79263  0.71183  Biso   1.000  C
  C43      1.0000 0.68262  0.84786  0.64063  Biso   1.000  C
  H11      1.0000 0.69377  0.85753  0.50773  Biso   1.000  H
  C44      1.0000 0.68173  0.75392  0.57303  Biso   1.000  C
  Co12     1.0000 0.36292  0.04880  0.52366  Biso   1.000  Co
  O34      1.0000 0.31132  0.05891  0.32827  Biso   1.000  O
  O35      1.0000 0.33952  0.03722  0.97057  Biso   1.000  O
  O36      1.0000 0.36495  0.10407  0.73447  Biso   1.000  O
  C45      1.0000 0.32300  0.11106  0.24387  Biso   1.000  C
  C46      1.0000 0.33918  0.12597  0.04517  Biso   1.000  C
  C47      1.0000 0.34928  0.18120  0.97397  Biso   1.000  C
  H12      1.0000 0.36043  0.19087  0.84107  Biso   1.000  H
  C48      1.0000 0.34839  0.08726  0.90637  Biso   1.000  C
  Co13     1.0000 0.61787  0.64746  0.85699  Biso   1.000  Co
  O37      1.0000 0.60776  0.58575  0.66160  Biso   1.000  O
  O38      1.0000 0.62945  0.63564  0.30390  Biso   1.000  O
  O39      1.0000 0.56260  0.59422  0.06780  Biso   1.000  O
  C49      1.0000 0.55561  0.54528  0.57720  Biso   1.000  C
  C50      1.0000 0.54070  0.54655  0.37850  Biso   1.000  C
  C51      1.0000 0.48547  0.50142  0.30730  Biso   1.000  C
  H13      1.0000 0.47580  0.50290  0.17440  Biso   1.000  H
  C52      1.0000 0.57941  0.59447  0.23970  Biso   1.000  C
  Co14     1.0000 0.28454  0.98079  0.19032  Biso   1.000  Co
  O40      1.0000 0.27443  0.91908  0.99493  Biso   1.000  O
  O41      1.0000 0.29612  0.96897  0.63723  Biso   1.000  O
  O42      1.0000 0.22927  0.92755  0.40113  Biso   1.000  O
  C53      1.0000 0.22228  0.87861  0.91053  Biso   1.000  C
  C54      1.0000 0.20737  0.87988  0.71183  Biso   1.000  C
  C55      1.0000 0.15214  0.83475  0.64063  Biso   1.000  C
  H14      1.0000 0.14247  0.83623  0.50773  Biso   1.000  H
  C56      1.0000 0.24608  0.92780  0.57303  Biso   1.000  C
  Co15     1.0000 0.95120  0.31413  0.52366  Biso   1.000  Co
  O43      1.0000 0.94109  0.25242  0.32827  Biso   1.000  O
  O44      1.0000 0.96278  0.30231  0.97057  Biso   1.000  O
  O45      1.0000 0.89593  0.26089  0.73447  Biso   1.000  O
  C57      1.0000 0.88894  0.21195  0.24387  Biso   1.000  C
  C58      1.0000 0.87403  0.21322  0.04517  Biso   1.000  C
  C59      1.0000 0.81880  0.16809  0.97397  Biso   1.000  C
  H15      1.0000 0.80913  0.16957  0.84107  Biso   1.000  H
  C60      1.0000 0.91274  0.26114  0.90637  Biso   1.000  C
  Co16     1.0000 0.35254  0.97041  0.85699  Biso   1.000  Co
  O46      1.0000 0.41425  0.02201  0.66160  Biso   1.000  O
  O47      1.0000 0.36436  0.99381  0.30390  Biso   1.000  O
  O48      1.0000 0.40578  0.96838  0.06780  Biso   1.000  O
  C61      1.0000 0.45472  0.01033  0.57720  Biso   1.000  C
  C62      1.0000 0.45345  0.99415  0.37850  Biso   1.000  C
  C63      1.0000 0.49858  0.98405  0.30730  Biso   1.000  C
  H16      1.0000 0.49710  0.97290  0.17440  Biso   1.000  H
  C64      1.0000 0.40553  0.98494  0.23970  Biso   1.000  C
  Co17     1.0000 0.01921  0.30374  0.19032  Biso   1.000  Co
  O49      1.0000 0.08092  0.35534  0.99493  Biso   1.000  O
  O50      1.0000 0.03103  0.32714  0.63723  Biso   1.000  O
  O51      1.0000 0.07245  0.30171  0.40113  Biso   1.000  O
  C65      1.0000 0.12139  0.34366  0.91053  Biso   1.000  C
  C66      1.0000 0.12012  0.32748  0.71183  Biso   1.000  C
  C67      1.0000 0.16525  0.31738  0.64063  Biso   1.000  C
  H17      1.0000 0.16377  0.30623  0.50773  Biso   1.000  H
  C68      1.0000 0.07220  0.31827  0.57303  Biso   1.000  C
  Co18     1.0000 0.68587  0.63708  0.52366  Biso   1.000  Co
  O52      1.0000 0.74758  0.68868  0.32827  Biso   1.000  O
  O53      1.0000 0.69769  0.66048  0.97057  Biso   1.000  O
  O54      1.0000 0.73911  0.63505  0.73447  Biso   1.000  O
  C69      1.0000 0.78805  0.67700  0.24387  Biso   1.000  C
  C70      1.0000 0.78678  0.66082  0.04517  Biso   1.000  C
  C71      1.0000 0.83191  0.65072  0.97397  Biso   1.000  C
  H18      1.0000 0.83043  0.63957  0.84107  Biso   1.000  H
  C72      1.0000 0.73886  0.65161  0.90637  Biso   1.000  C
