data_image0
_cell_length_a       25.81
_cell_length_b       25.81
_cell_length_c       6.901
_cell_angle_alpha    90
_cell_angle_beta     90
_cell_angle_gamma    120

_symmetry_space_group_name_H-M    "P 1"
_symmetry_int_tables_number       1

loop_
  _symmetry_equiv_pos_as_xyz
  'x, y, z'

loop_
  _atom_site_label
  _atom_site_occupancy
  _atom_site_fract_x
  _atom_site_fract_y
  _atom_site_fract_z
  _atom_site_thermal_displace_type
  _atom_site_B_iso_or_equiv
  _atom_site_type_symbol
  Co1      1.0000 0.68593  0.05053  0.02140  Biso   1.000  Co
  O1       1.0000 0.60782  0.02285  0.16270  Biso   1.000  O
  O2       1.0000 0.62955  0.99238  0.80790  Biso   1.000  O
  O3       1.0000 0.56356  0.97027  0.57140  Biso   1.000  O
  N1       1.0000 0.68890  0.13390  0.91580  Biso   1.000  N
  N2       1.0000 0.69490  0.17750  0.88660  Biso   1.000  N
  C1       1.0000 0.55580  0.01080  0.07760  Biso   1.000  C
  C2       1.0000 0.54130  0.99520  0.88000  Biso   1.000  C
  C3       1.0000 0.48670  0.98520  0.80840  Biso   1.000  C
  H1       1.0000 0.47790  0.97520  0.67540  Biso   1.000  H
  C4       1.0000 0.58040  0.98580  0.74370  Biso   1.000  C
  Co2      1.0000 0.35260  0.38386  0.35473  Biso   1.000  Co
  O4       1.0000 0.27449  0.35618  0.49603  Biso   1.000  O
  O5       1.0000 0.29622  0.32571  0.14123  Biso   1.000  O
  O6       1.0000 0.23023  0.30360  0.90473  Biso   1.000  O
  N3       1.0000 0.35557  0.46723  0.24913  Biso   1.000  N
  N4       1.0000 0.36157  0.51083  0.21993  Biso   1.000  N
  C5       1.0000 0.22247  0.34413  0.41093  Biso   1.000  C
  C6       1.0000 0.20797  0.32853  0.21333  Biso   1.000  C
  C7       1.0000 0.15337  0.31853  0.14173  Biso   1.000  C
  H2       1.0000 0.14457  0.30853  0.00873  Biso   1.000  H
  C8       1.0000 0.24707  0.31913  0.07703  Biso   1.000  C
  Co3      1.0000 0.01926  0.71720  0.68807  Biso   1.000  Co
  O7       1.0000 0.94115  0.68952  0.82937  Biso   1.000  O
  O8       1.0000 0.96288  0.65905  0.47457  Biso   1.000  O
  O9       1.0000 0.89689  0.63694  0.23807  Biso   1.000  O
  N5       1.0000 0.02223  0.80057  0.58247  Biso   1.000  N
  N6       1.0000 0.02823  0.84417  0.55327  Biso   1.000  N
  C9       1.0000 0.88913  0.67747  0.74427  Biso   1.000  C
  C10      1.0000 0.87463  0.66187  0.54667  Biso   1.000  C
  C11      1.0000 0.82003  0.65187  0.47507  Biso   1.000  C
  H3       1.0000 0.81123  0.64187  0.34207  Biso   1.000  H
  C12      1.0000 0.91373  0.65247  0.41037  Biso   1.000  C
  Co4      1.0000 0.94947  0.63540  0.02140  Biso   1.000  Co
  O10      1.0000 0.97715  0.58497  0.16270  Biso   1.000  O
  O11      1.0000 0.00762  0.63717  0.80790  Biso   1.000  O
  O12      1.0000 0.02973  0.59329  0.57140  Biso   1.000  O
  N7       1.0000 0.86610  0.55500  0.91580  Biso   1.000  N
  N8       1.0000 0.82250  0.51740  0.88660  Biso   1.000  N
  C13      1.0000 0.98920  0.54500  0.07760  Biso   1.000  C
  C14      1.0000 0.00480  0.54610  0.88000  Biso   1.000  C
  C15      1.0000 0.01480  0.50150  0.80840  Biso   1.000  C
  H4       1.0000 0.02480  0.50270  0.67540  Biso   1.000  H
  C16      1.0000 0.01420  0.59460  0.74370  Biso   1.000  C
  Co5      1.0000 0.61614  0.96873  0.35473  Biso   1.000  Co
  O13      1.0000 0.64382  0.91830  0.49603  Biso   1.000  O
  O14      1.0000 0.67429  0.97050  0.14123  Biso   1.000  O
  O15      1.0000 0.69640  0.92662  0.90473  Biso   1.000  O
  N9       1.0000 0.53277  0.88833  0.24913  Biso   1.000  N
  N10      1.0000 0.48917  0.85073  0.21993  Biso   1.000  N
  C17      1.0000 0.65587  0.87833  0.41093  Biso   1.000  C
  C18      1.0000 0.67147  0.87943  0.21333  Biso   1.000  C
  C19      1.0000 0.68147  0.83483  0.14173  Biso   1.000  C
  H5       1.0000 0.69147  0.83603  0.00873  Biso   1.000  H
  C20      1.0000 0.68087  0.92793  0.07703  Biso   1.000  C
  Co6      1.0000 0.28280  0.30207  0.68807  Biso   1.000  Co
  O16      1.0000 0.31048  0.25164  0.82937  Biso   1.000  O
  O17      1.0000 0.34095  0.30384  0.47457  Biso   1.000  O
  O18      1.0000 0.36306  0.25996  0.23807  Biso   1.000  O
  N11      1.0000 0.19943  0.22167  0.58247  Biso   1.000  N
  N12      1.0000 0.15583  0.18407  0.55327  Biso   1.000  N
  C21      1.0000 0.32253  0.21167  0.74427  Biso   1.000  C
  C22      1.0000 0.33813  0.21277  0.54667  Biso   1.000  C
  C23      1.0000 0.34813  0.16817  0.47507  Biso   1.000  C
  H6       1.0000 0.35813  0.16937  0.34207  Biso   1.000  H
  C24      1.0000 0.34753  0.26127  0.41037  Biso   1.000  C
  Co7      1.0000 0.36460  0.31407  0.02140  Biso   1.000  Co
  O19      1.0000 0.41503  0.39218  0.16270  Biso   1.000  O
  O20      1.0000 0.36283  0.37045  0.80790  Biso   1.000  O
  O21      1.0000 0.40671  0.43644  0.57140  Biso   1.000  O
  N13      1.0000 0.44500  0.31110  0.91580  Biso   1.000  N
  N14      1.0000 0.48260  0.30510  0.88660  Biso   1.000  N
  C25      1.0000 0.45500  0.44420  0.07760  Biso   1.000  C
  C26      1.0000 0.45390  0.45870  0.88000  Biso   1.000  C
  C27      1.0000 0.49850  0.51330  0.80840  Biso   1.000  C
  H7       1.0000 0.49730  0.52210  0.67540  Biso   1.000  H
  C28      1.0000 0.40540  0.41960  0.74370  Biso   1.000  C
  Co8      1.0000 0.03127  0.64740  0.35473  Biso   1.000  Co
  O22      1.0000 0.08170  0.72551  0.49603  Biso   1.000  O
  O23      1.0000 0.02950  0.70378  0.14123  Biso   1.000  O
  O24      1.0000 0.07338  0.76977  0.90473  Biso   1.000  O
  N15      1.0000 0.11167  0.64443  0.24913  Biso   1.000  N
  N16      1.0000 0.14927  0.63843  0.21993  Biso   1.000  N
  C29      1.0000 0.12167  0.77753  0.41093  Biso   1.000  C
  C30      1.0000 0.12057  0.79203  0.21333  Biso   1.000  C
  C31      1.0000 0.16517  0.84663  0.14173  Biso   1.000  C
  H8       1.0000 0.16397  0.85543  0.00873  Biso   1.000  H
  C32      1.0000 0.07207  0.75293  0.07703  Biso   1.000  C
  Co9      1.0000 0.69793  0.98074  0.68807  Biso   1.000  Co
  O25      1.0000 0.74836  0.05885  0.82937  Biso   1.000  O
  O26      1.0000 0.69616  0.03712  0.47457  Biso   1.000  O
  O27      1.0000 0.74004  0.10311  0.23807  Biso   1.000  O
  N17      1.0000 0.77833  0.97777  0.58247  Biso   1.000  N
  N18      1.0000 0.81593  0.97177  0.55327  Biso   1.000  N
  C33      1.0000 0.78833  0.11087  0.74427  Biso   1.000  C
  C34      1.0000 0.78723  0.12537  0.54667  Biso   1.000  C
  C35      1.0000 0.83183  0.17997  0.47507  Biso   1.000  C
  H9       1.0000 0.83063  0.18877  0.34207  Biso   1.000  H
  C36      1.0000 0.73873  0.08627  0.41037  Biso   1.000  C
  Co10     1.0000 0.31407  0.94947  0.97860  Biso   1.000  Co
  O28      1.0000 0.39218  0.97715  0.83730  Biso   1.000  O
  O29      1.0000 0.37045  0.00762  0.19210  Biso   1.000  O
  O30      1.0000 0.43644  0.02973  0.42860  Biso   1.000  O
  N19      1.0000 0.31110  0.86610  0.08420  Biso   1.000  N
  N20      1.0000 0.30510  0.82250  0.11340  Biso   1.000  N
  C37      1.0000 0.44420  0.98920  0.92240  Biso   1.000  C
  C38      1.0000 0.45870  0.00480  0.12000  Biso   1.000  C
  C39      1.0000 0.51330  0.01480  0.19160  Biso   1.000  C
  H10      1.0000 0.52210  0.02480  0.32460  Biso   1.000  H
  C40      1.0000 0.41960  0.01420  0.25630  Biso   1.000  C
  Co11     1.0000 0.98074  0.28280  0.31193  Biso   1.000  Co
  O31      1.0000 0.05885  0.31048  0.17063  Biso   1.000  O
  O32      1.0000 0.03712  0.34095  0.52543  Biso   1.000  O
  O33      1.0000 0.10311  0.36306  0.76193  Biso   1.000  O
  N21      1.0000 0.97777  0.19943  0.41753  Biso   1.000  N
  N22      1.0000 0.97177  0.15583  0.44673  Biso   1.000  N
  C41      1.0000 0.11087  0.32253  0.25573  Biso   1.000  C
  C42      1.0000 0.12537  0.33813  0.45333  Biso   1.000  C
  C43      1.0000 0.17997  0.34813  0.52493  Biso   1.000  C
  H11      1.0000 0.18877  0.35813  0.65793  Biso   1.000  H
  C44      1.0000 0.08627  0.34753  0.58963  Biso   1.000  C
  Co12     1.0000 0.64740  0.61614  0.64527  Biso   1.000  Co
  O34      1.0000 0.72551  0.64382  0.50397  Biso   1.000  O
  O35      1.0000 0.70378  0.67429  0.85877  Biso   1.000  O
  O36      1.0000 0.76977  0.69640  0.09527  Biso   1.000  O
  N23      1.0000 0.64443  0.53277  0.75087  Biso   1.000  N
  N24      1.0000 0.63843  0.48917  0.78007  Biso   1.000  N
  C45      1.0000 0.77753  0.65587  0.58907  Biso   1.000  C
  C46      1.0000 0.79203  0.67147  0.78667  Biso   1.000  C
  C47      1.0000 0.84663  0.68147  0.85827  Biso   1.000  C
  H12      1.0000 0.85543  0.69147  0.99127  Biso   1.000  H
  C48      1.0000 0.75293  0.68087  0.92297  Biso   1.000  C
  Co13     1.0000 0.05053  0.36460  0.97860  Biso   1.000  Co
  O37      1.0000 0.02285  0.41503  0.83730  Biso   1.000  O
  O38      1.0000 0.99238  0.36283  0.19210  Biso   1.000  O
  O39      1.0000 0.97027  0.40671  0.42860  Biso   1.000  O
  N25      1.0000 0.13390  0.44500  0.08420  Biso   1.000  N
  N26      1.0000 0.17750  0.48260  0.11340  Biso   1.000  N
  C49      1.0000 0.01080  0.45500  0.92240  Biso   1.000  C
  C50      1.0000 0.99520  0.45390  0.12000  Biso   1.000  C
  C51      1.0000 0.98520  0.49850  0.19160  Biso   1.000  C
  H13      1.0000 0.97520  0.49730  0.32460  Biso   1.000  H
  C52      1.0000 0.98580  0.40540  0.25630  Biso   1.000  C
  Co14     1.0000 0.71720  0.69793  0.31193  Biso   1.000  Co
  O40      1.0000 0.68952  0.74836  0.17063  Biso   1.000  O
  O41      1.0000 0.65905  0.69616  0.52543  Biso   1.000  O
  O42      1.0000 0.63694  0.74004  0.76193  Biso   1.000  O
  N27      1.0000 0.80057  0.77833  0.41753  Biso   1.000  N
  N28      1.0000 0.84417  0.81593  0.44673  Biso   1.000  N
  C53      1.0000 0.67747  0.78833  0.25573  Biso   1.000  C
  C54      1.0000 0.66187  0.78723  0.45333  Biso   1.000  C
  C55      1.0000 0.65187  0.83183  0.52493  Biso   1.000  C
  H14      1.0000 0.64187  0.83063  0.65793  Biso   1.000  H
  C56      1.0000 0.65247  0.73873  0.58963  Biso   1.000  C
  Co15     1.0000 0.38386  0.03127  0.64527  Biso   1.000  Co
  O43      1.0000 0.35618  0.08170  0.50397  Biso   1.000  O
  O44      1.0000 0.32571  0.02950  0.85877  Biso   1.000  O
  O45      1.0000 0.30360  0.07338  0.09527  Biso   1.000  O
  N29      1.0000 0.46723  0.11167  0.75087  Biso   1.000  N
  N30      1.0000 0.51083  0.14927  0.78007  Biso   1.000  N
  C57      1.0000 0.34413  0.12167  0.58907  Biso   1.000  C
  C58      1.0000 0.32853  0.12057  0.78667  Biso   1.000  C
  C59      1.0000 0.31853  0.16517  0.85827  Biso   1.000  C
  H15      1.0000 0.30853  0.16397  0.99127  Biso   1.000  H
  C60      1.0000 0.31913  0.07207  0.92297  Biso   1.000  C
  Co16     1.0000 0.63540  0.68593  0.97860  Biso   1.000  Co
  O46      1.0000 0.58497  0.60782  0.83730  Biso   1.000  O
  O47      1.0000 0.63717  0.62955  0.19210  Biso   1.000  O
  O48      1.0000 0.59329  0.56356  0.42860  Biso   1.000  O
  N31      1.0000 0.55500  0.68890  0.08420  Biso   1.000  N
  N32      1.0000 0.51740  0.69490  0.11340  Biso   1.000  N
  C61      1.0000 0.54500  0.55580  0.92240  Biso   1.000  C
  C62      1.0000 0.54610  0.54130  0.12000  Biso   1.000  C
  C63      1.0000 0.50150  0.48670  0.19160  Biso   1.000  C
  H16      1.0000 0.50270  0.47790  0.32460  Biso   1.000  H
  C64      1.0000 0.59460  0.58040  0.25630  Biso   1.000  C
  Co17     1.0000 0.30207  0.01926  0.31193  Biso   1.000  Co
  O49      1.0000 0.25164  0.94115  0.17063  Biso   1.000  O
  O50      1.0000 0.30384  0.96288  0.52543  Biso   1.000  O
  O51      1.0000 0.25996  0.89689  0.76193  Biso   1.000  O
  N33      1.0000 0.22167  0.02223  0.41753  Biso   1.000  N
  N34      1.0000 0.18407  0.02823  0.44673  Biso   1.000  N
  C65      1.0000 0.21167  0.88913  0.25573  Biso   1.000  C
  C66      1.0000 0.21277  0.87463  0.45333  Biso   1.000  C
  C67      1.0000 0.16817  0.82003  0.52493  Biso   1.000  C
  H17      1.0000 0.16937  0.81123  0.65793  Biso   1.000  H
  C68      1.0000 0.26127  0.91373  0.58963  Biso   1.000  C
  Co18     1.0000 0.96873  0.35260  0.64527  Biso   1.000  Co
  O52      1.0000 0.91830  0.27449  0.50397  Biso   1.000  O
  O53      1.0000 0.97050  0.29622  0.85877  Biso   1.000  O
  O54      1.0000 0.92662  0.23023  0.09527  Biso   1.000  O
  N35      1.0000 0.88833  0.35557  0.75087  Biso   1.000  N
  N36      1.0000 0.85073  0.36157  0.78007  Biso   1.000  N
  C69      1.0000 0.87833  0.22247  0.58907  Biso   1.000  C
  C70      1.0000 0.87943  0.20797  0.78667  Biso   1.000  C
  C71      1.0000 0.83483  0.15337  0.85827  Biso   1.000  C
  H18      1.0000 0.83603  0.14457  0.99127  Biso   1.000  H
  C72      1.0000 0.92793  0.24707  0.92297  Biso   1.000  C
