data_image0
_cell_length_a       25.86
_cell_length_b       25.86
_cell_length_c       6.8678
_cell_angle_alpha    90
_cell_angle_beta     90
_cell_angle_gamma    120

_symmetry_space_group_name_H-M    "P 1"
_symmetry_int_tables_number       1

loop_
  _symmetry_equiv_pos_as_xyz
  'x, y, z'

loop_
  _atom_site_label
  _atom_site_occupancy
  _atom_site_fract_x
  _atom_site_fract_y
  _atom_site_fract_z
  _atom_site_thermal_displace_type
  _atom_site_B_iso_or_equiv
  _atom_site_type_symbol
  Co1      1.0000 0.36295  0.04900  0.52338  Biso   1.000  Co
  O1       1.0000 0.31120  0.05898  0.32780  Biso   1.000  O
  O2       1.0000 0.33971  0.03725  0.97070  Biso   1.000  O
  O3       1.0000 0.36499  0.10394  0.73500  Biso   1.000  O
  C1       1.0000 0.32274  0.11099  0.24370  Biso   1.000  C
  C2       1.0000 0.33927  0.12607  0.04610  Biso   1.000  C
  C3       1.0000 0.34948  0.18115  0.97390  Biso   1.000  C
  H1       1.0000 0.36060  0.19070  0.84120  Biso   1.000  H
  C4       1.0000 0.34829  0.08681  0.90710  Biso   1.000  C
  Co2      1.0000 0.02962  0.38233  0.85671  Biso   1.000  Co
  O4       1.0000 0.97787  0.39231  0.66113  Biso   1.000  O
  O5       1.0000 0.00638  0.37058  0.30403  Biso   1.000  O
  O6       1.0000 0.03166  0.43727  0.06833  Biso   1.000  O
  C5       1.0000 0.98941  0.44432  0.57703  Biso   1.000  C
  C6       1.0000 0.00594  0.45940  0.37943  Biso   1.000  C
  C7       1.0000 0.01615  0.51448  0.30723  Biso   1.000  C
  H2       1.0000 0.02727  0.52403  0.17453  Biso   1.000  H
  C8       1.0000 0.01496  0.42014  0.24043  Biso   1.000  C
  Co3      1.0000 0.69628  0.71567  0.19005  Biso   1.000  Co
  O7       1.0000 0.64453  0.72565  0.99447  Biso   1.000  O
  O8       1.0000 0.67304  0.70392  0.63737  Biso   1.000  O
  O9       1.0000 0.69832  0.77061  0.40167  Biso   1.000  O
  C9       1.0000 0.65607  0.77766  0.91037  Biso   1.000  C
  C10      1.0000 0.67260  0.79274  0.71277  Biso   1.000  C
  C11      1.0000 0.68281  0.84782  0.64057  Biso   1.000  C
  H3       1.0000 0.69393  0.85737  0.50787  Biso   1.000  H
  C12      1.0000 0.68162  0.75348  0.57377  Biso   1.000  C
  Co4      1.0000 0.95100  0.31395  0.52338  Biso   1.000  Co
  O10      1.0000 0.94102  0.25222  0.32780  Biso   1.000  O
  O11      1.0000 0.96275  0.30246  0.97070  Biso   1.000  O
  O12      1.0000 0.89606  0.26105  0.73500  Biso   1.000  O
  C13      1.0000 0.88901  0.21175  0.24370  Biso   1.000  C
  C14      1.0000 0.87393  0.21320  0.04610  Biso   1.000  C
  C15      1.0000 0.81885  0.16833  0.97390  Biso   1.000  C
  H4       1.0000 0.80930  0.16990  0.84120  Biso   1.000  H
  C16      1.0000 0.91319  0.26148  0.90710  Biso   1.000  C
  Co5      1.0000 0.61767  0.64728  0.85671  Biso   1.000  Co
  O13      1.0000 0.60769  0.58555  0.66113  Biso   1.000  O
  O14      1.0000 0.62942  0.63579  0.30403  Biso   1.000  O
  O15      1.0000 0.56273  0.59438  0.06833  Biso   1.000  O
  C17      1.0000 0.55568  0.54508  0.57703  Biso   1.000  C
  C18      1.0000 0.54060  0.54653  0.37943  Biso   1.000  C
  C19      1.0000 0.48552  0.50166  0.30723  Biso   1.000  C
  H5       1.0000 0.47597  0.50323  0.17453  Biso   1.000  H
  C20      1.0000 0.57986  0.59481  0.24043  Biso   1.000  C
  Co6      1.0000 0.28433  0.98062  0.19005  Biso   1.000  Co
  O16      1.0000 0.27435  0.91889  0.99447  Biso   1.000  O
  O17      1.0000 0.29608  0.96913  0.63737  Biso   1.000  O
  O18      1.0000 0.22939  0.92772  0.40167  Biso   1.000  O
  C21      1.0000 0.22234  0.87842  0.91037  Biso   1.000  C
  C22      1.0000 0.20726  0.87987  0.71277  Biso   1.000  C
  C23      1.0000 0.15218  0.83500  0.64057  Biso   1.000  C
  H6       1.0000 0.14263  0.83657  0.50787  Biso   1.000  H
  C24      1.0000 0.24652  0.92815  0.57377  Biso   1.000  C
  Co7      1.0000 0.68605  0.63705  0.52338  Biso   1.000  Co
  O19      1.0000 0.74778  0.68880  0.32780  Biso   1.000  O
  O20      1.0000 0.69754  0.66029  0.97070  Biso   1.000  O
  O21      1.0000 0.73895  0.63501  0.73500  Biso   1.000  O
  C25      1.0000 0.78825  0.67726  0.24370  Biso   1.000  C
  C26      1.0000 0.78680  0.66073  0.04610  Biso   1.000  C
  C27      1.0000 0.83167  0.65052  0.97390  Biso   1.000  C
  H7       1.0000 0.83010  0.63940  0.84120  Biso   1.000  H
  C28      1.0000 0.73852  0.65171  0.90710  Biso   1.000  C
  Co8      1.0000 0.35272  0.97038  0.85671  Biso   1.000  Co
  O22      1.0000 0.41445  0.02213  0.66113  Biso   1.000  O
  O23      1.0000 0.36421  0.99362  0.30403  Biso   1.000  O
  O24      1.0000 0.40562  0.96834  0.06833  Biso   1.000  O
  C29      1.0000 0.45492  0.01059  0.57703  Biso   1.000  C
  C30      1.0000 0.45347  0.99406  0.37943  Biso   1.000  C
  C31      1.0000 0.49834  0.98385  0.30723  Biso   1.000  C
  H8       1.0000 0.49677  0.97273  0.17453  Biso   1.000  H
  C32      1.0000 0.40519  0.98504  0.24043  Biso   1.000  C
  Co9      1.0000 0.01938  0.30372  0.19005  Biso   1.000  Co
  O25      1.0000 0.08111  0.35547  0.99447  Biso   1.000  O
  O26      1.0000 0.03087  0.32696  0.63737  Biso   1.000  O
  O27      1.0000 0.07228  0.30168  0.40167  Biso   1.000  O
  C33      1.0000 0.12158  0.34393  0.91037  Biso   1.000  C
  C34      1.0000 0.12013  0.32740  0.71277  Biso   1.000  C
  C35      1.0000 0.16500  0.31719  0.64057  Biso   1.000  C
  H9       1.0000 0.16343  0.30607  0.50787  Biso   1.000  H
  C36      1.0000 0.07185  0.31838  0.57377  Biso   1.000  C
  Co10     1.0000 0.63705  0.95100  0.47662  Biso   1.000  Co
  O28      1.0000 0.68880  0.94102  0.67220  Biso   1.000  O
  O29      1.0000 0.66029  0.96275  0.02930  Biso   1.000  O
  O30      1.0000 0.63501  0.89606  0.26500  Biso   1.000  O
  C37      1.0000 0.67726  0.88901  0.75630  Biso   1.000  C
  C38      1.0000 0.66073  0.87393  0.95390  Biso   1.000  C
  C39      1.0000 0.65052  0.81885  0.02610  Biso   1.000  C
  H10      1.0000 0.63940  0.80930  0.15880  Biso   1.000  H
  C40      1.0000 0.65171  0.91319  0.09290  Biso   1.000  C
  Co11     1.0000 0.30372  0.28433  0.80995  Biso   1.000  Co
  O31      1.0000 0.35547  0.27435  0.00553  Biso   1.000  O
  O32      1.0000 0.32696  0.29608  0.36263  Biso   1.000  O
  O33      1.0000 0.30168  0.22939  0.59833  Biso   1.000  O
  C41      1.0000 0.34393  0.22234  0.08963  Biso   1.000  C
  C42      1.0000 0.32740  0.20726  0.28723  Biso   1.000  C
  C43      1.0000 0.31719  0.15218  0.35943  Biso   1.000  C
  H11      1.0000 0.30607  0.14263  0.49213  Biso   1.000  H
  C44      1.0000 0.31838  0.24652  0.42623  Biso   1.000  C
  Co12     1.0000 0.97038  0.61767  0.14329  Biso   1.000  Co
  O34      1.0000 0.02213  0.60769  0.33887  Biso   1.000  O
  O35      1.0000 0.99362  0.62942  0.69597  Biso   1.000  O
  O36      1.0000 0.96834  0.56273  0.93167  Biso   1.000  O
  C45      1.0000 0.01059  0.55568  0.42297  Biso   1.000  C
  C46      1.0000 0.99406  0.54060  0.62057  Biso   1.000  C
  C47      1.0000 0.98385  0.48552  0.69277  Biso   1.000  C
  H12      1.0000 0.97273  0.47597  0.82547  Biso   1.000  H
  C48      1.0000 0.98504  0.57986  0.75957  Biso   1.000  C
  Co13     1.0000 0.04900  0.68605  0.47662  Biso   1.000  Co
  O37      1.0000 0.05898  0.74778  0.67220  Biso   1.000  O
  O38      1.0000 0.03725  0.69754  0.02930  Biso   1.000  O
  O39      1.0000 0.10394  0.73895  0.26500  Biso   1.000  O
  C49      1.0000 0.11099  0.78825  0.75630  Biso   1.000  C
  C50      1.0000 0.12607  0.78680  0.95390  Biso   1.000  C
  C51      1.0000 0.18115  0.83167  0.02610  Biso   1.000  C
  H13      1.0000 0.19070  0.83010  0.15880  Biso   1.000  H
  C52      1.0000 0.08681  0.73852  0.09290  Biso   1.000  C
  Co14     1.0000 0.71567  0.01938  0.80995  Biso   1.000  Co
  O40      1.0000 0.72565  0.08111  0.00553  Biso   1.000  O
  O41      1.0000 0.70392  0.03087  0.36263  Biso   1.000  O
  O42      1.0000 0.77061  0.07228  0.59833  Biso   1.000  O
  C53      1.0000 0.77766  0.12158  0.08963  Biso   1.000  C
  C54      1.0000 0.79274  0.12013  0.28723  Biso   1.000  C
  C55      1.0000 0.84782  0.16500  0.35943  Biso   1.000  C
  H14      1.0000 0.85737  0.16343  0.49213  Biso   1.000  H
  C56      1.0000 0.75348  0.07185  0.42623  Biso   1.000  C
  Co15     1.0000 0.38233  0.35272  0.14329  Biso   1.000  Co
  O43      1.0000 0.39231  0.41445  0.33887  Biso   1.000  O
  O44      1.0000 0.37058  0.36421  0.69597  Biso   1.000  O
  O45      1.0000 0.43727  0.40562  0.93167  Biso   1.000  O
  C57      1.0000 0.44432  0.45492  0.42297  Biso   1.000  C
  C58      1.0000 0.45940  0.45347  0.62057  Biso   1.000  C
  C59      1.0000 0.51448  0.49834  0.69277  Biso   1.000  C
  H15      1.0000 0.52403  0.49677  0.82547  Biso   1.000  H
  C60      1.0000 0.42014  0.40519  0.75957  Biso   1.000  C
  Co16     1.0000 0.31395  0.36295  0.47662  Biso   1.000  Co
  O46      1.0000 0.25222  0.31120  0.67220  Biso   1.000  O
  O47      1.0000 0.30246  0.33971  0.02930  Biso   1.000  O
  O48      1.0000 0.26105  0.36499  0.26500  Biso   1.000  O
  C61      1.0000 0.21175  0.32274  0.75630  Biso   1.000  C
  C62      1.0000 0.21320  0.33927  0.95390  Biso   1.000  C
  C63      1.0000 0.16833  0.34948  0.02610  Biso   1.000  C
  H16      1.0000 0.16990  0.36060  0.15880  Biso   1.000  H
  C64      1.0000 0.26148  0.34829  0.09290  Biso   1.000  C
  Co17     1.0000 0.98062  0.69628  0.80995  Biso   1.000  Co
  O49      1.0000 0.91889  0.64453  0.00553  Biso   1.000  O
  O50      1.0000 0.96913  0.67304  0.36263  Biso   1.000  O
  O51      1.0000 0.92772  0.69832  0.59833  Biso   1.000  O
  C65      1.0000 0.87842  0.65607  0.08963  Biso   1.000  C
  C66      1.0000 0.87987  0.67260  0.28723  Biso   1.000  C
  C67      1.0000 0.83500  0.68281  0.35943  Biso   1.000  C
  H17      1.0000 0.83657  0.69393  0.49213  Biso   1.000  H
  C68      1.0000 0.92815  0.68162  0.42623  Biso   1.000  C
  Co18     1.0000 0.64728  0.02962  0.14329  Biso   1.000  Co
  O52      1.0000 0.58555  0.97787  0.33887  Biso   1.000  O
  O53      1.0000 0.63579  0.00638  0.69597  Biso   1.000  O
  O54      1.0000 0.59438  0.03166  0.93167  Biso   1.000  O
  C69      1.0000 0.54508  0.98941  0.42297  Biso   1.000  C
  C70      1.0000 0.54653  0.00594  0.62057  Biso   1.000  C
  C71      1.0000 0.50166  0.01615  0.69277  Biso   1.000  C
  H18      1.0000 0.50323  0.02727  0.82547  Biso   1.000  H
  C72      1.0000 0.59481  0.01496  0.75957  Biso   1.000  C
