data_image0
_cell_length_a       30.057
_cell_length_b       16.187
_cell_length_c       21.894
_cell_angle_alpha    90
_cell_angle_beta     114.478
_cell_angle_gamma    90

_symmetry_space_group_name_H-M    "P 1"
_symmetry_int_tables_number       1

loop_
  _symmetry_equiv_pos_as_xyz
  'x, y, z'

loop_
  _atom_site_label
  _atom_site_occupancy
  _atom_site_fract_x
  _atom_site_fract_y
  _atom_site_fract_z
  _atom_site_thermal_displace_type
  _atom_site_B_iso_or_equiv
  _atom_site_type_symbol
  Zn1      1.0000 0.70158  0.54852  0.47437  Biso   1.000  Zn
  O1       1.0000 0.85120  0.09250  0.00273  Biso   1.000  O
  O2       1.0000 0.80627  0.19880  0.98350  Biso   1.000  O
  O3       1.0000 0.18156  0.07630  0.37863  Biso   1.000  O
  O4       1.0000 0.23874  0.17035  0.41953  Biso   1.000  O
  O5       1.0000 0.76653  0.53668  0.54644  Biso   1.000  O
  O6       1.0000 0.79696  0.66605  0.56158  Biso   1.000  O
  N1       1.0000 0.99709  0.36424  0.97809  Biso   1.000  N
  C1       1.0000 0.84463  0.16750  0.99102  Biso   1.000  C
  C2       1.0000 0.88368  0.21879  0.98488  Biso   1.000  C
  C3       1.0000 0.92691  0.18349  0.99048  Biso   1.000  C
  H1       1.0000 0.93110  0.12670  0.99630  Biso   1.000  H
  C4       1.0000 0.96390  0.23101  0.98756  Biso   1.000  C
  H2       1.0000 0.99280  0.20620  0.99130  Biso   1.000  H
  C5       1.0000 0.95827  0.31554  0.97910  Biso   1.000  C
  C6       1.0000 0.91495  0.35175  0.97285  Biso   1.000  C
  H3       1.0000 0.91080  0.40860  0.96700  Biso   1.000  H
  C7       1.0000 0.87786  0.30366  0.97522  Biso   1.000  C
  H4       1.0000 0.84860  0.32830  0.97030  Biso   1.000  H
  C8       1.0000 0.04619  0.36007  0.02401  Biso   1.000  C
  C9       1.0000 0.06695  0.31479  0.08354  Biso   1.000  C
  H5       1.0000 0.04760  0.28180  0.09760  Biso   1.000  H
  C10      1.0000 0.11695  0.32004  0.12113  Biso   1.000  C
  C11      1.0000 0.14536  0.37267  0.09991  Biso   1.000  C
  H6       1.0000 0.17890  0.37630  0.12560  Biso   1.000  H
  C12      1.0000 0.12424  0.41886  0.04170  Biso   1.000  C
  H7       1.0000 0.14340  0.45350  0.02850  Biso   1.000  H
  C13      1.0000 0.07421  0.41301  0.00306  Biso   1.000  C
  C14      1.0000 0.04083  0.45131  0.94146  Biso   1.000  C
  C15      1.0000 0.04661  0.50795  0.89724  Biso   1.000  C
  H8       1.0000 0.07720  0.52980  0.90570  Biso   1.000  H
  C16      1.0000 0.00596  0.53107  0.84067  Biso   1.000  C
  H9       1.0000 0.00950  0.56990  0.81170  Biso   1.000  H
  C17      1.0000 0.95959  0.49767  0.82565  Biso   1.000  C
  C18      1.0000 0.95318  0.44227  0.86970  Biso   1.000  C
  H10      1.0000 0.92250  0.42050  0.86100  Biso   1.000  H
  C19      1.0000 0.99381  0.42024  0.92719  Biso   1.000  C
  C20      1.0000 0.14030  0.27133  0.18449  Biso   1.000  C
  C21      1.0000 0.11941  0.19857  0.19353  Biso   1.000  C
  H11      1.0000 0.09120  0.17860  0.15890  Biso   1.000  H
  C22      1.0000 0.13993  0.15518  0.25331  Biso   1.000  C
  H12      1.0000 0.12530  0.10660  0.25850  Biso   1.000  H
  C23      1.0000 0.18238  0.18391  0.30585  Biso   1.000  C
  C24      1.0000 0.20340  0.25410  0.29680  Biso   1.000  C
  H13      1.0000 0.23190  0.27320  0.33140  Biso   1.000  H
  C25      1.0000 0.18331  0.29829  0.23687  Biso   1.000  C
  H14      1.0000 0.19870  0.34600  0.23170  Biso   1.000  H
  C26      1.0000 0.20199  0.14090  0.37243  Biso   1.000  C
  C27      1.0000 0.91770  0.52077  0.76160  Biso   1.000  C
  C28      1.0000 0.91467  0.60015  0.73544  Biso   1.000  C
  H15      1.0000 0.93860  0.63900  0.75850  Biso   1.000  H
  C29      1.0000 0.87628  0.62179  0.67525  Biso   1.000  C
  H16      1.0000 0.87470  0.67490  0.65830  Biso   1.000  H
  C30      1.0000 0.84039  0.56508  0.64030  Biso   1.000  C
  C31      1.0000 0.84328  0.48587  0.66511  Biso   1.000  C
  H17      1.0000 0.81940  0.44720  0.64160  Biso   1.000  H
  C32      1.0000 0.88196  0.46380  0.72542  Biso   1.000  C
  H18      1.0000 0.88380  0.41020  0.74160  Biso   1.000  H
  C33      1.0000 0.79757  0.59188  0.57769  Biso   1.000  C
  Zn2      1.0000 0.20158  0.04852  0.47437  Biso   1.000  Zn
  O7       1.0000 0.35120  0.59250  0.00273  Biso   1.000  O
  O8       1.0000 0.30627  0.69880  0.98350  Biso   1.000  O
  O9       1.0000 0.68156  0.57630  0.37863  Biso   1.000  O
  O10      1.0000 0.73874  0.67035  0.41953  Biso   1.000  O
  O11      1.0000 0.26653  0.03668  0.54644  Biso   1.000  O
  O12      1.0000 0.29696  0.16605  0.56158  Biso   1.000  O
  N2       1.0000 0.49709  0.86424  0.97809  Biso   1.000  N
  C34      1.0000 0.34463  0.66750  0.99102  Biso   1.000  C
  C35      1.0000 0.38368  0.71879  0.98488  Biso   1.000  C
  C36      1.0000 0.42691  0.68349  0.99048  Biso   1.000  C
  H19      1.0000 0.43110  0.62670  0.99630  Biso   1.000  H
  C37      1.0000 0.46390  0.73101  0.98756  Biso   1.000  C
  H20      1.0000 0.49280  0.70620  0.99130  Biso   1.000  H
  C38      1.0000 0.45827  0.81554  0.97910  Biso   1.000  C
  C39      1.0000 0.41495  0.85175  0.97285  Biso   1.000  C
  H21      1.0000 0.41080  0.90860  0.96700  Biso   1.000  H
  C40      1.0000 0.37786  0.80366  0.97522  Biso   1.000  C
  H22      1.0000 0.34860  0.82830  0.97030  Biso   1.000  H
  C41      1.0000 0.54619  0.86007  0.02401  Biso   1.000  C
  C42      1.0000 0.56695  0.81479  0.08354  Biso   1.000  C
  H23      1.0000 0.54760  0.78180  0.09760  Biso   1.000  H
  C43      1.0000 0.61695  0.82004  0.12113  Biso   1.000  C
  C44      1.0000 0.64536  0.87267  0.09991  Biso   1.000  C
  H24      1.0000 0.67890  0.87630  0.12560  Biso   1.000  H
  C45      1.0000 0.62424  0.91886  0.04170  Biso   1.000  C
  H25      1.0000 0.64340  0.95350  0.02850  Biso   1.000  H
  C46      1.0000 0.57421  0.91301  0.00306  Biso   1.000  C
  C47      1.0000 0.54083  0.95131  0.94146  Biso   1.000  C
  C48      1.0000 0.54661  0.00795  0.89724  Biso   1.000  C
  H26      1.0000 0.57720  0.02980  0.90570  Biso   1.000  H
  C49      1.0000 0.50596  0.03107  0.84067  Biso   1.000  C
  H27      1.0000 0.50950  0.06990  0.81170  Biso   1.000  H
  C50      1.0000 0.45959  0.99767  0.82565  Biso   1.000  C
  C51      1.0000 0.45318  0.94227  0.86970  Biso   1.000  C
  H28      1.0000 0.42250  0.92050  0.86100  Biso   1.000  H
  C52      1.0000 0.49381  0.92024  0.92719  Biso   1.000  C
  C53      1.0000 0.64030  0.77133  0.18449  Biso   1.000  C
  C54      1.0000 0.61941  0.69857  0.19353  Biso   1.000  C
  H29      1.0000 0.59120  0.67860  0.15890  Biso   1.000  H
  C55      1.0000 0.63993  0.65518  0.25331  Biso   1.000  C
  H30      1.0000 0.62530  0.60660  0.25850  Biso   1.000  H
  C56      1.0000 0.68238  0.68391  0.30585  Biso   1.000  C
  C57      1.0000 0.70340  0.75410  0.29680  Biso   1.000  C
  H31      1.0000 0.73190  0.77320  0.33140  Biso   1.000  H
  C58      1.0000 0.68331  0.79829  0.23687  Biso   1.000  C
  H32      1.0000 0.69870  0.84600  0.23170  Biso   1.000  H
  C59      1.0000 0.70199  0.64090  0.37243  Biso   1.000  C
  C60      1.0000 0.41770  0.02077  0.76160  Biso   1.000  C
  C61      1.0000 0.41467  0.10015  0.73544  Biso   1.000  C
  H33      1.0000 0.43860  0.13900  0.75850  Biso   1.000  H
  C62      1.0000 0.37628  0.12179  0.67525  Biso   1.000  C
  H34      1.0000 0.37470  0.17490  0.65830  Biso   1.000  H
  C63      1.0000 0.34039  0.06508  0.64030  Biso   1.000  C
  C64      1.0000 0.34328  0.98587  0.66511  Biso   1.000  C
  H35      1.0000 0.31940  0.94720  0.64160  Biso   1.000  H
  C65      1.0000 0.38196  0.96380  0.72542  Biso   1.000  C
  H36      1.0000 0.38380  0.91020  0.74160  Biso   1.000  H
  C66      1.0000 0.29757  0.09188  0.57769  Biso   1.000  C
  Zn3      1.0000 0.29842  0.54852  0.02563  Biso   1.000  Zn
  O13      1.0000 0.14880  0.09250  0.49727  Biso   1.000  O
  O14      1.0000 0.19373  0.19880  0.51650  Biso   1.000  O
  O15      1.0000 0.81844  0.07630  0.12137  Biso   1.000  O
  O16      1.0000 0.76126  0.17035  0.08047  Biso   1.000  O
  O17      1.0000 0.23347  0.53668  0.95356  Biso   1.000  O
  O18      1.0000 0.20304  0.66605  0.93842  Biso   1.000  O
  N3       1.0000 0.00291  0.36424  0.52191  Biso   1.000  N
  C67      1.0000 0.15537  0.16750  0.50898  Biso   1.000  C
  C68      1.0000 0.11632  0.21879  0.51512  Biso   1.000  C
  C69      1.0000 0.07309  0.18349  0.50952  Biso   1.000  C
  H37      1.0000 0.06890  0.12670  0.50370  Biso   1.000  H
  C70      1.0000 0.03610  0.23101  0.51244  Biso   1.000  C
  H38      1.0000 0.00720  0.20620  0.50870  Biso   1.000  H
  C71      1.0000 0.04173  0.31554  0.52090  Biso   1.000  C
  C72      1.0000 0.08505  0.35175  0.52715  Biso   1.000  C
  H39      1.0000 0.08920  0.40860  0.53300  Biso   1.000  H
  C73      1.0000 0.12214  0.30366  0.52478  Biso   1.000  C
  H40      1.0000 0.15140  0.32830  0.52970  Biso   1.000  H
  C74      1.0000 0.95381  0.36007  0.47599  Biso   1.000  C
  C75      1.0000 0.93305  0.31479  0.41646  Biso   1.000  C
  H41      1.0000 0.95240  0.28180  0.40240  Biso   1.000  H
  C76      1.0000 0.88305  0.32004  0.37887  Biso   1.000  C
  C77      1.0000 0.85464  0.37267  0.40009  Biso   1.000  C
  H42      1.0000 0.82110  0.37630  0.37440  Biso   1.000  H
  C78      1.0000 0.87576  0.41886  0.45830  Biso   1.000  C
  H43      1.0000 0.85660  0.45350  0.47150  Biso   1.000  H
  C79      1.0000 0.92579  0.41301  0.49694  Biso   1.000  C
  C80      1.0000 0.95917  0.45131  0.55854  Biso   1.000  C
  C81      1.0000 0.95339  0.50795  0.60276  Biso   1.000  C
  H44      1.0000 0.92280  0.52980  0.59430  Biso   1.000  H
  C82      1.0000 0.99404  0.53107  0.65933  Biso   1.000  C
  H45      1.0000 0.99050  0.56990  0.68830  Biso   1.000  H
  C83      1.0000 0.04041  0.49767  0.67435  Biso   1.000  C
  C84      1.0000 0.04682  0.44227  0.63030  Biso   1.000  C
  H46      1.0000 0.07750  0.42050  0.63900  Biso   1.000  H
  C85      1.0000 0.00619  0.42024  0.57281  Biso   1.000  C
  C86      1.0000 0.85970  0.27133  0.31551  Biso   1.000  C
  C87      1.0000 0.88059  0.19857  0.30647  Biso   1.000  C
  H47      1.0000 0.90880  0.17860  0.34110  Biso   1.000  H
  C88      1.0000 0.86007  0.15518  0.24669  Biso   1.000  C
  H48      1.0000 0.87470  0.10660  0.24150  Biso   1.000  H
  C89      1.0000 0.81762  0.18391  0.19415  Biso   1.000  C
  C90      1.0000 0.79660  0.25410  0.20320  Biso   1.000  C
  H49      1.0000 0.76810  0.27320  0.16860  Biso   1.000  H
  C91      1.0000 0.81669  0.29829  0.26313  Biso   1.000  C
  H50      1.0000 0.80130  0.34600  0.26830  Biso   1.000  H
  C92      1.0000 0.79801  0.14090  0.12757  Biso   1.000  C
  C93      1.0000 0.08230  0.52077  0.73840  Biso   1.000  C
  C94      1.0000 0.08533  0.60015  0.76456  Biso   1.000  C
  H51      1.0000 0.06140  0.63900  0.74150  Biso   1.000  H
  C95      1.0000 0.12372  0.62179  0.82475  Biso   1.000  C
  H52      1.0000 0.12530  0.67490  0.84170  Biso   1.000  H
  C96      1.0000 0.15961  0.56508  0.85970  Biso   1.000  C
  C97      1.0000 0.15672  0.48587  0.83489  Biso   1.000  C
  H53      1.0000 0.18060  0.44720  0.85840  Biso   1.000  H
  C98      1.0000 0.11804  0.46380  0.77458  Biso   1.000  C
  H54      1.0000 0.11620  0.41020  0.75840  Biso   1.000  H
  C99      1.0000 0.20243  0.59188  0.92231  Biso   1.000  C
  Zn4      1.0000 0.79842  0.04852  0.02563  Biso   1.000  Zn
  O19      1.0000 0.64880  0.59250  0.49727  Biso   1.000  O
  O20      1.0000 0.69373  0.69880  0.51650  Biso   1.000  O
  O21      1.0000 0.31844  0.57630  0.12137  Biso   1.000  O
  O22      1.0000 0.26126  0.67035  0.08047  Biso   1.000  O
  O23      1.0000 0.73347  0.03668  0.95356  Biso   1.000  O
  O24      1.0000 0.70304  0.16605  0.93842  Biso   1.000  O
  N4       1.0000 0.50291  0.86424  0.52191  Biso   1.000  N
  C100     1.0000 0.65537  0.66750  0.50898  Biso   1.000  C
  C101     1.0000 0.61632  0.71879  0.51512  Biso   1.000  C
  C102     1.0000 0.57309  0.68349  0.50952  Biso   1.000  C
  H55      1.0000 0.56890  0.62670  0.50370  Biso   1.000  H
  C103     1.0000 0.53610  0.73101  0.51244  Biso   1.000  C
  H56      1.0000 0.50720  0.70620  0.50870  Biso   1.000  H
  C104     1.0000 0.54173  0.81554  0.52090  Biso   1.000  C
  C105     1.0000 0.58505  0.85175  0.52715  Biso   1.000  C
  H57      1.0000 0.58920  0.90860  0.53300  Biso   1.000  H
  C106     1.0000 0.62214  0.80366  0.52478  Biso   1.000  C
  H58      1.0000 0.65140  0.82830  0.52970  Biso   1.000  H
  C107     1.0000 0.45381  0.86007  0.47599  Biso   1.000  C
  C108     1.0000 0.43305  0.81479  0.41646  Biso   1.000  C
  H59      1.0000 0.45240  0.78180  0.40240  Biso   1.000  H
  C109     1.0000 0.38305  0.82004  0.37887  Biso   1.000  C
  C110     1.0000 0.35464  0.87267  0.40009  Biso   1.000  C
  H60      1.0000 0.32110  0.87630  0.37440  Biso   1.000  H
  C111     1.0000 0.37576  0.91886  0.45830  Biso   1.000  C
  H61      1.0000 0.35660  0.95350  0.47150  Biso   1.000  H
  C112     1.0000 0.42579  0.91301  0.49694  Biso   1.000  C
  C113     1.0000 0.45917  0.95131  0.55854  Biso   1.000  C
  C114     1.0000 0.45339  0.00795  0.60276  Biso   1.000  C
  H62      1.0000 0.42280  0.02980  0.59430  Biso   1.000  H
  C115     1.0000 0.49404  0.03107  0.65933  Biso   1.000  C
  H63      1.0000 0.49050  0.06990  0.68830  Biso   1.000  H
  C116     1.0000 0.54041  0.99767  0.67435  Biso   1.000  C
  C117     1.0000 0.54682  0.94227  0.63030  Biso   1.000  C
  H64      1.0000 0.57750  0.92050  0.63900  Biso   1.000  H
  C118     1.0000 0.50619  0.92024  0.57281  Biso   1.000  C
  C119     1.0000 0.35970  0.77133  0.31551  Biso   1.000  C
  C120     1.0000 0.38059  0.69857  0.30647  Biso   1.000  C
  H65      1.0000 0.40880  0.67860  0.34110  Biso   1.000  H
  C121     1.0000 0.36007  0.65518  0.24669  Biso   1.000  C
  H66      1.0000 0.37470  0.60660  0.24150  Biso   1.000  H
  C122     1.0000 0.31762  0.68391  0.19415  Biso   1.000  C
  C123     1.0000 0.29660  0.75410  0.20320  Biso   1.000  C
  H67      1.0000 0.26810  0.77320  0.16860  Biso   1.000  H
  C124     1.0000 0.31669  0.79829  0.26313  Biso   1.000  C
  H68      1.0000 0.30130  0.84600  0.26830  Biso   1.000  H
  C125     1.0000 0.29801  0.64090  0.12757  Biso   1.000  C
  C126     1.0000 0.58230  0.02077  0.73840  Biso   1.000  C
  C127     1.0000 0.58533  0.10015  0.76456  Biso   1.000  C
  H69      1.0000 0.56140  0.13900  0.74150  Biso   1.000  H
  C128     1.0000 0.62372  0.12179  0.82475  Biso   1.000  C
  H70      1.0000 0.62530  0.17490  0.84170  Biso   1.000  H
  C129     1.0000 0.65961  0.06508  0.85970  Biso   1.000  C
  C130     1.0000 0.65672  0.98587  0.83489  Biso   1.000  C
  H71      1.0000 0.68060  0.94720  0.85840  Biso   1.000  H
  C131     1.0000 0.61804  0.96380  0.77458  Biso   1.000  C
  H72      1.0000 0.61620  0.91020  0.75840  Biso   1.000  H
  C132     1.0000 0.70243  0.09188  0.92231  Biso   1.000  C
  Zn5      1.0000 0.29842  0.45148  0.52563  Biso   1.000  Zn
  O25      1.0000 0.14880  0.90750  0.99727  Biso   1.000  O
  O26      1.0000 0.19373  0.80120  0.01650  Biso   1.000  O
  O27      1.0000 0.81844  0.92370  0.62137  Biso   1.000  O
  O28      1.0000 0.76126  0.82965  0.58047  Biso   1.000  O
  O29      1.0000 0.23347  0.46332  0.45356  Biso   1.000  O
  O30      1.0000 0.20304  0.33395  0.43842  Biso   1.000  O
  N5       1.0000 0.00291  0.63576  0.02191  Biso   1.000  N
  C133     1.0000 0.15537  0.83250  0.00898  Biso   1.000  C
  C134     1.0000 0.11632  0.78121  0.01512  Biso   1.000  C
  C135     1.0000 0.07309  0.81651  0.00952  Biso   1.000  C
  H73      1.0000 0.06890  0.87330  0.00370  Biso   1.000  H
  C136     1.0000 0.03610  0.76899  0.01244  Biso   1.000  C
  H74      1.0000 0.00720  0.79380  0.00870  Biso   1.000  H
  C137     1.0000 0.04173  0.68446  0.02090  Biso   1.000  C
  C138     1.0000 0.08505  0.64825  0.02715  Biso   1.000  C
  H75      1.0000 0.08920  0.59140  0.03300  Biso   1.000  H
  C139     1.0000 0.12214  0.69634  0.02478  Biso   1.000  C
  H76      1.0000 0.15140  0.67170  0.02970  Biso   1.000  H
  C140     1.0000 0.95381  0.63993  0.97599  Biso   1.000  C
  C141     1.0000 0.93305  0.68521  0.91646  Biso   1.000  C
  H77      1.0000 0.95240  0.71820  0.90240  Biso   1.000  H
  C142     1.0000 0.88305  0.67996  0.87887  Biso   1.000  C
  C143     1.0000 0.85464  0.62733  0.90009  Biso   1.000  C
  H78      1.0000 0.82110  0.62370  0.87440  Biso   1.000  H
  C144     1.0000 0.87576  0.58114  0.95830  Biso   1.000  C
  H79      1.0000 0.85660  0.54650  0.97150  Biso   1.000  H
  C145     1.0000 0.92579  0.58699  0.99694  Biso   1.000  C
  C146     1.0000 0.95917  0.54869  0.05854  Biso   1.000  C
  C147     1.0000 0.95339  0.49205  0.10276  Biso   1.000  C
  H80      1.0000 0.92280  0.47020  0.09430  Biso   1.000  H
  C148     1.0000 0.99404  0.46893  0.15933  Biso   1.000  C
  H81      1.0000 0.99050  0.43010  0.18830  Biso   1.000  H
  C149     1.0000 0.04041  0.50233  0.17435  Biso   1.000  C
  C150     1.0000 0.04682  0.55773  0.13030  Biso   1.000  C
  H82      1.0000 0.07750  0.57950  0.13900  Biso   1.000  H
  C151     1.0000 0.00619  0.57976  0.07281  Biso   1.000  C
  C152     1.0000 0.85970  0.72867  0.81551  Biso   1.000  C
  C153     1.0000 0.88059  0.80143  0.80647  Biso   1.000  C
  H83      1.0000 0.90880  0.82140  0.84110  Biso   1.000  H
  C154     1.0000 0.86007  0.84482  0.74669  Biso   1.000  C
  H84      1.0000 0.87470  0.89340  0.74150  Biso   1.000  H
  C155     1.0000 0.81762  0.81609  0.69415  Biso   1.000  C
  C156     1.0000 0.79660  0.74590  0.70320  Biso   1.000  C
  H85      1.0000 0.76810  0.72680  0.66860  Biso   1.000  H
  C157     1.0000 0.81669  0.70171  0.76313  Biso   1.000  C
  H86      1.0000 0.80130  0.65400  0.76830  Biso   1.000  H
  C158     1.0000 0.79801  0.85910  0.62757  Biso   1.000  C
  C159     1.0000 0.08230  0.47923  0.23840  Biso   1.000  C
  C160     1.0000 0.08533  0.39985  0.26456  Biso   1.000  C
  H87      1.0000 0.06140  0.36100  0.24150  Biso   1.000  H
  C161     1.0000 0.12372  0.37821  0.32475  Biso   1.000  C
  H88      1.0000 0.12530  0.32510  0.34170  Biso   1.000  H
  C162     1.0000 0.15961  0.43492  0.35970  Biso   1.000  C
  C163     1.0000 0.15672  0.51413  0.33489  Biso   1.000  C
  H89      1.0000 0.18060  0.55280  0.35840  Biso   1.000  H
  C164     1.0000 0.11804  0.53620  0.27458  Biso   1.000  C
  H90      1.0000 0.11620  0.58980  0.25840  Biso   1.000  H
  C165     1.0000 0.20243  0.40812  0.42231  Biso   1.000  C
  Zn6      1.0000 0.79842  0.95148  0.52563  Biso   1.000  Zn
  O31      1.0000 0.64880  0.40750  0.99727  Biso   1.000  O
  O32      1.0000 0.69373  0.30120  0.01650  Biso   1.000  O
  O33      1.0000 0.31844  0.42370  0.62137  Biso   1.000  O
  O34      1.0000 0.26126  0.32965  0.58047  Biso   1.000  O
  O35      1.0000 0.73347  0.96332  0.45356  Biso   1.000  O
  O36      1.0000 0.70304  0.83395  0.43842  Biso   1.000  O
  N6       1.0000 0.50291  0.13576  0.02191  Biso   1.000  N
  C166     1.0000 0.65537  0.33250  0.00898  Biso   1.000  C
  C167     1.0000 0.61632  0.28121  0.01512  Biso   1.000  C
  C168     1.0000 0.57309  0.31651  0.00952  Biso   1.000  C
  H91      1.0000 0.56890  0.37330  0.00370  Biso   1.000  H
  C169     1.0000 0.53610  0.26899  0.01244  Biso   1.000  C
  H92      1.0000 0.50720  0.29380  0.00870  Biso   1.000  H
  C170     1.0000 0.54173  0.18446  0.02090  Biso   1.000  C
  C171     1.0000 0.58505  0.14825  0.02715  Biso   1.000  C
  H93      1.0000 0.58920  0.09140  0.03300  Biso   1.000  H
  C172     1.0000 0.62214  0.19634  0.02478  Biso   1.000  C
  H94      1.0000 0.65140  0.17170  0.02970  Biso   1.000  H
  C173     1.0000 0.45381  0.13993  0.97599  Biso   1.000  C
  C174     1.0000 0.43305  0.18521  0.91646  Biso   1.000  C
  H95      1.0000 0.45240  0.21820  0.90240  Biso   1.000  H
  C175     1.0000 0.38305  0.17996  0.87887  Biso   1.000  C
  C176     1.0000 0.35464  0.12733  0.90009  Biso   1.000  C
  H96      1.0000 0.32110  0.12370  0.87440  Biso   1.000  H
  C177     1.0000 0.37576  0.08114  0.95830  Biso   1.000  C
  H97      1.0000 0.35660  0.04650  0.97150  Biso   1.000  H
  C178     1.0000 0.42579  0.08699  0.99694  Biso   1.000  C
  C179     1.0000 0.45917  0.04869  0.05854  Biso   1.000  C
  C180     1.0000 0.45339  0.99205  0.10276  Biso   1.000  C
  H98      1.0000 0.42280  0.97020  0.09430  Biso   1.000  H
  C181     1.0000 0.49404  0.96893  0.15933  Biso   1.000  C
  H99      1.0000 0.49050  0.93010  0.18830  Biso   1.000  H
  C182     1.0000 0.54041  0.00233  0.17435  Biso   1.000  C
  C183     1.0000 0.54682  0.05773  0.13030  Biso   1.000  C
  H100     1.0000 0.57750  0.07950  0.13900  Biso   1.000  H
  C184     1.0000 0.50619  0.07976  0.07281  Biso   1.000  C
  C185     1.0000 0.35970  0.22867  0.81551  Biso   1.000  C
  C186     1.0000 0.38059  0.30143  0.80647  Biso   1.000  C
  H101     1.0000 0.40880  0.32140  0.84110  Biso   1.000  H
  C187     1.0000 0.36007  0.34482  0.74669  Biso   1.000  C
  H102     1.0000 0.37470  0.39340  0.74150  Biso   1.000  H
  C188     1.0000 0.31762  0.31609  0.69415  Biso   1.000  C
  C189     1.0000 0.29660  0.24590  0.70320  Biso   1.000  C
  H103     1.0000 0.26810  0.22680  0.66860  Biso   1.000  H
  C190     1.0000 0.31669  0.20171  0.76313  Biso   1.000  C
  H104     1.0000 0.30130  0.15400  0.76830  Biso   1.000  H
  C191     1.0000 0.29801  0.35910  0.62757  Biso   1.000  C
  C192     1.0000 0.58230  0.97923  0.23840  Biso   1.000  C
  C193     1.0000 0.58533  0.89985  0.26456  Biso   1.000  C
  H105     1.0000 0.56140  0.86100  0.24150  Biso   1.000  H
  C194     1.0000 0.62372  0.87821  0.32475  Biso   1.000  C
  H106     1.0000 0.62530  0.82510  0.34170  Biso   1.000  H
  C195     1.0000 0.65961  0.93492  0.35970  Biso   1.000  C
  C196     1.0000 0.65672  0.01413  0.33489  Biso   1.000  C
  H107     1.0000 0.68060  0.05280  0.35840  Biso   1.000  H
  C197     1.0000 0.61804  0.03620  0.27458  Biso   1.000  C
  H108     1.0000 0.61620  0.08980  0.25840  Biso   1.000  H
  C198     1.0000 0.70243  0.90812  0.42231  Biso   1.000  C
  Zn7      1.0000 0.70158  0.45148  0.97437  Biso   1.000  Zn
  O37      1.0000 0.85120  0.90750  0.50273  Biso   1.000  O
  O38      1.0000 0.80627  0.80120  0.48350  Biso   1.000  O
  O39      1.0000 0.18156  0.92370  0.87863  Biso   1.000  O
  O40      1.0000 0.23874  0.82965  0.91953  Biso   1.000  O
  O41      1.0000 0.76653  0.46332  0.04644  Biso   1.000  O
  O42      1.0000 0.79696  0.33395  0.06158  Biso   1.000  O
  N7       1.0000 0.99709  0.63576  0.47809  Biso   1.000  N
  C199     1.0000 0.84463  0.83250  0.49102  Biso   1.000  C
  C200     1.0000 0.88368  0.78121  0.48488  Biso   1.000  C
  C201     1.0000 0.92691  0.81651  0.49048  Biso   1.000  C
  H109     1.0000 0.93110  0.87330  0.49630  Biso   1.000  H
  C202     1.0000 0.96390  0.76899  0.48756  Biso   1.000  C
  H110     1.0000 0.99280  0.79380  0.49130  Biso   1.000  H
  C203     1.0000 0.95827  0.68446  0.47910  Biso   1.000  C
  C204     1.0000 0.91495  0.64825  0.47285  Biso   1.000  C
  H111     1.0000 0.91080  0.59140  0.46700  Biso   1.000  H
  C205     1.0000 0.87786  0.69634  0.47522  Biso   1.000  C
  H112     1.0000 0.84860  0.67170  0.47030  Biso   1.000  H
  C206     1.0000 0.04619  0.63993  0.52401  Biso   1.000  C
  C207     1.0000 0.06695  0.68521  0.58354  Biso   1.000  C
  H113     1.0000 0.04760  0.71820  0.59760  Biso   1.000  H
  C208     1.0000 0.11695  0.67996  0.62113  Biso   1.000  C
  C209     1.0000 0.14536  0.62733  0.59991  Biso   1.000  C
  H114     1.0000 0.17890  0.62370  0.62560  Biso   1.000  H
  C210     1.0000 0.12424  0.58114  0.54170  Biso   1.000  C
  H115     1.0000 0.14340  0.54650  0.52850  Biso   1.000  H
  C211     1.0000 0.07421  0.58699  0.50306  Biso   1.000  C
  C212     1.0000 0.04083  0.54869  0.44146  Biso   1.000  C
  C213     1.0000 0.04661  0.49205  0.39724  Biso   1.000  C
  H116     1.0000 0.07720  0.47020  0.40570  Biso   1.000  H
  C214     1.0000 0.00596  0.46893  0.34067  Biso   1.000  C
  H117     1.0000 0.00950  0.43010  0.31170  Biso   1.000  H
  C215     1.0000 0.95959  0.50233  0.32565  Biso   1.000  C
  C216     1.0000 0.95318  0.55773  0.36970  Biso   1.000  C
  H118     1.0000 0.92250  0.57950  0.36100  Biso   1.000  H
  C217     1.0000 0.99381  0.57976  0.42719  Biso   1.000  C
  C218     1.0000 0.14030  0.72867  0.68449  Biso   1.000  C
  C219     1.0000 0.11941  0.80143  0.69353  Biso   1.000  C
  H119     1.0000 0.09120  0.82140  0.65890  Biso   1.000  H
  C220     1.0000 0.13993  0.84482  0.75331  Biso   1.000  C
  H120     1.0000 0.12530  0.89340  0.75850  Biso   1.000  H
  C221     1.0000 0.18238  0.81609  0.80585  Biso   1.000  C
  C222     1.0000 0.20340  0.74590  0.79680  Biso   1.000  C
  H121     1.0000 0.23190  0.72680  0.83140  Biso   1.000  H
  C223     1.0000 0.18331  0.70171  0.73687  Biso   1.000  C
  H122     1.0000 0.19870  0.65400  0.73170  Biso   1.000  H
  C224     1.0000 0.20199  0.85910  0.87243  Biso   1.000  C
  C225     1.0000 0.91770  0.47923  0.26160  Biso   1.000  C
  C226     1.0000 0.91467  0.39985  0.23544  Biso   1.000  C
  H123     1.0000 0.93860  0.36100  0.25850  Biso   1.000  H
  C227     1.0000 0.87628  0.37821  0.17525  Biso   1.000  C
  H124     1.0000 0.87470  0.32510  0.15830  Biso   1.000  H
  C228     1.0000 0.84039  0.43492  0.14030  Biso   1.000  C
  C229     1.0000 0.84328  0.51413  0.16511  Biso   1.000  C
  H125     1.0000 0.81940  0.55280  0.14160  Biso   1.000  H
  C230     1.0000 0.88196  0.53620  0.22542  Biso   1.000  C
  H126     1.0000 0.88380  0.58980  0.24160  Biso   1.000  H
  C231     1.0000 0.79757  0.40812  0.07769  Biso   1.000  C
  Zn8      1.0000 0.20158  0.95148  0.97437  Biso   1.000  Zn
  O43      1.0000 0.35120  0.40750  0.50273  Biso   1.000  O
  O44      1.0000 0.30627  0.30120  0.48350  Biso   1.000  O
  O45      1.0000 0.68156  0.42370  0.87863  Biso   1.000  O
  O46      1.0000 0.73874  0.32965  0.91953  Biso   1.000  O
  O47      1.0000 0.26653  0.96332  0.04644  Biso   1.000  O
  O48      1.0000 0.29696  0.83395  0.06158  Biso   1.000  O
  N8       1.0000 0.49709  0.13576  0.47809  Biso   1.000  N
  C232     1.0000 0.34463  0.33250  0.49102  Biso   1.000  C
  C233     1.0000 0.38368  0.28121  0.48488  Biso   1.000  C
  C234     1.0000 0.42691  0.31651  0.49048  Biso   1.000  C
  H127     1.0000 0.43110  0.37330  0.49630  Biso   1.000  H
  C235     1.0000 0.46390  0.26899  0.48756  Biso   1.000  C
  H128     1.0000 0.49280  0.29380  0.49130  Biso   1.000  H
  C236     1.0000 0.45827  0.18446  0.47910  Biso   1.000  C
  C237     1.0000 0.41495  0.14825  0.47285  Biso   1.000  C
  H129     1.0000 0.41080  0.09140  0.46700  Biso   1.000  H
  C238     1.0000 0.37786  0.19634  0.47522  Biso   1.000  C
  H130     1.0000 0.34860  0.17170  0.47030  Biso   1.000  H
  C239     1.0000 0.54619  0.13993  0.52401  Biso   1.000  C
  C240     1.0000 0.56695  0.18521  0.58354  Biso   1.000  C
  H131     1.0000 0.54760  0.21820  0.59760  Biso   1.000  H
  C241     1.0000 0.61695  0.17996  0.62113  Biso   1.000  C
  C242     1.0000 0.64536  0.12733  0.59991  Biso   1.000  C
  H132     1.0000 0.67890  0.12370  0.62560  Biso   1.000  H
  C243     1.0000 0.62424  0.08114  0.54170  Biso   1.000  C
  H133     1.0000 0.64340  0.04650  0.52850  Biso   1.000  H
  C244     1.0000 0.57421  0.08699  0.50306  Biso   1.000  C
  C245     1.0000 0.54083  0.04869  0.44146  Biso   1.000  C
  C246     1.0000 0.54661  0.99205  0.39724  Biso   1.000  C
  H134     1.0000 0.57720  0.97020  0.40570  Biso   1.000  H
  C247     1.0000 0.50596  0.96893  0.34067  Biso   1.000  C
  H135     1.0000 0.50950  0.93010  0.31170  Biso   1.000  H
  C248     1.0000 0.45959  0.00233  0.32565  Biso   1.000  C
  C249     1.0000 0.45318  0.05773  0.36970  Biso   1.000  C
  H136     1.0000 0.42250  0.07950  0.36100  Biso   1.000  H
  C250     1.0000 0.49381  0.07976  0.42719  Biso   1.000  C
  C251     1.0000 0.64030  0.22867  0.68449  Biso   1.000  C
  C252     1.0000 0.61941  0.30143  0.69353  Biso   1.000  C
  H137     1.0000 0.59120  0.32140  0.65890  Biso   1.000  H
  C253     1.0000 0.63993  0.34482  0.75331  Biso   1.000  C
  H138     1.0000 0.62530  0.39340  0.75850  Biso   1.000  H
  C254     1.0000 0.68238  0.31609  0.80585  Biso   1.000  C
  C255     1.0000 0.70340  0.24590  0.79680  Biso   1.000  C
  H139     1.0000 0.73190  0.22680  0.83140  Biso   1.000  H
  C256     1.0000 0.68331  0.20171  0.73687  Biso   1.000  C
  H140     1.0000 0.69870  0.15400  0.73170  Biso   1.000  H
  C257     1.0000 0.70199  0.35910  0.87243  Biso   1.000  C
  C258     1.0000 0.41770  0.97923  0.26160  Biso   1.000  C
  C259     1.0000 0.41467  0.89985  0.23544  Biso   1.000  C
  H141     1.0000 0.43860  0.86100  0.25850  Biso   1.000  H
  C260     1.0000 0.37628  0.87821  0.17525  Biso   1.000  C
  H142     1.0000 0.37470  0.82510  0.15830  Biso   1.000  H
  C261     1.0000 0.34039  0.93492  0.14030  Biso   1.000  C
  C262     1.0000 0.34328  0.01413  0.16511  Biso   1.000  C
  H143     1.0000 0.31940  0.05280  0.14160  Biso   1.000  H
  C263     1.0000 0.38196  0.03620  0.22542  Biso   1.000  C
  H144     1.0000 0.38380  0.08980  0.24160  Biso   1.000  H
  C264     1.0000 0.29757  0.90812  0.07769  Biso   1.000  C
  Zn9      1.0000 0.75000  0.75000  0.50000  Biso   1.000  Zn
  Zn10     1.0000 0.25000  0.75000  0.00000  Biso   1.000  Zn
  Zn11     1.0000 0.25000  0.25000  0.50000  Biso   1.000  Zn
  Zn12     1.0000 0.75000  0.25000  0.00000  Biso   1.000  Zn
