data_image0
_cell_length_a       10.4236
_cell_length_b       10.4236
_cell_length_c       8.9487
_cell_angle_alpha    90
_cell_angle_beta     90
_cell_angle_gamma    90

_symmetry_space_group_name_H-M    "P 1"
_symmetry_int_tables_number       1

loop_
  _symmetry_equiv_pos_as_xyz
  'x, y, z'

loop_
  _atom_site_label
  _atom_site_occupancy
  _atom_site_fract_x
  _atom_site_fract_y
  _atom_site_fract_z
  _atom_site_thermal_displace_type
  _atom_site_B_iso_or_equiv
  _atom_site_type_symbol
  P1       1.0000 0.61010  0.40660  0.20160  Biso   1.000  P
  Co1      1.0000 0.37150  0.60960  0.16000  Biso   1.000  Co
  O1       1.0000 0.50400  0.50010  0.24650  Biso   1.000  O
  O2       1.0000 0.66020  0.43740  0.04560  Biso   1.000  O
  O3       1.0000 0.71590  0.42630  0.31710  Biso   1.000  O
  O4       1.0000 0.55730  0.27110  0.21160  Biso   1.000  O
  P2       1.0000 0.88990  0.09340  0.20160  Biso   1.000  P
  Co2      1.0000 0.12850  0.89040  0.16000  Biso   1.000  Co
  O5       1.0000 0.99600  0.99990  0.24650  Biso   1.000  O
  O6       1.0000 0.83980  0.06260  0.04560  Biso   1.000  O
  O7       1.0000 0.78410  0.07370  0.31710  Biso   1.000  O
  O8       1.0000 0.94270  0.22890  0.21160  Biso   1.000  O
  P3       1.0000 0.59340  0.11010  0.70160  Biso   1.000  P
  Co3      1.0000 0.39040  0.87150  0.66000  Biso   1.000  Co
  O9       1.0000 0.49990  0.00400  0.74650  Biso   1.000  O
  O10      1.0000 0.56260  0.16020  0.54560  Biso   1.000  O
  O11      1.0000 0.57370  0.21590  0.81710  Biso   1.000  O
  O12      1.0000 0.72890  0.05730  0.71160  Biso   1.000  O
  P4       1.0000 0.90660  0.38990  0.70160  Biso   1.000  P
  Co4      1.0000 0.10960  0.62850  0.66000  Biso   1.000  Co
  O13      1.0000 0.00010  0.49600  0.74650  Biso   1.000  O
  O14      1.0000 0.93740  0.33980  0.54560  Biso   1.000  O
  O15      1.0000 0.92630  0.28410  0.81710  Biso   1.000  O
  O16      1.0000 0.77110  0.44270  0.71160  Biso   1.000  O
  P5       1.0000 0.38990  0.59340  0.79840  Biso   1.000  P
  Co5      1.0000 0.62850  0.39040  0.84000  Biso   1.000  Co
  O17      1.0000 0.49600  0.49990  0.75350  Biso   1.000  O
  O18      1.0000 0.33980  0.56260  0.95440  Biso   1.000  O
  O19      1.0000 0.28410  0.57370  0.68290  Biso   1.000  O
  O20      1.0000 0.44270  0.72890  0.78840  Biso   1.000  O
  P6       1.0000 0.11010  0.90660  0.79840  Biso   1.000  P
  Co6      1.0000 0.87150  0.10960  0.84000  Biso   1.000  Co
  O21      1.0000 0.00400  0.00010  0.75350  Biso   1.000  O
  O22      1.0000 0.16020  0.93740  0.95440  Biso   1.000  O
  O23      1.0000 0.21590  0.92630  0.68290  Biso   1.000  O
  O24      1.0000 0.05730  0.77110  0.78840  Biso   1.000  O
  P7       1.0000 0.40660  0.88990  0.29840  Biso   1.000  P
  Co7      1.0000 0.60960  0.12850  0.34000  Biso   1.000  Co
  O25      1.0000 0.50010  0.99600  0.25350  Biso   1.000  O
  O26      1.0000 0.43740  0.83980  0.45440  Biso   1.000  O
  O27      1.0000 0.42630  0.78410  0.18290  Biso   1.000  O
  O28      1.0000 0.27110  0.94270  0.28840  Biso   1.000  O
  P8       1.0000 0.09340  0.61010  0.29840  Biso   1.000  P
  Co8      1.0000 0.89040  0.37150  0.34000  Biso   1.000  Co
  O29      1.0000 0.99990  0.50400  0.25350  Biso   1.000  O
  O30      1.0000 0.06260  0.66020  0.45440  Biso   1.000  O
  O31      1.0000 0.07370  0.71590  0.18290  Biso   1.000  O
  O32      1.0000 0.22890  0.55730  0.28840  Biso   1.000  O
