data_image0
_cell_length_a       12.139
_cell_length_b       21.571
_cell_length_c       12.611
_cell_angle_alpha    90
_cell_angle_beta     90.351
_cell_angle_gamma    90

_symmetry_space_group_name_H-M    "P 1"
_symmetry_int_tables_number       1

loop_
  _symmetry_equiv_pos_as_xyz
  'x, y, z'

loop_
  _atom_site_label
  _atom_site_occupancy
  _atom_site_fract_x
  _atom_site_fract_y
  _atom_site_fract_z
  _atom_site_thermal_displace_type
  _atom_site_B_iso_or_equiv
  _atom_site_type_symbol
  C1       1.0000 0.35360  0.38620  0.34900  Biso   1.000  C
  H1       1.0000 0.35670  0.43140  0.36270  Biso   1.000  H
  H2       1.0000 0.37640  0.36430  0.41450  Biso   1.000  H
  C2       1.0000 0.42870  0.37010  0.26140  Biso   1.000  C
  H3       1.0000 0.40740  0.39340  0.19690  Biso   1.000  H
  H4       1.0000 0.42250  0.32520  0.24560  Biso   1.000  H
  C3       1.0000 0.21060  0.30440  0.35460  Biso   1.000  C
  H5       1.0000 0.16800  0.30630  0.42120  Biso   1.000  H
  H6       1.0000 0.27870  0.28040  0.36800  Biso   1.000  H
  C4       1.0000 0.14280  0.27350  0.26850  Biso   1.000  C
  H7       1.0000 0.18830  0.26860  0.20420  Biso   1.000  H
  H8       1.0000 0.07930  0.30030  0.25010  Biso   1.000  H
  C5       1.0000 0.15730  0.41340  0.34650  Biso   1.000  C
  H9       1.0000 0.17970  0.43510  0.41230  Biso   1.000  H
  H10      1.0000 0.08540  0.39310  0.35890  Biso   1.000  H
  C6       1.0000 0.14720  0.45930  0.25630  Biso   1.000  C
  H11      1.0000 0.12880  0.43720  0.18970  Biso   1.000  H
  H12      1.0000 0.21830  0.48100  0.24630  Biso   1.000  H
  C7       1.0000 0.26130  0.30550  0.64970  Biso   1.000  C
  H13      1.0000 0.30290  0.30290  0.58260  Biso   1.000  H
  H14      1.0000 0.18930  0.28480  0.63920  Biso   1.000  H
  C8       1.0000 0.32550  0.27330  0.73830  Biso   1.000  C
  H15      1.0000 0.39750  0.29420  0.74800  Biso   1.000  H
  H16      1.0000 0.28420  0.27710  0.80550  Biso   1.000  H
  C9       1.0000 0.13380  0.39310  0.65500  Biso   1.000  C
  H17      1.0000 0.10560  0.37340  0.58930  Biso   1.000  H
  H18      1.0000 0.13530  0.43850  0.64420  Biso   1.000  H
  C10      1.0000 0.05990  0.37720  0.74680  Biso   1.000  C
  H19      1.0000 0.05820  0.33160  0.75550  Biso   1.000  H
  H20      1.0000 0.09180  0.39520  0.81250  Biso   1.000  H
  C11      1.0000 0.33170  0.41220  0.64650  Biso   1.000  C
  H21      1.0000 0.31010  0.43400  0.58060  Biso   1.000  H
  H22      1.0000 0.39970  0.38840  0.63250  Biso   1.000  H
  C12      1.0000 0.35250  0.45900  0.73490  Biso   1.000  C
  H23      1.0000 0.28360  0.48200  0.74920  Biso   1.000  H
  H24      1.0000 0.37380  0.43670  0.80050  Biso   1.000  H
  C13      1.0000 0.61430  0.32880  0.31670  Biso   1.000  C
  H25      1.0000 0.69160  0.34110  0.33080  Biso   1.000  H
  H26      1.0000 0.61380  0.30120  0.25400  Biso   1.000  H
  C14      1.0000 0.57170  0.29350  0.41070  Biso   1.000  C
  C15      1.0000 0.50920  0.24100  0.39840  Biso   1.000  C
  H27      1.0000 0.49140  0.22680  0.32900  Biso   1.000  H
  C16      1.0000 0.47150  0.20800  0.48570  Biso   1.000  C
  H28      1.0000 0.42740  0.17210  0.47570  Biso   1.000  H
  C17      1.0000 0.49820  0.22750  0.58660  Biso   1.000  C
  C18      1.0000 0.56410  0.28120  0.60020  Biso   1.000  C
  H29      1.0000 0.58360  0.29500  0.66940  Biso   1.000  H
  C19      1.0000 0.59950  0.31320  0.51310  Biso   1.000  C
  H30      1.0000 0.64350  0.34930  0.52230  Biso   1.000  H
  C20      1.0000 0.46120  0.19160  0.68290  Biso   1.000  C
  H31      1.0000 0.46750  0.14670  0.66790  Biso   1.000  H
  H32      1.0000 0.51100  0.20120  0.74310  Biso   1.000  H
  C21      1.0000 0.98090  0.21160  0.32660  Biso   1.000  C
  H33      1.0000 0.95450  0.16850  0.33520  Biso   1.000  H
  H34      1.0000 0.94140  0.22990  0.26530  Biso   1.000  H
  C22      1.0000 0.95260  0.24810  0.42510  Biso   1.000  C
  C23      1.0000 0.91150  0.30800  0.41680  Biso   1.000  C
  H35      1.0000 0.90240  0.32660  0.34900  Biso   1.000  H
  C24      1.0000 0.88370  0.34060  0.50760  Biso   1.000  C
  H36      1.0000 0.85720  0.38190  0.50100  Biso   1.000  H
  C25      1.0000 0.89350  0.31470  0.60680  Biso   1.000  C
  C26      1.0000 0.93420  0.25430  0.61410  Biso   1.000  C
  H37      1.0000 0.94170  0.23540  0.68180  Biso   1.000  H
  C27      1.0000 0.96390  0.22160  0.52460  Biso   1.000  C
  H38      1.0000 0.99210  0.18070  0.53130  Biso   1.000  H
  C28      1.0000 0.86240  0.34990  0.70360  Biso   1.000  C
  H39      1.0000 0.85600  0.32060  0.76360  Biso   1.000  H
  H40      1.0000 0.78910  0.36890  0.69200  Biso   1.000  H
  C29      1.0000 0.10280  0.56930  0.31140  Biso   1.000  C
  H41      1.0000 0.04100  0.59800  0.32580  Biso   1.000  H
  H42      1.0000 0.14400  0.58600  0.25020  Biso   1.000  H
  C30      1.0000 0.17870  0.56830  0.40730  Biso   1.000  C
  C31      1.0000 0.13670  0.56540  0.50950  Biso   1.000  C
  H43      1.0000 0.05930  0.56390  0.52010  Biso   1.000  H
  C32      1.0000 0.20760  0.56460  0.59560  Biso   1.000  C
  H44      1.0000 0.17820  0.56240  0.66510  Biso   1.000  H
  C33      1.0000 0.32070  0.56700  0.58250  Biso   1.000  C
  C34      1.0000 0.36390  0.56920  0.47890  Biso   1.000  C
  H45      1.0000 0.44130  0.57000  0.46810  Biso   1.000  H
  C35      1.0000 0.29220  0.57000  0.39360  Biso   1.000  C
  H46      1.0000 0.32110  0.57180  0.32380  Biso   1.000  H
  C36      1.0000 0.39880  0.56780  0.67600  Biso   1.000  C
  H47      1.0000 0.36050  0.58610  0.73770  Biso   1.000  H
  H48      1.0000 0.46210  0.59490  0.65910  Biso   1.000  H
  C37      1.0000 0.60630  0.42100  0.20520  Biso   1.000  C
  H49      1.0000 0.59210  0.40060  0.13620  Biso   1.000  H
  H50      1.0000 0.68680  0.42000  0.21870  Biso   1.000  H
  C38      1.0000 0.56810  0.48760  0.19960  Biso   1.000  C
  C39      1.0000 0.12570  0.16180  0.22150  Biso   1.000  C
  H51      1.0000 0.08010  0.12460  0.23540  Biso   1.000  H
  H52      1.0000 0.10560  0.17780  0.15040  Biso   1.000  H
  C40      1.0000 0.24340  0.14390  0.22230  Biso   1.000  C
  C41      1.0000 0.97880  0.51590  0.18950  Biso   1.000  C
  H53      1.0000 0.02230  0.52220  0.12420  Biso   1.000  H
  H54      1.0000 0.93450  0.55380  0.20150  Biso   1.000  H
  C42      1.0000 0.90170  0.46100  0.17350  Biso   1.000  C
  C43      1.0000 0.32010  0.16570  0.80900  Biso   1.000  C
  H55      1.0000 0.35680  0.18350  0.87230  Biso   1.000  H
  H56      1.0000 0.35150  0.12400  0.79680  Biso   1.000  H
  C44      1.0000 0.19820  0.15950  0.83060  Biso   1.000  C
  C45      1.0000 0.90480  0.43210  0.83090  Biso   1.000  C
  H57      1.0000 0.92740  0.40810  0.89430  Biso   1.000  H
  H58      1.0000 0.82330  0.43470  0.82990  Biso   1.000  H
  C46      1.0000 0.95380  0.49730  0.83650  Biso   1.000  C
  C47      1.0000 0.51950  0.51380  0.79740  Biso   1.000  C
  H59      1.0000 0.47650  0.52410  0.86150  Biso   1.000  H
  H60      1.0000 0.56780  0.54950  0.78160  Biso   1.000  H
  C48      1.0000 0.59110  0.45730  0.82090  Biso   1.000  C
  Eu1      1.0000 0.74308  0.54237  0.99612  Biso   1.000  Eu
  N1       1.0000 0.23860  0.36780  0.31890  Biso   1.000  N
  N2       1.0000 0.54820  0.38570  0.29170  Biso   1.000  N
  H61      1.0000 0.54700  0.41050  0.35200  Biso   1.000  H
  N3       1.0000 0.10110  0.21040  0.30350  Biso   1.000  N
  H62      1.0000 0.13820  0.19970  0.36560  Biso   1.000  H
  N4       1.0000 0.05610  0.50690  0.28150  Biso   1.000  N
  H63      1.0000 0.01570  0.49200  0.33860  Biso   1.000  H
  N5       1.0000 0.24440  0.37050  0.67860  Biso   1.000  N
  N6       1.0000 0.34420  0.20600  0.71440  Biso   1.000  N
  H64      1.0000 0.29750  0.19440  0.65920  Biso   1.000  H
  N7       1.0000 0.94360  0.40050  0.73380  Biso   1.000  N
  H65      1.0000 0.94350  0.42950  0.67930  Biso   1.000  H
  N8       1.0000 0.44180  0.50430  0.70650  Biso   1.000  N
  H66      1.0000 0.48120  0.48830  0.64970  Biso   1.000  H
  O1       1.0000 0.62270  0.52080  0.13350  Biso   1.000  O
  O2       1.0000 0.49300  0.50590  0.25510  Biso   1.000  O
  O3       1.0000 0.30940  0.16980  0.28210  Biso   1.000  O
  O4       1.0000 0.26800  0.10210  0.15480  Biso   1.000  O
  O5       1.0000 0.91110  0.41440  0.23010  Biso   1.000  O
  O6       1.0000 0.83620  0.46750  0.09560  Biso   1.000  O
  O7       1.0000 0.13010  0.18700  0.77680  Biso   1.000  O
  O8       1.0000 0.17770  0.12222  0.90540  Biso   1.000  O
  O9       1.0000 0.02580  0.51450  0.77820  Biso   1.000  O
  O10      1.0000 0.91370  0.53020  0.91290  Biso   1.000  O
  O11      1.0000 0.58330  0.41020  0.76550  Biso   1.000  O
  O12      1.0000 0.65710  0.46440  0.89940  Biso   1.000  O
  C49      1.0000 0.64640  0.88620  0.65100  Biso   1.000  C
  H67      1.0000 0.64330  0.93140  0.63730  Biso   1.000  H
  H68      1.0000 0.62360  0.86430  0.58550  Biso   1.000  H
  C50      1.0000 0.57130  0.87010  0.73860  Biso   1.000  C
  H69      1.0000 0.59260  0.89340  0.80310  Biso   1.000  H
  H70      1.0000 0.57750  0.82520  0.75440  Biso   1.000  H
  C51      1.0000 0.78940  0.80440  0.64540  Biso   1.000  C
  H71      1.0000 0.83200  0.80630  0.57880  Biso   1.000  H
  H72      1.0000 0.72130  0.78040  0.63200  Biso   1.000  H
  C52      1.0000 0.85720  0.77350  0.73150  Biso   1.000  C
  H73      1.0000 0.81170  0.76860  0.79580  Biso   1.000  H
  H74      1.0000 0.92070  0.80030  0.74990  Biso   1.000  H
  C53      1.0000 0.84270  0.91340  0.65350  Biso   1.000  C
  H75      1.0000 0.82030  0.93510  0.58770  Biso   1.000  H
  H76      1.0000 0.91460  0.89310  0.64110  Biso   1.000  H
  C54      1.0000 0.85280  0.95930  0.74370  Biso   1.000  C
  H77      1.0000 0.87120  0.93720  0.81030  Biso   1.000  H
  H78      1.0000 0.78170  0.98100  0.75370  Biso   1.000  H
  C55      1.0000 0.73870  0.80550  0.35030  Biso   1.000  C
  H79      1.0000 0.69710  0.80290  0.41740  Biso   1.000  H
  H80      1.0000 0.81070  0.78480  0.36080  Biso   1.000  H
  C56      1.0000 0.67450  0.77330  0.26170  Biso   1.000  C
  H81      1.0000 0.60250  0.79420  0.25200  Biso   1.000  H
  H82      1.0000 0.71580  0.77710  0.19450  Biso   1.000  H
  C57      1.0000 0.86620  0.89310  0.34500  Biso   1.000  C
  H83      1.0000 0.89440  0.87340  0.41070  Biso   1.000  H
  H84      1.0000 0.86470  0.93850  0.35580  Biso   1.000  H
  C58      1.0000 0.94010  0.87720  0.25320  Biso   1.000  C
  H85      1.0000 0.94180  0.83160  0.24450  Biso   1.000  H
  H86      1.0000 0.90820  0.89520  0.18750  Biso   1.000  H
  C59      1.0000 0.66830  0.91220  0.35350  Biso   1.000  C
  H87      1.0000 0.68990  0.93400  0.41940  Biso   1.000  H
  H88      1.0000 0.60030  0.88840  0.36750  Biso   1.000  H
  C60      1.0000 0.64750  0.95900  0.26510  Biso   1.000  C
  H89      1.0000 0.71640  0.98200  0.25080  Biso   1.000  H
  H90      1.0000 0.62620  0.93670  0.19950  Biso   1.000  H
  C61      1.0000 0.38570  0.82880  0.68330  Biso   1.000  C
  H91      1.0000 0.30840  0.84110  0.66920  Biso   1.000  H
  H92      1.0000 0.38620  0.80120  0.74600  Biso   1.000  H
  C62      1.0000 0.42830  0.79350  0.58930  Biso   1.000  C
  C63      1.0000 0.49080  0.74100  0.60160  Biso   1.000  C
  H93      1.0000 0.50860  0.72680  0.67100  Biso   1.000  H
  C64      1.0000 0.52850  0.70800  0.51430  Biso   1.000  C
  H94      1.0000 0.57260  0.67210  0.52430  Biso   1.000  H
  C65      1.0000 0.50180  0.72750  0.41340  Biso   1.000  C
  C66      1.0000 0.43590  0.78120  0.39980  Biso   1.000  C
  H95      1.0000 0.41640  0.79500  0.33060  Biso   1.000  H
  C67      1.0000 0.40050  0.81320  0.48690  Biso   1.000  C
  H96      1.0000 0.35650  0.84930  0.47770  Biso   1.000  H
  C68      1.0000 0.53880  0.69160  0.31710  Biso   1.000  C
  H97      1.0000 0.53250  0.64670  0.33210  Biso   1.000  H
  H98      1.0000 0.48900  0.70120  0.25690  Biso   1.000  H
  C69      1.0000 0.01910  0.71160  0.67340  Biso   1.000  C
  H99      1.0000 0.04550  0.66850  0.66480  Biso   1.000  H
  H100     1.0000 0.05860  0.72990  0.73470  Biso   1.000  H
  C70      1.0000 0.04740  0.74810  0.57490  Biso   1.000  C
  C71      1.0000 0.08850  0.80800  0.58320  Biso   1.000  C
  H101     1.0000 0.09760  0.82660  0.65100  Biso   1.000  H
  C72      1.0000 0.11630  0.84060  0.49240  Biso   1.000  C
  H102     1.0000 0.14280  0.88190  0.49900  Biso   1.000  H
  C73      1.0000 0.10650  0.81470  0.39320  Biso   1.000  C
  C74      1.0000 0.06580  0.75430  0.38590  Biso   1.000  C
  H103     1.0000 0.05830  0.73540  0.31820  Biso   1.000  H
  C75      1.0000 0.03610  0.72160  0.47540  Biso   1.000  C
  H104     1.0000 0.00790  0.68070  0.46870  Biso   1.000  H
  C76      1.0000 0.13760  0.84990  0.29640  Biso   1.000  C
  H105     1.0000 0.14400  0.82060  0.23640  Biso   1.000  H
  H106     1.0000 0.21090  0.86890  0.30800  Biso   1.000  H
  C77      1.0000 0.89720  0.06930  0.68860  Biso   1.000  C
  H107     1.0000 0.95900  0.09800  0.67420  Biso   1.000  H
  H108     1.0000 0.85600  0.08600  0.74980  Biso   1.000  H
  C78      1.0000 0.82130  0.06830  0.59270  Biso   1.000  C
  C79      1.0000 0.86330  0.06540  0.49050  Biso   1.000  C
  H109     1.0000 0.94070  0.06390  0.47990  Biso   1.000  H
  C80      1.0000 0.79240  0.06460  0.40440  Biso   1.000  C
  H110     1.0000 0.82180  0.06240  0.33490  Biso   1.000  H
  C81      1.0000 0.67930  0.06700  0.41750  Biso   1.000  C
  C82      1.0000 0.63610  0.06920  0.52110  Biso   1.000  C
  H111     1.0000 0.55870  0.07000  0.53190  Biso   1.000  H
  C83      1.0000 0.70780  0.07000  0.60640  Biso   1.000  C
  H112     1.0000 0.67890  0.07180  0.67620  Biso   1.000  H
  C84      1.0000 0.60120  0.06780  0.32400  Biso   1.000  C
  H113     1.0000 0.63950  0.08610  0.26230  Biso   1.000  H
  H114     1.0000 0.53790  0.09490  0.34090  Biso   1.000  H
  C85      1.0000 0.39370  0.92100  0.79480  Biso   1.000  C
  H115     1.0000 0.40790  0.90060  0.86380  Biso   1.000  H
  H116     1.0000 0.31320  0.92000  0.78130  Biso   1.000  H
  C86      1.0000 0.43190  0.98760  0.80040  Biso   1.000  C
  C87      1.0000 0.87430  0.66180  0.77850  Biso   1.000  C
  H117     1.0000 0.91990  0.62460  0.76460  Biso   1.000  H
  H118     1.0000 0.89440  0.67780  0.84960  Biso   1.000  H
  C88      1.0000 0.75660  0.64390  0.77770  Biso   1.000  C
  C89      1.0000 0.02120  0.01590  0.81050  Biso   1.000  C
  H119     1.0000 0.97770  0.02220  0.87580  Biso   1.000  H
  H120     1.0000 0.06550  0.05380  0.79850  Biso   1.000  H
  C90      1.0000 0.09830  0.96100  0.82650  Biso   1.000  C
  C91      1.0000 0.67990  0.66570  0.19100  Biso   1.000  C
  H121     1.0000 0.64320  0.68350  0.12770  Biso   1.000  H
  H122     1.0000 0.64850  0.62400  0.20320  Biso   1.000  H
  C92      1.0000 0.80180  0.65950  0.16940  Biso   1.000  C
  C93      1.0000 0.09520  0.93210  0.16910  Biso   1.000  C
  H123     1.0000 0.07260  0.90810  0.10570  Biso   1.000  H
  H124     1.0000 0.17670  0.93470  0.17010  Biso   1.000  H
  C94      1.0000 0.04620  0.99730  0.16350  Biso   1.000  C
  C95      1.0000 0.48050  0.01380  0.20260  Biso   1.000  C
  H125     1.0000 0.52350  0.02410  0.13850  Biso   1.000  H
  H126     1.0000 0.43220  0.04950  0.21840  Biso   1.000  H
  C96      1.0000 0.40890  0.95730  0.17910  Biso   1.000  C
  Eu2      1.0000 0.25692  0.04237  0.00388  Biso   1.000  Eu
  N9       1.0000 0.76140  0.86780  0.68110  Biso   1.000  N
  N10      1.0000 0.45180  0.88570  0.70830  Biso   1.000  N
  H127     1.0000 0.45300  0.91050  0.64800  Biso   1.000  H
  N11      1.0000 0.89890  0.71040  0.69650  Biso   1.000  N
  H128     1.0000 0.86180  0.69970  0.63440  Biso   1.000  H
  N12      1.0000 0.94390  0.00690  0.71850  Biso   1.000  N
  H129     1.0000 0.98430  0.99200  0.66140  Biso   1.000  H
  N13      1.0000 0.75560  0.87050  0.32140  Biso   1.000  N
  N14      1.0000 0.65580  0.70600  0.28560  Biso   1.000  N
  H130     1.0000 0.70250  0.69440  0.34080  Biso   1.000  H
  N15      1.0000 0.05640  0.90050  0.26620  Biso   1.000  N
  H131     1.0000 0.05650  0.92950  0.32070  Biso   1.000  H
  N16      1.0000 0.55820  0.00430  0.29350  Biso   1.000  N
  H132     1.0000 0.51880  0.98830  0.35030  Biso   1.000  H
  O13      1.0000 0.37730  0.02080  0.86650  Biso   1.000  O
  O14      1.0000 0.50700  0.00590  0.74490  Biso   1.000  O
  O15      1.0000 0.69060  0.66980  0.71790  Biso   1.000  O
  O16      1.0000 0.73200  0.60210  0.84520  Biso   1.000  O
  O17      1.0000 0.08890  0.91440  0.76990  Biso   1.000  O
  O18      1.0000 0.16380  0.96750  0.90440  Biso   1.000  O
  O19      1.0000 0.86990  0.68700  0.22320  Biso   1.000  O
  O20      1.0000 0.82230  0.62222  0.09460  Biso   1.000  O
  O21      1.0000 0.97420  0.01450  0.22180  Biso   1.000  O
  O22      1.0000 0.08630  0.03020  0.08710  Biso   1.000  O
  O23      1.0000 0.41670  0.91020  0.23450  Biso   1.000  O
  O24      1.0000 0.34290  0.96440  0.10060  Biso   1.000  O
