data_image0
_cell_length_a       12.1858
_cell_length_b       21.5773
_cell_length_c       12.5587
_cell_angle_alpha    90
_cell_angle_beta     90.406
_cell_angle_gamma    90

_symmetry_space_group_name_H-M    "P 1"
_symmetry_int_tables_number       1

loop_
  _symmetry_equiv_pos_as_xyz
  'x, y, z'

loop_
  _atom_site_label
  _atom_site_occupancy
  _atom_site_fract_x
  _atom_site_fract_y
  _atom_site_fract_z
  _atom_site_thermal_displace_type
  _atom_site_B_iso_or_equiv
  _atom_site_type_symbol
  C1       1.0000 0.64700  0.61240  0.65080  Biso   1.000  C
  H1       1.0000 0.62520  0.63440  0.58480  Biso   1.000  H
  H2       1.0000 0.64400  0.56730  0.63680  Biso   1.000  H
  C2       1.0000 0.57000  0.62850  0.73780  Biso   1.000  C
  H3       1.0000 0.57430  0.67340  0.75310  Biso   1.000  H
  H4       1.0000 0.59050  0.60560  0.80330  Biso   1.000  H
  C3       1.0000 0.78790  0.69530  0.64680  Biso   1.000  C
  H5       1.0000 0.71950  0.71890  0.63370  Biso   1.000  H
  H6       1.0000 0.83040  0.69420  0.57990  Biso   1.000  H
  C4       1.0000 0.85410  0.72560  0.73340  Biso   1.000  C
  H7       1.0000 0.91780  0.69910  0.75200  Biso   1.000  H
  H8       1.0000 0.80850  0.73040  0.79780  Biso   1.000  H
  C5       1.0000 0.84390  0.58580  0.65350  Biso   1.000  C
  H9       1.0000 0.91500  0.60680  0.64140  Biso   1.000  H
  H10      1.0000 0.82220  0.56410  0.58720  Biso   1.000  H
  C6       1.0000 0.85440  0.54030  0.74340  Biso   1.000  C
  H11      1.0000 0.78400  0.51830  0.75400  Biso   1.000  H
  H12      1.0000 0.87400  0.56210  0.81020  Biso   1.000  H
  C7       1.0000 0.74040  0.69410  0.34970  Biso   1.000  C
  H13      1.0000 0.81170  0.71520  0.36080  Biso   1.000  H
  H14      1.0000 0.69820  0.69690  0.41660  Biso   1.000  H
  C8       1.0000 0.67750  0.72550  0.26050  Biso   1.000  C
  H15      1.0000 0.71990  0.72220  0.19380  Biso   1.000  H
  H16      1.0000 0.60660  0.70400  0.24950  Biso   1.000  H
  C9       1.0000 0.86920  0.60660  0.34780  Biso   1.000  C
  H17      1.0000 0.86730  0.56130  0.35980  Biso   1.000  H
  H18      1.0000 0.89660  0.62670  0.41370  Biso   1.000  H
  C10      1.0000 0.94480  0.62160  0.25550  Biso   1.000  C
  H19      1.0000 0.94690  0.66700  0.24460  Biso   1.000  H
  H20      1.0000 0.91560  0.60230  0.18960  Biso   1.000  H
  C11      1.0000 0.67070  0.58750  0.35330  Biso   1.000  C
  H21      1.0000 0.60290  0.61150  0.36670  Biso   1.000  H
  H22      1.0000 0.69120  0.56540  0.41950  Biso   1.000  H
  C12      1.0000 0.65050  0.54080  0.26350  Biso   1.000  C
  H23      1.0000 0.63040  0.56330  0.19760  Biso   1.000  H
  H24      1.0000 0.71900  0.51750  0.24990  Biso   1.000  H
  C13      1.0000 0.38510  0.66990  0.68200  Biso   1.000  C
  H25      1.0000 0.30840  0.65740  0.66740  Biso   1.000  H
  H26      1.0000 0.38550  0.69720  0.74540  Biso   1.000  H
  C14      1.0000 0.42920  0.70500  0.58780  Biso   1.000  C
  C15      1.0000 0.48870  0.75750  0.60110  Biso   1.000  C
  H27      1.0000 0.50350  0.77210  0.67110  Biso   1.000  H
  C16      1.0000 0.52900  0.79110  0.51360  Biso   1.000  C
  H28      1.0000 0.57360  0.82670  0.52420  Biso   1.000  H
  C17      1.0000 0.50220  0.77100  0.41080  Biso   1.000  C
  C18      1.0000 0.43820  0.71750  0.39670  Biso   1.000  C
  H29      1.0000 0.41930  0.70380  0.32700  Biso   1.000  H
  C19      1.0000 0.40250  0.68450  0.48530  Biso   1.000  C
  H30      1.0000 0.35980  0.64800  0.47610  Biso   1.000  H
  C20      1.0000 0.54290  0.80760  0.31530  Biso   1.000  C
  H31      1.0000 0.49360  0.79920  0.25390  Biso   1.000  H
  H32      1.0000 0.53790  0.85230  0.33170  Biso   1.000  H
  C21      1.0000 0.01430  0.78930  0.67500  Biso   1.000  C
  H33      1.0000 0.03820  0.83270  0.66490  Biso   1.000  H
  H34      1.0000 0.05390  0.77260  0.73780  Biso   1.000  H
  C22      1.0000 0.04550  0.75320  0.58080  Biso   1.000  C
  C23      1.0000 0.08930  0.69490  0.59020  Biso   1.000  C
  H35      1.0000 0.09980  0.67750  0.65900  Biso   1.000  H
  C24      1.0000 0.11830  0.66100  0.50200  Biso   1.000  C
  H36      1.0000 0.14690  0.62040  0.51070  Biso   1.000  H
  C25      1.0000 0.10620  0.68560  0.40070  Biso   1.000  C
  C26      1.0000 0.06490  0.74420  0.39010  Biso   1.000  C
  H37      1.0000 0.05770  0.76210  0.32120  Biso   1.000  H
  C27      1.0000 0.03340  0.77820  0.47960  Biso   1.000  C
  H38      1.0000 0.00360  0.81860  0.47100  Biso   1.000  H
  C28      1.0000 0.14020  0.65020  0.30290  Biso   1.000  C
  H39      1.0000 0.21450  0.63270  0.31450  Biso   1.000  H
  H40      1.0000 0.14380  0.67900  0.24160  Biso   1.000  H
  C29      1.0000 0.89640  0.43030  0.68780  Biso   1.000  C
  H41      1.0000 0.85290  0.41690  0.74990  Biso   1.000  H
  H42      1.0000 0.95530  0.39940  0.67690  Biso   1.000  H
  C30      1.0000 0.82250  0.43090  0.59020  Biso   1.000  C
  C31      1.0000 0.86440  0.43280  0.48770  Biso   1.000  C
  H43      1.0000 0.94150  0.43380  0.47730  Biso   1.000  H
  C32      1.0000 0.79380  0.43330  0.40040  Biso   1.000  C
  H44      1.0000 0.82290  0.43430  0.33050  Biso   1.000  H
  C33      1.0000 0.67870  0.43230  0.41520  Biso   1.000  C
  C34      1.0000 0.64040  0.42990  0.51810  Biso   1.000  C
  H45      1.0000 0.56340  0.42910  0.52940  Biso   1.000  H
  C35      1.0000 0.70990  0.42860  0.60550  Biso   1.000  C
  H46      1.0000 0.68080  0.42610  0.67540  Biso   1.000  H
  C36      1.0000 0.60460  0.43230  0.32120  Biso   1.000  C
  H47      1.0000 0.54210  0.40430  0.33560  Biso   1.000  H
  H48      1.0000 0.64490  0.41520  0.25960  Biso   1.000  H
  C37      1.0000 0.39500  0.57560  0.79200  Biso   1.000  C
  H49      1.0000 0.40800  0.59590  0.86160  Biso   1.000  H
  H50      1.0000 0.31510  0.57650  0.77710  Biso   1.000  H
  C38      1.0000 0.43190  0.51090  0.79770  Biso   1.000  C
  C39      1.0000 0.86770  0.83660  0.78060  Biso   1.000  C
  H51      1.0000 0.88760  0.81980  0.85150  Biso   1.000  H
  H52      1.0000 0.91330  0.87380  0.76820  Biso   1.000  H
  C40      1.0000 0.75020  0.85520  0.78130  Biso   1.000  C
  C41      1.0000 0.02600  0.48340  0.80310  Biso   1.000  C
  H53      1.0000 0.07020  0.44570  0.78990  Biso   1.000  H
  H54      1.0000 0.98330  0.47640  0.86880  Biso   1.000  H
  C42      1.0000 0.10350  0.53820  0.82090  Biso   1.000  C
  C43      1.0000 0.68310  0.83330  0.18980  Biso   1.000  C
  H55      1.0000 0.64770  0.81530  0.12570  Biso   1.000  H
  H56      1.0000 0.65090  0.87490  0.20120  Biso   1.000  H
  C44      1.0000 0.80250  0.84060  0.16900  Biso   1.000  C
  C45      1.0000 0.10370  0.56520  0.17780  Biso   1.000  C
  H57      1.0000 0.18440  0.56060  0.18300  Biso   1.000  H
  H58      1.0000 0.08640  0.59020  0.11370  Biso   1.000  H
  C46      1.0000 0.04940  0.50040  0.16810  Biso   1.000  C
  C47      1.0000 0.48050  0.48720  0.19970  Biso   1.000  C
  H59      1.0000 0.52240  0.47660  0.13500  Biso   1.000  H
  H60      1.0000 0.43170  0.45180  0.21580  Biso   1.000  H
  C48      1.0000 0.41070  0.54330  0.17670  Biso   1.000  C
  Eu1      1.0000 0.25718  0.45812  0.00340  Biso   1.000  Eu
  N1       1.0000 0.76140  0.63070  0.68210  Biso   1.000  N
  N2       1.0000 0.45540  0.61170  0.70500  Biso   1.000  N
  H61      1.0000 0.45810  0.58750  0.64370  Biso   1.000  H
  N3       1.0000 0.89420  0.78880  0.69720  Biso   1.000  N
  H62      1.0000 0.85700  0.79930  0.63490  Biso   1.000  H
  N4       1.0000 0.94840  0.49230  0.71260  Biso   1.000  N
  H63      1.0000 0.98610  0.50660  0.65340  Biso   1.000  H
  N5       1.0000 0.75870  0.62920  0.32240  Biso   1.000  N
  N6       1.0000 0.65620  0.79310  0.28430  Biso   1.000  N
  H64      1.0000 0.70220  0.80480  0.34020  Biso   1.000  H
  N7       1.0000 0.06060  0.59780  0.27690  Biso   1.000  N
  H65      1.0000 0.05920  0.57000  0.33330  Biso   1.000  H
  N8       1.0000 0.55990  0.49570  0.29120  Biso   1.000  N
  H66      1.0000 0.52160  0.51140  0.34900  Biso   1.000  H
  O1       1.0000 0.37540  0.47760  0.86370  Biso   1.000  O
  O2       1.0000 0.50910  0.49250  0.74250  Biso   1.000  O
  O3       1.0000 0.68730  0.83000  0.71800  Biso   1.000  O
  O4       1.0000 0.72770  0.89900  0.84440  Biso   1.000  O
  O5       1.0000 0.09460  0.58470  0.76530  Biso   1.000  O
  O6       1.0000 0.16530  0.53270  0.90250  Biso   1.000  O
  O7       1.0000 0.87140  0.81260  0.22410  Biso   1.000  O
  O8       1.0000 0.82180  0.87730  0.09340  Biso   1.000  O
  O9       1.0000 0.97960  0.48280  0.23050  Biso   1.000  O
  O10      1.0000 0.08890  0.46950  0.09090  Biso   1.000  O
  O11      1.0000 0.41950  0.59070  0.23160  Biso   1.000  O
  O12      1.0000 0.34450  0.53630  0.09800  Biso   1.000  O
  C49      1.0000 0.35300  0.11240  0.34920  Biso   1.000  C
  H67      1.0000 0.37480  0.13440  0.41520  Biso   1.000  H
  H68      1.0000 0.35600  0.06730  0.36320  Biso   1.000  H
  C50      1.0000 0.43000  0.12850  0.26220  Biso   1.000  C
  H69      1.0000 0.42570  0.17340  0.24690  Biso   1.000  H
  H70      1.0000 0.40950  0.10560  0.19670  Biso   1.000  H
  C51      1.0000 0.21210  0.19530  0.35320  Biso   1.000  C
  H71      1.0000 0.28050  0.21890  0.36630  Biso   1.000  H
  H72      1.0000 0.16960  0.19420  0.42010  Biso   1.000  H
  C52      1.0000 0.14590  0.22560  0.26660  Biso   1.000  C
  H73      1.0000 0.08220  0.19910  0.24800  Biso   1.000  H
  H74      1.0000 0.19150  0.23040  0.20220  Biso   1.000  H
  C53      1.0000 0.15610  0.08580  0.34650  Biso   1.000  C
  H75      1.0000 0.08500  0.10680  0.35860  Biso   1.000  H
  H76      1.0000 0.17780  0.06410  0.41280  Biso   1.000  H
  C54      1.0000 0.14560  0.04030  0.25660  Biso   1.000  C
  H77      1.0000 0.21600  0.01830  0.24600  Biso   1.000  H
  H78      1.0000 0.12600  0.06210  0.18980  Biso   1.000  H
  C55      1.0000 0.25960  0.19410  0.65030  Biso   1.000  C
  H79      1.0000 0.18830  0.21520  0.63920  Biso   1.000  H
  H80      1.0000 0.30180  0.19690  0.58340  Biso   1.000  H
  C56      1.0000 0.32250  0.22550  0.73950  Biso   1.000  C
  H81      1.0000 0.28010  0.22220  0.80620  Biso   1.000  H
  H82      1.0000 0.39340  0.20400  0.75050  Biso   1.000  H
  C57      1.0000 0.13080  0.10660  0.65220  Biso   1.000  C
  H83      1.0000 0.13270  0.06130  0.64020  Biso   1.000  H
  H84      1.0000 0.10340  0.12670  0.58630  Biso   1.000  H
  C58      1.0000 0.05520  0.12160  0.74450  Biso   1.000  C
  H85      1.0000 0.05310  0.16700  0.75540  Biso   1.000  H
  H86      1.0000 0.08440  0.10230  0.81040  Biso   1.000  H
  C59      1.0000 0.32930  0.08750  0.64670  Biso   1.000  C
  H87      1.0000 0.39710  0.11150  0.63330  Biso   1.000  H
  H88      1.0000 0.30880  0.06540  0.58050  Biso   1.000  H
  C60      1.0000 0.34950  0.04080  0.73650  Biso   1.000  C
  H89      1.0000 0.36960  0.06330  0.80240  Biso   1.000  H
  H90      1.0000 0.28100  0.01750  0.75010  Biso   1.000  H
  C61      1.0000 0.61490  0.16990  0.31800  Biso   1.000  C
  H91      1.0000 0.69160  0.15740  0.33260  Biso   1.000  H
  H92      1.0000 0.61450  0.19720  0.25460  Biso   1.000  H
  C62      1.0000 0.57080  0.20500  0.41220  Biso   1.000  C
  C63      1.0000 0.51130  0.25750  0.39890  Biso   1.000  C
  H93      1.0000 0.49650  0.27210  0.32890  Biso   1.000  H
  C64      1.0000 0.47100  0.29110  0.48640  Biso   1.000  C
  H94      1.0000 0.42640  0.32670  0.47580  Biso   1.000  H
  C65      1.0000 0.49780  0.27100  0.58920  Biso   1.000  C
  C66      1.0000 0.56180  0.21750  0.60330  Biso   1.000  C
  H95      1.0000 0.58070  0.20380  0.67300  Biso   1.000  H
  C67      1.0000 0.59750  0.18450  0.51470  Biso   1.000  C
  H96      1.0000 0.64020  0.14800  0.52390  Biso   1.000  H
  C68      1.0000 0.45710  0.30760  0.68470  Biso   1.000  C
  H97      1.0000 0.50640  0.29920  0.74610  Biso   1.000  H
  H98      1.0000 0.46210  0.35230  0.66830  Biso   1.000  H
  C69      1.0000 0.98570  0.28930  0.32500  Biso   1.000  C
  H99      1.0000 0.96180  0.33270  0.33510  Biso   1.000  H
  H100     1.0000 0.94610  0.27260  0.26220  Biso   1.000  H
  C70      1.0000 0.95450  0.25320  0.41920  Biso   1.000  C
  C71      1.0000 0.91070  0.19490  0.40980  Biso   1.000  C
  H101     1.0000 0.90020  0.17750  0.34100  Biso   1.000  H
  C72      1.0000 0.88170  0.16100  0.49800  Biso   1.000  C
  H102     1.0000 0.85310  0.12040  0.48930  Biso   1.000  H
  C73      1.0000 0.89380  0.18560  0.59930  Biso   1.000  C
  C74      1.0000 0.93510  0.24420  0.60990  Biso   1.000  C
  H103     1.0000 0.94230  0.26210  0.67880  Biso   1.000  H
  C75      1.0000 0.96660  0.27820  0.52040  Biso   1.000  C
  H104     1.0000 0.99640  0.31860  0.52900  Biso   1.000  H
  C76      1.0000 0.85980  0.15020  0.69710  Biso   1.000  C
  H105     1.0000 0.78550  0.13270  0.68550  Biso   1.000  H
  H106     1.0000 0.85620  0.17900  0.75840  Biso   1.000  H
  C77      1.0000 0.10360  0.93030  0.31220  Biso   1.000  C
  H107     1.0000 0.14710  0.91690  0.25010  Biso   1.000  H
  H108     1.0000 0.04470  0.89940  0.32310  Biso   1.000  H
  C78      1.0000 0.17750  0.93090  0.40980  Biso   1.000  C
  C79      1.0000 0.13560  0.93280  0.51230  Biso   1.000  C
  H109     1.0000 0.05850  0.93380  0.52270  Biso   1.000  H
  C80      1.0000 0.20620  0.93330  0.59960  Biso   1.000  C
  H110     1.0000 0.17710  0.93430  0.66950  Biso   1.000  H
  C81      1.0000 0.32130  0.93230  0.58480  Biso   1.000  C
  C82      1.0000 0.35960  0.92990  0.48190  Biso   1.000  C
  H111     1.0000 0.43660  0.92910  0.47060  Biso   1.000  H
  C83      1.0000 0.29010  0.92860  0.39450  Biso   1.000  C
  H112     1.0000 0.31920  0.92610  0.32460  Biso   1.000  H
  C84      1.0000 0.39540  0.93230  0.67880  Biso   1.000  C
  H113     1.0000 0.45790  0.90430  0.66440  Biso   1.000  H
  H114     1.0000 0.35510  0.91520  0.74040  Biso   1.000  H
  C85      1.0000 0.60500  0.07560  0.20800  Biso   1.000  C
  H115     1.0000 0.59200  0.09590  0.13840  Biso   1.000  H
  H116     1.0000 0.68490  0.07650  0.22290  Biso   1.000  H
  C86      1.0000 0.56810  0.01090  0.20230  Biso   1.000  C
  C87      1.0000 0.13230  0.33660  0.21940  Biso   1.000  C
  H117     1.0000 0.11240  0.31980  0.14850  Biso   1.000  H
  H118     1.0000 0.08670  0.37380  0.23180  Biso   1.000  H
  C88      1.0000 0.24980  0.35520  0.21870  Biso   1.000  C
  C89      1.0000 0.97400  0.98340  0.19690  Biso   1.000  C
  H119     1.0000 0.92980  0.94570  0.21010  Biso   1.000  H
  H120     1.0000 0.01670  0.97640  0.13120  Biso   1.000  H
  C90      1.0000 0.89650  0.03820  0.17910  Biso   1.000  C
  C91      1.0000 0.31690  0.33330  0.81020  Biso   1.000  C
  H121     1.0000 0.35230  0.31530  0.87430  Biso   1.000  H
  H122     1.0000 0.34910  0.37490  0.79880  Biso   1.000  H
  C92      1.0000 0.19750  0.34060  0.83100  Biso   1.000  C
  C93      1.0000 0.89630  0.06520  0.82220  Biso   1.000  C
  H123     1.0000 0.81560  0.06060  0.81700  Biso   1.000  H
  H124     1.0000 0.91360  0.09020  0.88630  Biso   1.000  H
  C94      1.0000 0.95060  0.00040  0.83190  Biso   1.000  C
  C95      1.0000 0.51950  0.98720  0.80030  Biso   1.000  C
  H125     1.0000 0.47760  0.97660  0.86500  Biso   1.000  H
  H126     1.0000 0.56830  0.95180  0.78420  Biso   1.000  H
  C96      1.0000 0.58930  0.04330  0.82330  Biso   1.000  C
  Eu2      1.0000 0.74282  0.95812  0.99660  Biso   1.000  Eu
  N9       1.0000 0.23860  0.13070  0.31790  Biso   1.000  N
  N10      1.0000 0.54460  0.11170  0.29500  Biso   1.000  N
  H127     1.0000 0.54190  0.08750  0.35630  Biso   1.000  H
  N11      1.0000 0.10580  0.28880  0.30280  Biso   1.000  N
  H128     1.0000 0.14300  0.29930  0.36510  Biso   1.000  H
  N12      1.0000 0.05160  0.99230  0.28740  Biso   1.000  N
  H129     1.0000 0.01390  0.00660  0.34660  Biso   1.000  H
  N13      1.0000 0.24130  0.12920  0.67760  Biso   1.000  N
  N14      1.0000 0.34380  0.29310  0.71570  Biso   1.000  N
  H130     1.0000 0.29780  0.30480  0.65980  Biso   1.000  H
  N15      1.0000 0.93940  0.09780  0.72310  Biso   1.000  N
  H131     1.0000 0.94080  0.07000  0.66670  Biso   1.000  H
  N16      1.0000 0.44010  0.99570  0.70880  Biso   1.000  N
  H132     1.0000 0.47840  0.01140  0.65100  Biso   1.000  H
  O13      1.0000 0.62460  0.97760  0.13630  Biso   1.000  O
  O14      1.0000 0.49090  0.99250  0.25750  Biso   1.000  O
  O15      1.0000 0.31270  0.33000  0.28200  Biso   1.000  O
  O16      1.0000 0.27230  0.39900  0.15560  Biso   1.000  O
  O17      1.0000 0.90540  0.08470  0.23470  Biso   1.000  O
  O18      1.0000 0.83470  0.03270  0.09750  Biso   1.000  O
  O19      1.0000 0.12860  0.31260  0.77590  Biso   1.000  O
  O20      1.0000 0.17820  0.37730  0.90660  Biso   1.000  O
  O21      1.0000 0.02040  0.98280  0.76950  Biso   1.000  O
  O22      1.0000 0.91110  0.96950  0.90910  Biso   1.000  O
  O23      1.0000 0.58050  0.09070  0.76840  Biso   1.000  O
  O24      1.0000 0.65550  0.03630  0.90200  Biso   1.000  O
