data_VAPBAR_charged
_audit_creation_date              2014-07-02
_audit_creation_method            'Materials Studio'
_symmetry_space_group_name_H-M    'P1'
_symmetry_Int_Tables_number       1
_symmetry_cell_setting            triclinic
loop_
_symmetry_equiv_pos_as_xyz
  x,y,z
_cell_length_a                    12.3360
_cell_length_b                    12.4880
_cell_length_c                    12.4880
_cell_angle_alpha                 120.0000
_cell_angle_beta                  90.0000
_cell_angle_gamma                 90.0000
loop_
_atom_site_label
_atom_site_type_symbol
_atom_site_fract_x
_atom_site_fract_y
_atom_site_fract_z
_atom_site_U_iso_or_equiv
_atom_site_adp_type
_atom_site_occupancy
Eu1    Eu    0.00000   0.00000   0.00000   0.01267  Uiso   1.00
H1     H     0.65240   0.91280   0.23180   0.01267  Uiso   1.00
H2     H     0.64000   0.71040   0.20400   0.01267  Uiso   1.00
H3     H     0.58690   0.79790   0.33290   0.01267  Uiso   1.00
H4     H     0.80290   0.80320   0.27710   0.01267  Uiso   1.00
H5     H     0.75130   0.88940   0.40700   0.01267  Uiso   1.00
H6     H     0.74740   0.08560   0.44780   0.01267  Uiso   1.00
H7     H     0.67690   0.12040   0.36580   0.01267  Uiso   1.00
H8     H     0.67170   0.07150   0.60400   0.01267  Uiso   1.00
H9     H     0.46910   0.07130   0.35380   0.01267  Uiso   1.00
H10    H     0.78900   0.03080   0.21040   0.01267  Uiso   1.00
H11    H     0.86870   0.96530   0.25720   0.01267  Uiso   1.00
H12    H     0.65240   0.31900   0.08720   0.01267  Uiso   1.00
H13    H     0.64000   0.49360   0.28960   0.01267  Uiso   1.00
H14    H     0.58690   0.53500   0.20210   0.01267  Uiso   1.00
H15    H     0.80290   0.47390   0.19680   0.01267  Uiso   1.00
H16    H     0.75130   0.51760   0.11060   0.01267  Uiso   1.00
H17    H     0.74740   0.36220   0.91440   0.01267  Uiso   1.00
H18    H     0.67690   0.24540   0.87960   0.01267  Uiso   1.00
H19    H     0.67170   0.53250   0.92850   0.01267  Uiso   1.00
H20    H     0.46910   0.28250   0.92870   0.01267  Uiso   1.00
H21    H     0.78900   0.17960   0.96920   0.01267  Uiso   1.00
H22    H     0.86870   0.29190   0.03470   0.01267  Uiso   1.00
H23    H     0.65240   0.76820   0.68100   0.01267  Uiso   1.00
H24    H     0.64000   0.79600   0.50640   0.01267  Uiso   1.00
H25    H     0.58690   0.66710   0.46500   0.01267  Uiso   1.00
H26    H     0.80290   0.72290   0.52610   0.01267  Uiso   1.00
H27    H     0.75130   0.59300   0.48240   0.01267  Uiso   1.00
H28    H     0.74740   0.55220   0.63780   0.01267  Uiso   1.00
H29    H     0.67690   0.63420   0.75460   0.01267  Uiso   1.00
H30    H     0.67170   0.39600   0.46750   0.01267  Uiso   1.00
H31    H     0.46910   0.64620   0.71750   0.01267  Uiso   1.00
H32    H     0.78900   0.78960   0.82040   0.01267  Uiso   1.00
H33    H     0.86870   0.74280   0.70810   0.01267  Uiso   1.00
H34    H     0.34760   0.31900   0.23180   0.01267  Uiso   1.00
H35    H     0.36000   0.49360   0.20400   0.01267  Uiso   1.00
H36    H     0.41310   0.53500   0.33290   0.01267  Uiso   1.00
H37    H     0.19710   0.47390   0.27710   0.01267  Uiso   1.00
H38    H     0.24870   0.51760   0.40700   0.01267  Uiso   1.00
H39    H     0.25260   0.36220   0.44780   0.01267  Uiso   1.00
H40    H     0.32310   0.24540   0.36580   0.01267  Uiso   1.00
H41    H     0.32830   0.53250   0.60400   0.01267  Uiso   1.00
H42    H     0.53090   0.28250   0.35380   0.01267  Uiso   1.00
H43    H     0.21100   0.17960   0.21040   0.01267  Uiso   1.00
H44    H     0.13130   0.29190   0.25720   0.01267  Uiso   1.00
H45    H     0.34760   0.76820   0.08720   0.01267  Uiso   1.00
H46    H     0.36000   0.79600   0.28960   0.01267  Uiso   1.00
H47    H     0.41310   0.66710   0.20210   0.01267  Uiso   1.00
H48    H     0.19710   0.72290   0.19680   0.01267  Uiso   1.00
H49    H     0.24870   0.59300   0.11060   0.01267  Uiso   1.00
H50    H     0.25260   0.55220   0.91440   0.01267  Uiso   1.00
H51    H     0.32310   0.63420   0.87960   0.01267  Uiso   1.00
H52    H     0.32830   0.39600   0.92850   0.01267  Uiso   1.00
H53    H     0.53090   0.64620   0.92870   0.01267  Uiso   1.00
H54    H     0.21100   0.78960   0.96920   0.01267  Uiso   1.00
H55    H     0.13130   0.74280   0.03470   0.01267  Uiso   1.00
H56    H     0.34760   0.91280   0.68100   0.01267  Uiso   1.00
H57    H     0.36000   0.71040   0.50640   0.01267  Uiso   1.00
H58    H     0.41310   0.79790   0.46500   0.01267  Uiso   1.00
H59    H     0.19710   0.80320   0.52610   0.01267  Uiso   1.00
H60    H     0.24870   0.88940   0.48240   0.01267  Uiso   1.00
H61    H     0.25260   0.08560   0.63780   0.01267  Uiso   1.00
H62    H     0.32310   0.12040   0.75460   0.01267  Uiso   1.00
H63    H     0.32830   0.07150   0.46750   0.01267  Uiso   1.00
H64    H     0.53090   0.07130   0.71750   0.01267  Uiso   1.00
H65    H     0.21100   0.03080   0.82040   0.01267  Uiso   1.00
H66    H     0.13130   0.96530   0.70810   0.01267  Uiso   1.00
C1     C     0.65330   0.75550   0.29240   0.01267  Uiso   1.00
C2     C     0.73700   0.84620   0.31880   0.01267  Uiso   1.00
C3     C     0.68500   0.06000   0.39200   0.01267  Uiso   1.00
C4     C     0.58890   0.06710   0.46470   0.01267  Uiso   1.00
C5     C     0.60180   0.06960   0.57530   0.01267  Uiso   1.00
C6     C     0.48160   0.06960   0.42630   0.01267  Uiso   1.00
C7     C     0.81330   0.85150   0.08530   0.01267  Uiso   1.00
C8     C     0.80140   0.95540   0.21290   0.01267  Uiso   1.00
C9     C     0.65330   0.53690   0.24450   0.01267  Uiso   1.00
C10    C     0.73700   0.47260   0.15380   0.01267  Uiso   1.00
C11    C     0.68500   0.33200   0.94000   0.01267  Uiso   1.00
C12    C     0.58890   0.39760   0.93290   0.01267  Uiso   1.00
C13    C     0.60180   0.50570   0.93040   0.01267  Uiso   1.00
C14    C     0.48160   0.35670   0.93040   0.01267  Uiso   1.00
C15    C     0.81330   0.23380   0.14850   0.01267  Uiso   1.00
C16    C     0.80140   0.25750   0.04460   0.01267  Uiso   1.00
C17    C     0.65330   0.70760   0.46310   0.01267  Uiso   1.00
C18    C     0.73700   0.68120   0.52740   0.01267  Uiso   1.00
C19    C     0.68500   0.60800   0.66800   0.01267  Uiso   1.00
C20    C     0.58890   0.53530   0.60240   0.01267  Uiso   1.00
C21    C     0.60180   0.42470   0.49430   0.01267  Uiso   1.00
C22    C     0.48160   0.57370   0.64330   0.01267  Uiso   1.00
C23    C     0.81330   0.91470   0.76620   0.01267  Uiso   1.00
C24    C     0.80140   0.78710   0.74250   0.01267  Uiso   1.00
C25    C     0.34670   0.53690   0.29240   0.01267  Uiso   1.00
C26    C     0.26300   0.47260   0.31880   0.01267  Uiso   1.00
C27    C     0.31500   0.33200   0.39200   0.01267  Uiso   1.00
C28    C     0.41110   0.39760   0.46470   0.01267  Uiso   1.00
C29    C     0.39820   0.50570   0.57530   0.01267  Uiso   1.00
C30    C     0.51840   0.35670   0.42630   0.01267  Uiso   1.00
C31    C     0.18670   0.23380   0.08530   0.01267  Uiso   1.00
C32    C     0.19860   0.25750   0.21290   0.01267  Uiso   1.00
C33    C     0.34670   0.70760   0.24450   0.01267  Uiso   1.00
C34    C     0.26300   0.68120   0.15380   0.01267  Uiso   1.00
C35    C     0.31500   0.60800   0.94000   0.01267  Uiso   1.00
C36    C     0.41110   0.53530   0.93290   0.01267  Uiso   1.00
C37    C     0.39820   0.42470   0.93040   0.01267  Uiso   1.00
C38    C     0.51840   0.57370   0.93040   0.01267  Uiso   1.00
C39    C     0.18670   0.91470   0.14850   0.01267  Uiso   1.00
C40    C     0.19860   0.78710   0.04460   0.01267  Uiso   1.00
C41    C     0.34670   0.75550   0.46310   0.01267  Uiso   1.00
C42    C     0.26300   0.84620   0.52740   0.01267  Uiso   1.00
C43    C     0.31500   0.06000   0.66800   0.01267  Uiso   1.00
C44    C     0.41110   0.06710   0.60240   0.01267  Uiso   1.00
C45    C     0.39820   0.06960   0.49430   0.01267  Uiso   1.00
C46    C     0.51840   0.06960   0.64330   0.01267  Uiso   1.00
C47    C     0.18670   0.85150   0.76620   0.01267  Uiso   1.00
C48    C     0.19860   0.95540   0.74250   0.01267  Uiso   1.00
N1     N     0.71190   0.93850   0.28160   0.01267  Uiso   1.00
N2     N     0.71190   0.34310   0.06150   0.01267  Uiso   1.00
N3     N     0.71190   0.71840   0.65690   0.01267  Uiso   1.00
N4     N     0.28810   0.34310   0.28160   0.01267  Uiso   1.00
N5     N     0.28810   0.71840   0.06150   0.01267  Uiso   1.00
N6     N     0.28810   0.93850   0.65690   0.01267  Uiso   1.00
N7     N     0.68100   0.66667   0.33334   0.01267  Uiso   1.00
N8     N     0.31900   0.66667   0.33334   0.01267  Uiso   1.00
O1     O     0.88760   0.86600   0.02290   0.01267  Uiso   1.00
O2     O     0.76060   0.75850   0.04680   0.01267  Uiso   1.00
O3     O     0.88760   0.15690   0.13400   0.01267  Uiso   1.00
O4     O     0.76060   0.28830   0.24150   0.01267  Uiso   1.00
O5     O     0.88760   0.97710   0.84310   0.01267  Uiso   1.00
O6     O     0.76060   0.95320   0.71170   0.01267  Uiso   1.00
O7     O     0.11240   0.15690   0.02290   0.01267  Uiso   1.00
O8     O     0.23940   0.28830   0.04680   0.01267  Uiso   1.00
O9     O     0.11240   0.97710   0.13400   0.01267  Uiso   1.00
O10    O     0.23940   0.95320   0.24150   0.01267  Uiso   1.00
O11    O     0.11240   0.86600   0.84310   0.01267  Uiso   1.00
O12    O     0.23940   0.75850   0.71170   0.01267  Uiso   1.00
N9     N     0.00000   0.66667   0.33334   0.01267  Uiso   1.00
O13    O     0.00000   0.72495   0.27505   0.01267  Uiso   1.00
O14    O     0.00000   0.55010   0.27505   0.01267  Uiso   1.00
O15    O     0.00000   0.72495   0.44990   0.01267  Uiso   1.00
