data_image0
_cell_length_a       15.1154
_cell_length_b       8.7269
_cell_length_c       16.1675
_cell_angle_alpha    90
_cell_angle_beta     108.156
_cell_angle_gamma    90

_symmetry_space_group_name_H-M    "P 1"
_symmetry_int_tables_number       1

loop_
  _symmetry_equiv_pos_as_xyz
  'x, y, z'

loop_
  _atom_site_label
  _atom_site_occupancy
  _atom_site_fract_x
  _atom_site_fract_y
  _atom_site_fract_z
  _atom_site_thermal_displace_type
  _atom_site_B_iso_or_equiv
  _atom_site_type_symbol
  Zn1      1.0000 0.36570  0.37073  0.48484  Biso   1.000  Zn
  P1       1.0000 0.15444  0.38850  0.37817  Biso   1.000  P
  H1       1.0000 0.11470  0.52480  0.36620  Biso   1.000  H
  P2       1.0000 0.98403  0.90830  0.11747  Biso   1.000  P
  H2       1.0000 0.97470  0.80300  0.17280  Biso   1.000  H
  O1       1.0000 0.25570  0.41520  0.38580  Biso   1.000  O
  O2       1.0000 0.13930  0.32460  0.45920  Biso   1.000  O
  O3       1.0000 0.10810  0.29750  0.29480  Biso   1.000  O
  O4       1.0000 0.04280  0.03620  0.17280  Biso   1.000  O
  O5       1.0000 0.03210  0.83100  0.06040  Biso   1.000  O
  O6       1.0000 0.88610  0.96210  0.06840  Biso   1.000  O
  Zn2      1.0000 0.86570  0.87073  0.48484  Biso   1.000  Zn
  P3       1.0000 0.65444  0.88850  0.37817  Biso   1.000  P
  H3       1.0000 0.61470  0.02480  0.36620  Biso   1.000  H
  P4       1.0000 0.48403  0.40830  0.11747  Biso   1.000  P
  H4       1.0000 0.47470  0.30300  0.17280  Biso   1.000  H
  O7       1.0000 0.75570  0.91520  0.38580  Biso   1.000  O
  O8       1.0000 0.63930  0.82460  0.45920  Biso   1.000  O
  O9       1.0000 0.60810  0.79750  0.29480  Biso   1.000  O
  O10      1.0000 0.54280  0.53620  0.17280  Biso   1.000  O
  O11      1.0000 0.53210  0.33100  0.06040  Biso   1.000  O
  O12      1.0000 0.38610  0.46210  0.06840  Biso   1.000  O
  Zn3      1.0000 0.63430  0.37073  0.01516  Biso   1.000  Zn
  P5       1.0000 0.84556  0.38850  0.12183  Biso   1.000  P
  H5       1.0000 0.88530  0.52480  0.13380  Biso   1.000  H
  P6       1.0000 0.01597  0.90830  0.38253  Biso   1.000  P
  H6       1.0000 0.02530  0.80300  0.32720  Biso   1.000  H
  O13      1.0000 0.74430  0.41520  0.11420  Biso   1.000  O
  O14      1.0000 0.86070  0.32460  0.04080  Biso   1.000  O
  O15      1.0000 0.89190  0.29750  0.20520  Biso   1.000  O
  O16      1.0000 0.95720  0.03620  0.32720  Biso   1.000  O
  O17      1.0000 0.96790  0.83100  0.43960  Biso   1.000  O
  O18      1.0000 0.11390  0.96210  0.43160  Biso   1.000  O
  Zn4      1.0000 0.13430  0.87073  0.01516  Biso   1.000  Zn
  P7       1.0000 0.34556  0.88850  0.12183  Biso   1.000  P
  H7       1.0000 0.38530  0.02480  0.13380  Biso   1.000  H
  P8       1.0000 0.51597  0.40830  0.38253  Biso   1.000  P
  H8       1.0000 0.52530  0.30300  0.32720  Biso   1.000  H
  O19      1.0000 0.24430  0.91520  0.11420  Biso   1.000  O
  O20      1.0000 0.36070  0.82460  0.04080  Biso   1.000  O
  O21      1.0000 0.39190  0.79750  0.20520  Biso   1.000  O
  O22      1.0000 0.45720  0.53620  0.32720  Biso   1.000  O
  O23      1.0000 0.46790  0.33100  0.43960  Biso   1.000  O
  O24      1.0000 0.61390  0.46210  0.43160  Biso   1.000  O
  Zn5      1.0000 0.63430  0.62927  0.51516  Biso   1.000  Zn
  P9       1.0000 0.84556  0.61150  0.62183  Biso   1.000  P
  H9       1.0000 0.88530  0.47520  0.63380  Biso   1.000  H
  P10      1.0000 0.01597  0.09170  0.88253  Biso   1.000  P
  H10      1.0000 0.02530  0.19700  0.82720  Biso   1.000  H
  O25      1.0000 0.74430  0.58480  0.61420  Biso   1.000  O
  O26      1.0000 0.86070  0.67540  0.54080  Biso   1.000  O
  O27      1.0000 0.89190  0.70250  0.70520  Biso   1.000  O
  O28      1.0000 0.95720  0.96380  0.82720  Biso   1.000  O
  O29      1.0000 0.96790  0.16900  0.93960  Biso   1.000  O
  O30      1.0000 0.11390  0.03790  0.93160  Biso   1.000  O
  Zn6      1.0000 0.13430  0.12927  0.51516  Biso   1.000  Zn
  P11      1.0000 0.34556  0.11150  0.62183  Biso   1.000  P
  H11      1.0000 0.38530  0.97520  0.63380  Biso   1.000  H
  P12      1.0000 0.51597  0.59170  0.88253  Biso   1.000  P
  H12      1.0000 0.52530  0.69700  0.82720  Biso   1.000  H
  O31      1.0000 0.24430  0.08480  0.61420  Biso   1.000  O
  O32      1.0000 0.36070  0.17540  0.54080  Biso   1.000  O
  O33      1.0000 0.39190  0.20250  0.70520  Biso   1.000  O
  O34      1.0000 0.45720  0.46380  0.82720  Biso   1.000  O
  O35      1.0000 0.46790  0.66900  0.93960  Biso   1.000  O
  O36      1.0000 0.61390  0.53790  0.93160  Biso   1.000  O
  Zn7      1.0000 0.36570  0.62927  0.98484  Biso   1.000  Zn
  P13      1.0000 0.15444  0.61150  0.87817  Biso   1.000  P
  H13      1.0000 0.11470  0.47520  0.86620  Biso   1.000  H
  P14      1.0000 0.98403  0.09170  0.61747  Biso   1.000  P
  H14      1.0000 0.97470  0.19700  0.67280  Biso   1.000  H
  O37      1.0000 0.25570  0.58480  0.88580  Biso   1.000  O
  O38      1.0000 0.13930  0.67540  0.95920  Biso   1.000  O
  O39      1.0000 0.10810  0.70250  0.79480  Biso   1.000  O
  O40      1.0000 0.04280  0.96380  0.67280  Biso   1.000  O
  O41      1.0000 0.03210  0.16900  0.56040  Biso   1.000  O
  O42      1.0000 0.88610  0.03790  0.56840  Biso   1.000  O
  Zn8      1.0000 0.86570  0.12927  0.98484  Biso   1.000  Zn
  P15      1.0000 0.65444  0.11150  0.87817  Biso   1.000  P
  H15      1.0000 0.61470  0.97520  0.86620  Biso   1.000  H
  P16      1.0000 0.48403  0.59170  0.61747  Biso   1.000  P
  H16      1.0000 0.47470  0.69700  0.67280  Biso   1.000  H
  O43      1.0000 0.75570  0.08480  0.88580  Biso   1.000  O
  O44      1.0000 0.63930  0.17540  0.95920  Biso   1.000  O
  O45      1.0000 0.60810  0.20250  0.79480  Biso   1.000  O
  O46      1.0000 0.54280  0.46380  0.67280  Biso   1.000  O
  O47      1.0000 0.53210  0.66900  0.56040  Biso   1.000  O
  O48      1.0000 0.38610  0.53790  0.56840  Biso   1.000  O
  Zn9      1.0000 0.00000  0.16565  0.25000  Biso   1.000  Zn
  Zn10     1.0000 0.50000  0.66565  0.25000  Biso   1.000  Zn
  Zn11     1.0000 0.00000  0.83435  0.75000  Biso   1.000  Zn
  Zn12     1.0000 0.50000  0.33435  0.75000  Biso   1.000  Zn
