data_image0
_cell_length_a       21.23
_cell_length_b       32.113
_cell_length_c       14.917
_cell_angle_alpha    90
_cell_angle_beta     132.847
_cell_angle_gamma    90

_symmetry_space_group_name_H-M    "P 1"
_symmetry_int_tables_number       1

loop_
  _symmetry_equiv_pos_as_xyz
  'x, y, z'

loop_
  _atom_site_label
  _atom_site_occupancy
  _atom_site_fract_x
  _atom_site_fract_y
  _atom_site_fract_z
  _atom_site_thermal_displace_type
  _atom_site_B_iso_or_equiv
  _atom_site_type_symbol
  Cd1      1.0000 0.73141  0.46809  0.50656  Biso   1.000  Cd
  Cd2      1.0000 0.72967  0.90828  0.85213  Biso   1.000  Cd
  Cd3      1.0000 0.23267  0.96273  0.22703  Biso   1.000  Cd
  N1       1.0000 0.58590  0.47110  0.36970  Biso   1.000  N
  N2       1.0000 0.45430  0.45030  0.22260  Biso   1.000  N
  H1       1.0000 0.41090  0.43390  0.17660  Biso   1.000  H
  N3       1.0000 0.13280  0.45260  0.82410  Biso   1.000  N
  N4       1.0000 0.00290  0.47570  0.71830  Biso   1.000  N
  H2       1.0000 0.94780  0.47590  0.66940  Biso   1.000  H
  N5       1.0000 0.37210  0.96120  0.35850  Biso   1.000  N
  N6       1.0000 0.50680  0.93940  0.48990  Biso   1.000  N
  H3       1.0000 0.55040  0.92300  0.53420  Biso   1.000  H
  N7       1.0000 0.82780  0.94710  0.87430  Biso   1.000  N
  N8       1.0000 0.95950  0.96580  0.97250  Biso   1.000  N
  H4       1.0000 0.01470  0.96530  0.02370  Biso   1.000  H
  O1       1.0000 0.82670  0.51520  0.51710  Biso   1.000  O
  O2       1.0000 0.75200  0.53590  0.55940  Biso   1.000  O
  O3       1.0000 0.70860  0.85580  0.94040  Biso   1.000  O
  O4       1.0000 0.82680  0.89277  0.06110  Biso   1.000  O
  O5       1.0000 0.21240  0.88180  0.18490  Biso   1.000  O
  O6       1.0000 0.11580  0.93098  0.06890  Biso   1.000  O
  O7       1.0000 0.15930  0.01859  0.21990  Biso   1.000  O
  O8       1.0000 0.22930  0.03228  0.16440  Biso   1.000  O
  O9       1.0000 0.26180  0.35270  0.77630  Biso   1.000  O
  O10      1.0000 0.13950  0.38554  0.65250  Biso   1.000  O
  O11      1.0000 0.79600  0.36830  0.49850  Biso   1.000  O
  O12      1.0000 0.83820  0.42221  0.62140  Biso   1.000  O
  O13      1.0000 0.70620  0.42934  0.34840  Biso   1.000  O
  H5       1.0000 0.67680  0.40780  0.33230  Biso   1.000  H
  H6       1.0000 0.67880  0.44440  0.28460  Biso   1.000  H
  C1       1.0000 0.80180  0.54360  0.54260  Biso   1.000  C
  C2       1.0000 0.82740  0.58780  0.55140  Biso   1.000  C
  C3       1.0000 0.82120  0.61570  0.61600  Biso   1.000  C
  H7       1.0000 0.80480  0.60640  0.65660  Biso   1.000  H
  C4       1.0000 0.83950  0.65740  0.62030  Biso   1.000  C
  H8       1.0000 0.83840  0.67550  0.66770  Biso   1.000  H
  C5       1.0000 0.85920  0.67240  0.55630  Biso   1.000  C
  C6       1.0000 0.86550  0.64470  0.49230  Biso   1.000  C
  H9       1.0000 0.87980  0.65440  0.44930  Biso   1.000  H
  C7       1.0000 0.85060  0.60200  0.49130  Biso   1.000  C
  H10      1.0000 0.85650  0.58350  0.44960  Biso   1.000  H
  C8       1.0000 0.87720  0.71760  0.56140  Biso   1.000  C
  C9       1.0000 0.91670  0.74100  0.66810  Biso   1.000  C
  H11      1.0000 0.93220  0.72810  0.73650  Biso   1.000  H
  C10      1.0000 0.93250  0.78300  0.67150  Biso   1.000  C
  C11      1.0000 0.90800  0.80230  0.56840  Biso   1.000  C
  H12      1.0000 0.91760  0.83070  0.57070  Biso   1.000  H
  C12      1.0000 0.86900  0.78000  0.46090  Biso   1.000  C
  C13      1.0000 0.85420  0.73760  0.45870  Biso   1.000  C
  H13      1.0000 0.82870  0.72220  0.38830  Biso   1.000  H
  C14      1.0000 0.84770  0.80110  0.35480  Biso   1.000  C
  C15      1.0000 0.89790  0.83380  0.37040  Biso   1.000  C
  H14      1.0000 0.94660  0.84220  0.44880  Biso   1.000  H
  C16      1.0000 0.87620  0.85360  0.27170  Biso   1.000  C
  H15      1.0000 0.91090  0.87500  0.28410  Biso   1.000  H
  C17      1.0000 0.80240  0.84240  0.15160  Biso   1.000  C
  C18      1.0000 0.75350  0.80940  0.13600  Biso   1.000  C
  H16      1.0000 0.70510  0.80090  0.05740  Biso   1.000  H
  C19      1.0000 0.77570  0.78910  0.23570  Biso   1.000  C
  H17      1.0000 0.74220  0.76700  0.22320  Biso   1.000  H
  C20      1.0000 0.77720  0.86520  0.04410  Biso   1.000  C
  C21      1.0000 0.97940  0.80880  0.78380  Biso   1.000  C
  C22      1.0000 0.95300  0.84930  0.77550  Biso   1.000  C
  H18      1.0000 0.90000  0.85840  0.70310  Biso   1.000  H
  C23      1.0000 0.00520  0.87650  0.87520  Biso   1.000  C
  H19      1.0000 0.98850  0.90400  0.86710  Biso   1.000  H
  C24      1.0000 0.08090  0.86260  0.98460  Biso   1.000  C
  C25      1.0000 0.10400  0.82180  0.99610  Biso   1.000  C
  H20      1.0000 0.15470  0.81220  0.07090  Biso   1.000  H
  C26      1.0000 0.05260  0.79410  0.89690  Biso   1.000  C
  H21      1.0000 0.06760  0.76610  0.90710  Biso   1.000  H
  C27      1.0000 0.14050  0.89310  0.08740  Biso   1.000  C
  C28      1.0000 0.18420  0.04390  0.18500  Biso   1.000  C
  C29      1.0000 0.16150  0.08950  0.17360  Biso   1.000  C
  C30      1.0000 0.17730  0.11730  0.12050  Biso   1.000  C
  H22      1.0000 0.20080  0.10770  0.08970  Biso   1.000  H
  C31      1.0000 0.15860  0.15930  0.11230  Biso   1.000  C
  H23      1.0000 0.16670  0.17740  0.07220  Biso   1.000  H
  C32      1.0000 0.12800  0.17450  0.16360  Biso   1.000  C
  C33      1.0000 0.11450  0.14620  0.22080  Biso   1.000  C
  H24      1.0000 0.09450  0.15580  0.25660  Biso   1.000  H
  C34      1.0000 0.13050  0.10420  0.22440  Biso   1.000  C
  H25      1.0000 0.12040  0.08570  0.26130  Biso   1.000  H
  C35      1.0000 0.10830  0.21940  0.15700  Biso   1.000  C
  C36      1.0000 0.06820  0.24180  0.05070  Biso   1.000  C
  H26      1.0000 0.05380  0.22840  0.98350  Biso   1.000  H
  C37      1.0000 0.04880  0.28410  0.04220  Biso   1.000  C
  C38      1.0000 0.07260  0.30300  0.14500  Biso   1.000  C
  H27      1.0000 0.06070  0.33110  0.14080  Biso   1.000  H
  C39      1.0000 0.11370  0.28190  0.25490  Biso   1.000  C
  C40      1.0000 0.13110  0.23930  0.25800  Biso   1.000  C
  H28      1.0000 0.15850  0.22430  0.32950  Biso   1.000  H
  C41      1.0000 0.13540  0.30210  0.36150  Biso   1.000  C
  C42      1.0000 0.08370  0.33380  0.34480  Biso   1.000  C
  H29      1.0000 0.03670  0.34300  0.26620  Biso   1.000  H
  C43      1.0000 0.10200  0.35200  0.44500  Biso   1.000  C
  H30      1.0000 0.06650  0.37300  0.43240  Biso   1.000  H
  C44      1.0000 0.17200  0.33940  0.56310  Biso   1.000  C
  C45      1.0000 0.22400  0.30880  0.58060  Biso   1.000  C
  H31      1.0000 0.27200  0.30050  0.65960  Biso   1.000  H
  C46      1.0000 0.20580  0.28960  0.48050  Biso   1.000  C
  H32      1.0000 0.24110  0.26830  0.49390  Biso   1.000  H
  C47      1.0000 0.19310  0.35910  0.67160  Biso   1.000  C
  C48      1.0000 0.99980  0.30820  0.92720  Biso   1.000  C
  C49      1.0000 0.00810  0.35050  0.92970  Biso   1.000  C
  H33      1.0000 0.05010  0.36350  0.00480  Biso   1.000  H
  C50      1.0000 0.95680  0.37460  0.82560  Biso   1.000  C
  H34      1.0000 0.96310  0.40340  0.83240  Biso   1.000  H
  C51      1.0000 0.89730  0.35710  0.71340  Biso   1.000  C
  C52      1.0000 0.88670  0.31420  0.70630  Biso   1.000  C
  H35      1.0000 0.84540  0.30150  0.63040  Biso   1.000  H
  C53      1.0000 0.93690  0.29000  0.81100  Biso   1.000  C
  H36      1.0000 0.92900  0.26130  0.80450  Biso   1.000  H
  C54      1.0000 0.84010  0.38440  0.60290  Biso   1.000  C
  C55      1.0000 0.53550  0.43900  0.31860  Biso   1.000  C
  H37      1.0000 0.55330  0.41170  0.34510  Biso   1.000  H
  C56      1.0000 0.53690  0.50450  0.30430  Biso   1.000  C
  H38      1.0000 0.55680  0.53180  0.32000  Biso   1.000  H
  C57      1.0000 0.45290  0.49250  0.21070  Biso   1.000  C
  C58      1.0000 0.37430  0.51580  0.11250  Biso   1.000  C
  C59      1.0000 0.37880  0.55750  0.09540  Biso   1.000  C
  H39      1.0000 0.43170  0.57100  0.14540  Biso   1.000  H
  C60      1.0000 0.30290  0.57960  0.00180  Biso   1.000  C
  H40      1.0000 0.30510  0.60810  0.99380  Biso   1.000  H
  C61      1.0000 0.22570  0.55910  0.92260  Biso   1.000  C
  H41      1.0000 0.17660  0.57340  0.85770  Biso   1.000  H
  C62      1.0000 0.22050  0.51730  0.93840  Biso   1.000  C
  C63      1.0000 0.29490  0.49650  0.03480  Biso   1.000  C
  H42      1.0000 0.29130  0.46860  0.04780  Biso   1.000  H
  C64      1.0000 0.13790  0.49470  0.85120  Biso   1.000  C
  C65      1.0000 0.05660  0.50920  0.78370  Biso   1.000  C
  H43      1.0000 0.04040  0.53630  0.78210  Biso   1.000  H
  C66      1.0000 0.05090  0.44370  0.74410  Biso   1.000  C
  H44      1.0000 0.02910  0.41740  0.70940  Biso   1.000  H
  C67      1.0000 0.42370  0.92750  0.41530  Biso   1.000  C
  H45      1.0000 0.40490  0.90020  0.40480  Biso   1.000  H
  C68      1.0000 0.42790  0.99480  0.40110  Biso   1.000  C
  H46      1.0000 0.41080  0.02230  0.37650  Biso   1.000  H
  C69      1.0000 0.51060  0.98150  0.48380  Biso   1.000  C
  C70      1.0000 0.59280  0.00460  0.56110  Biso   1.000  C
  C71      1.0000 0.59240  0.04650  0.54810  Biso   1.000  C
  H47      1.0000 0.54080  0.06060  0.49010  Biso   1.000  H
  C72      1.0000 0.67110  0.06840  0.62350  Biso   1.000  C
  H48      1.0000 0.67170  0.09660  0.61050  Biso   1.000  H
  C73      1.0000 0.74490  0.04860  0.71390  Biso   1.000  C
  H49      1.0000 0.79580  0.06360  0.76660  Biso   1.000  H
  C74      1.0000 0.74570  0.00660  0.72900  Biso   1.000  C
  C75      1.0000 0.67010  0.98480  0.64820  Biso   1.000  C
  H50      1.0000 0.67130  0.95590  0.65270  Biso   1.000  H
  C76      1.0000 0.82620  0.98460  0.82900  Biso   1.000  C
  C77      1.0000 0.90970  0.99560  0.89220  Biso   1.000  C
  H51      1.0000 0.92790  0.01970  0.88080  Biso   1.000  H
  C78      1.0000 0.91000  0.93670  0.96070  Biso   1.000  C
  H52      1.0000 0.93000  0.91240  0.00680  Biso   1.000  H
  Cd4      1.0000 0.23141  0.96809  0.50656  Biso   1.000  Cd
  Cd5      1.0000 0.22967  0.40828  0.85213  Biso   1.000  Cd
  Cd6      1.0000 0.73267  0.46273  0.22703  Biso   1.000  Cd
  N9       1.0000 0.08590  0.97110  0.36970  Biso   1.000  N
  N10      1.0000 0.95430  0.95030  0.22260  Biso   1.000  N
  H53      1.0000 0.91090  0.93390  0.17660  Biso   1.000  H
  N11      1.0000 0.63280  0.95260  0.82410  Biso   1.000  N
  N12      1.0000 0.50290  0.97570  0.71830  Biso   1.000  N
  H54      1.0000 0.44780  0.97590  0.66940  Biso   1.000  H
  N13      1.0000 0.87210  0.46120  0.35850  Biso   1.000  N
  N14      1.0000 0.00680  0.43940  0.48990  Biso   1.000  N
  H55      1.0000 0.05040  0.42300  0.53420  Biso   1.000  H
  N15      1.0000 0.32780  0.44710  0.87430  Biso   1.000  N
  N16      1.0000 0.45950  0.46580  0.97250  Biso   1.000  N
  H56      1.0000 0.51470  0.46530  0.02370  Biso   1.000  H
  O14      1.0000 0.32670  0.01520  0.51710  Biso   1.000  O
  O15      1.0000 0.25200  0.03590  0.55940  Biso   1.000  O
  O16      1.0000 0.20860  0.35580  0.94040  Biso   1.000  O
  O17      1.0000 0.32680  0.39277  0.06110  Biso   1.000  O
  O18      1.0000 0.71240  0.38180  0.18490  Biso   1.000  O
  O19      1.0000 0.61580  0.43098  0.06890  Biso   1.000  O
  O20      1.0000 0.65930  0.51859  0.21990  Biso   1.000  O
  O21      1.0000 0.72930  0.53228  0.16440  Biso   1.000  O
  O22      1.0000 0.76180  0.85270  0.77630  Biso   1.000  O
  O23      1.0000 0.63950  0.88554  0.65250  Biso   1.000  O
  O24      1.0000 0.29600  0.86830  0.49850  Biso   1.000  O
  O25      1.0000 0.33820  0.92221  0.62140  Biso   1.000  O
  O26      1.0000 0.20620  0.92934  0.34840  Biso   1.000  O
  H57      1.0000 0.17680  0.90780  0.33230  Biso   1.000  H
  H58      1.0000 0.17880  0.94440  0.28460  Biso   1.000  H
  C79      1.0000 0.30180  0.04360  0.54260  Biso   1.000  C
  C80      1.0000 0.32740  0.08780  0.55140  Biso   1.000  C
  C81      1.0000 0.32120  0.11570  0.61600  Biso   1.000  C
  H59      1.0000 0.30480  0.10640  0.65660  Biso   1.000  H
  C82      1.0000 0.33950  0.15740  0.62030  Biso   1.000  C
  H60      1.0000 0.33840  0.17550  0.66770  Biso   1.000  H
  C83      1.0000 0.35920  0.17240  0.55630  Biso   1.000  C
  C84      1.0000 0.36550  0.14470  0.49230  Biso   1.000  C
  H61      1.0000 0.37980  0.15440  0.44930  Biso   1.000  H
  C85      1.0000 0.35060  0.10200  0.49130  Biso   1.000  C
  H62      1.0000 0.35650  0.08350  0.44960  Biso   1.000  H
  C86      1.0000 0.37720  0.21760  0.56140  Biso   1.000  C
  C87      1.0000 0.41670  0.24100  0.66810  Biso   1.000  C
  H63      1.0000 0.43220  0.22810  0.73650  Biso   1.000  H
  C88      1.0000 0.43250  0.28300  0.67150  Biso   1.000  C
  C89      1.0000 0.40800  0.30230  0.56840  Biso   1.000  C
  H64      1.0000 0.41760  0.33070  0.57070  Biso   1.000  H
  C90      1.0000 0.36900  0.28000  0.46090  Biso   1.000  C
  C91      1.0000 0.35420  0.23760  0.45870  Biso   1.000  C
  H65      1.0000 0.32870  0.22220  0.38830  Biso   1.000  H
  C92      1.0000 0.34770  0.30110  0.35480  Biso   1.000  C
  C93      1.0000 0.39790  0.33380  0.37040  Biso   1.000  C
  H66      1.0000 0.44660  0.34220  0.44880  Biso   1.000  H
  C94      1.0000 0.37620  0.35360  0.27170  Biso   1.000  C
  H67      1.0000 0.41090  0.37500  0.28410  Biso   1.000  H
  C95      1.0000 0.30240  0.34240  0.15160  Biso   1.000  C
  C96      1.0000 0.25350  0.30940  0.13600  Biso   1.000  C
  H68      1.0000 0.20510  0.30090  0.05740  Biso   1.000  H
  C97      1.0000 0.27570  0.28910  0.23570  Biso   1.000  C
  H69      1.0000 0.24220  0.26700  0.22320  Biso   1.000  H
  C98      1.0000 0.27720  0.36520  0.04410  Biso   1.000  C
  C99      1.0000 0.47940  0.30880  0.78380  Biso   1.000  C
  C100     1.0000 0.45300  0.34930  0.77550  Biso   1.000  C
  H70      1.0000 0.40000  0.35840  0.70310  Biso   1.000  H
  C101     1.0000 0.50520  0.37650  0.87520  Biso   1.000  C
  H71      1.0000 0.48850  0.40400  0.86710  Biso   1.000  H
  C102     1.0000 0.58090  0.36260  0.98460  Biso   1.000  C
  C103     1.0000 0.60400  0.32180  0.99610  Biso   1.000  C
  H72      1.0000 0.65470  0.31220  0.07090  Biso   1.000  H
  C104     1.0000 0.55260  0.29410  0.89690  Biso   1.000  C
  H73      1.0000 0.56760  0.26610  0.90710  Biso   1.000  H
  C105     1.0000 0.64050  0.39310  0.08740  Biso   1.000  C
  C106     1.0000 0.68420  0.54390  0.18500  Biso   1.000  C
  C107     1.0000 0.66150  0.58950  0.17360  Biso   1.000  C
  C108     1.0000 0.67730  0.61730  0.12050  Biso   1.000  C
  H74      1.0000 0.70080  0.60770  0.08970  Biso   1.000  H
  C109     1.0000 0.65860  0.65930  0.11230  Biso   1.000  C
  H75      1.0000 0.66670  0.67740  0.07220  Biso   1.000  H
  C110     1.0000 0.62800  0.67450  0.16360  Biso   1.000  C
  C111     1.0000 0.61450  0.64620  0.22080  Biso   1.000  C
  H76      1.0000 0.59450  0.65580  0.25660  Biso   1.000  H
  C112     1.0000 0.63050  0.60420  0.22440  Biso   1.000  C
  H77      1.0000 0.62040  0.58570  0.26130  Biso   1.000  H
  C113     1.0000 0.60830  0.71940  0.15700  Biso   1.000  C
  C114     1.0000 0.56820  0.74180  0.05070  Biso   1.000  C
  H78      1.0000 0.55380  0.72840  0.98350  Biso   1.000  H
  C115     1.0000 0.54880  0.78410  0.04220  Biso   1.000  C
  C116     1.0000 0.57260  0.80300  0.14500  Biso   1.000  C
  H79      1.0000 0.56070  0.83110  0.14080  Biso   1.000  H
  C117     1.0000 0.61370  0.78190  0.25490  Biso   1.000  C
  C118     1.0000 0.63110  0.73930  0.25800  Biso   1.000  C
  H80      1.0000 0.65850  0.72430  0.32950  Biso   1.000  H
  C119     1.0000 0.63540  0.80210  0.36150  Biso   1.000  C
  C120     1.0000 0.58370  0.83380  0.34480  Biso   1.000  C
  H81      1.0000 0.53670  0.84300  0.26620  Biso   1.000  H
  C121     1.0000 0.60200  0.85200  0.44500  Biso   1.000  C
  H82      1.0000 0.56650  0.87300  0.43240  Biso   1.000  H
  C122     1.0000 0.67200  0.83940  0.56310  Biso   1.000  C
  C123     1.0000 0.72400  0.80880  0.58060  Biso   1.000  C
  H83      1.0000 0.77200  0.80050  0.65960  Biso   1.000  H
  C124     1.0000 0.70580  0.78960  0.48050  Biso   1.000  C
  H84      1.0000 0.74110  0.76830  0.49390  Biso   1.000  H
  C125     1.0000 0.69310  0.85910  0.67160  Biso   1.000  C
  C126     1.0000 0.49980  0.80820  0.92720  Biso   1.000  C
  C127     1.0000 0.50810  0.85050  0.92970  Biso   1.000  C
  H85      1.0000 0.55010  0.86350  0.00480  Biso   1.000  H
  C128     1.0000 0.45680  0.87460  0.82560  Biso   1.000  C
  H86      1.0000 0.46310  0.90340  0.83240  Biso   1.000  H
  C129     1.0000 0.39730  0.85710  0.71340  Biso   1.000  C
  C130     1.0000 0.38670  0.81420  0.70630  Biso   1.000  C
  H87      1.0000 0.34540  0.80150  0.63040  Biso   1.000  H
  C131     1.0000 0.43690  0.79000  0.81100  Biso   1.000  C
  H88      1.0000 0.42900  0.76130  0.80450  Biso   1.000  H
  C132     1.0000 0.34010  0.88440  0.60290  Biso   1.000  C
  C133     1.0000 0.03550  0.93900  0.31860  Biso   1.000  C
  H89      1.0000 0.05330  0.91170  0.34510  Biso   1.000  H
  C134     1.0000 0.03690  0.00450  0.30430  Biso   1.000  C
  H90      1.0000 0.05680  0.03180  0.32000  Biso   1.000  H
  C135     1.0000 0.95290  0.99250  0.21070  Biso   1.000  C
  C136     1.0000 0.87430  0.01580  0.11250  Biso   1.000  C
  C137     1.0000 0.87880  0.05750  0.09540  Biso   1.000  C
  H91      1.0000 0.93170  0.07100  0.14540  Biso   1.000  H
  C138     1.0000 0.80290  0.07960  0.00180  Biso   1.000  C
  H92      1.0000 0.80510  0.10810  0.99380  Biso   1.000  H
  C139     1.0000 0.72570  0.05910  0.92260  Biso   1.000  C
  H93      1.0000 0.67660  0.07340  0.85770  Biso   1.000  H
  C140     1.0000 0.72050  0.01730  0.93840  Biso   1.000  C
  C141     1.0000 0.79490  0.99650  0.03480  Biso   1.000  C
  H94      1.0000 0.79130  0.96860  0.04780  Biso   1.000  H
  C142     1.0000 0.63790  0.99470  0.85120  Biso   1.000  C
  C143     1.0000 0.55660  0.00920  0.78370  Biso   1.000  C
  H95      1.0000 0.54040  0.03630  0.78210  Biso   1.000  H
  C144     1.0000 0.55090  0.94370  0.74410  Biso   1.000  C
  H96      1.0000 0.52910  0.91740  0.70940  Biso   1.000  H
  C145     1.0000 0.92370  0.42750  0.41530  Biso   1.000  C
  H97      1.0000 0.90490  0.40020  0.40480  Biso   1.000  H
  C146     1.0000 0.92790  0.49480  0.40110  Biso   1.000  C
  H98      1.0000 0.91080  0.52230  0.37650  Biso   1.000  H
  C147     1.0000 0.01060  0.48150  0.48380  Biso   1.000  C
  C148     1.0000 0.09280  0.50460  0.56110  Biso   1.000  C
  C149     1.0000 0.09240  0.54650  0.54810  Biso   1.000  C
  H99      1.0000 0.04080  0.56060  0.49010  Biso   1.000  H
  C150     1.0000 0.17110  0.56840  0.62350  Biso   1.000  C
  H100     1.0000 0.17170  0.59660  0.61050  Biso   1.000  H
  C151     1.0000 0.24490  0.54860  0.71390  Biso   1.000  C
  H101     1.0000 0.29580  0.56360  0.76660  Biso   1.000  H
  C152     1.0000 0.24570  0.50660  0.72900  Biso   1.000  C
  C153     1.0000 0.17010  0.48480  0.64820  Biso   1.000  C
  H102     1.0000 0.17130  0.45590  0.65270  Biso   1.000  H
  C154     1.0000 0.32620  0.48460  0.82900  Biso   1.000  C
  C155     1.0000 0.40970  0.49560  0.89220  Biso   1.000  C
  H103     1.0000 0.42790  0.51970  0.88080  Biso   1.000  H
  C156     1.0000 0.41000  0.43670  0.96070  Biso   1.000  C
  H104     1.0000 0.43000  0.41240  0.00680  Biso   1.000  H
  Cd7      1.0000 0.73141  0.53191  0.00656  Biso   1.000  Cd
  Cd8      1.0000 0.72967  0.09172  0.35213  Biso   1.000  Cd
  Cd9      1.0000 0.23267  0.03727  0.72703  Biso   1.000  Cd
  N17      1.0000 0.58590  0.52890  0.86970  Biso   1.000  N
  N18      1.0000 0.45430  0.54970  0.72260  Biso   1.000  N
  H105     1.0000 0.41090  0.56610  0.67660  Biso   1.000  H
  N19      1.0000 0.13280  0.54740  0.32410  Biso   1.000  N
  N20      1.0000 0.00290  0.52430  0.21830  Biso   1.000  N
  H106     1.0000 0.94780  0.52410  0.16940  Biso   1.000  H
  N21      1.0000 0.37210  0.03880  0.85850  Biso   1.000  N
  N22      1.0000 0.50680  0.06060  0.98990  Biso   1.000  N
  H107     1.0000 0.55040  0.07700  0.03420  Biso   1.000  H
  N23      1.0000 0.82780  0.05290  0.37430  Biso   1.000  N
  N24      1.0000 0.95950  0.03420  0.47250  Biso   1.000  N
  H108     1.0000 0.01470  0.03470  0.52370  Biso   1.000  H
  O27      1.0000 0.82670  0.48480  0.01710  Biso   1.000  O
  O28      1.0000 0.75200  0.46410  0.05940  Biso   1.000  O
  O29      1.0000 0.70860  0.14420  0.44040  Biso   1.000  O
  O30      1.0000 0.82680  0.10723  0.56110  Biso   1.000  O
  O31      1.0000 0.21240  0.11820  0.68490  Biso   1.000  O
  O32      1.0000 0.11580  0.06902  0.56890  Biso   1.000  O
  O33      1.0000 0.15930  0.98141  0.71990  Biso   1.000  O
  O34      1.0000 0.22930  0.96772  0.66440  Biso   1.000  O
  O35      1.0000 0.26180  0.64730  0.27630  Biso   1.000  O
  O36      1.0000 0.13950  0.61446  0.15250  Biso   1.000  O
  O37      1.0000 0.79600  0.63170  0.99850  Biso   1.000  O
  O38      1.0000 0.83820  0.57779  0.12140  Biso   1.000  O
  O39      1.0000 0.70620  0.57066  0.84840  Biso   1.000  O
  H109     1.0000 0.67680  0.59220  0.83230  Biso   1.000  H
  H110     1.0000 0.67880  0.55560  0.78460  Biso   1.000  H
  C157     1.0000 0.80180  0.45640  0.04260  Biso   1.000  C
  C158     1.0000 0.82740  0.41220  0.05140  Biso   1.000  C
  C159     1.0000 0.82120  0.38430  0.11600  Biso   1.000  C
  H111     1.0000 0.80480  0.39360  0.15660  Biso   1.000  H
  C160     1.0000 0.83950  0.34260  0.12030  Biso   1.000  C
  H112     1.0000 0.83840  0.32450  0.16770  Biso   1.000  H
  C161     1.0000 0.85920  0.32760  0.05630  Biso   1.000  C
  C162     1.0000 0.86550  0.35530  0.99230  Biso   1.000  C
  H113     1.0000 0.87980  0.34560  0.94930  Biso   1.000  H
  C163     1.0000 0.85060  0.39800  0.99130  Biso   1.000  C
  H114     1.0000 0.85650  0.41650  0.94960  Biso   1.000  H
  C164     1.0000 0.87720  0.28240  0.06140  Biso   1.000  C
  C165     1.0000 0.91670  0.25900  0.16810  Biso   1.000  C
  H115     1.0000 0.93220  0.27190  0.23650  Biso   1.000  H
  C166     1.0000 0.93250  0.21700  0.17150  Biso   1.000  C
  C167     1.0000 0.90800  0.19770  0.06840  Biso   1.000  C
  H116     1.0000 0.91760  0.16930  0.07070  Biso   1.000  H
  C168     1.0000 0.86900  0.22000  0.96090  Biso   1.000  C
  C169     1.0000 0.85420  0.26240  0.95870  Biso   1.000  C
  H117     1.0000 0.82870  0.27780  0.88830  Biso   1.000  H
  C170     1.0000 0.84770  0.19890  0.85480  Biso   1.000  C
  C171     1.0000 0.89790  0.16620  0.87040  Biso   1.000  C
  H118     1.0000 0.94660  0.15780  0.94880  Biso   1.000  H
  C172     1.0000 0.87620  0.14640  0.77170  Biso   1.000  C
  H119     1.0000 0.91090  0.12500  0.78410  Biso   1.000  H
  C173     1.0000 0.80240  0.15760  0.65160  Biso   1.000  C
  C174     1.0000 0.75350  0.19060  0.63600  Biso   1.000  C
  H120     1.0000 0.70510  0.19910  0.55740  Biso   1.000  H
  C175     1.0000 0.77570  0.21090  0.73570  Biso   1.000  C
  H121     1.0000 0.74220  0.23300  0.72320  Biso   1.000  H
  C176     1.0000 0.77720  0.13480  0.54410  Biso   1.000  C
  C177     1.0000 0.97940  0.19120  0.28380  Biso   1.000  C
  C178     1.0000 0.95300  0.15070  0.27550  Biso   1.000  C
  H122     1.0000 0.90000  0.14160  0.20310  Biso   1.000  H
  C179     1.0000 0.00520  0.12350  0.37520  Biso   1.000  C
  H123     1.0000 0.98850  0.09600  0.36710  Biso   1.000  H
  C180     1.0000 0.08090  0.13740  0.48460  Biso   1.000  C
  C181     1.0000 0.10400  0.17820  0.49610  Biso   1.000  C
  H124     1.0000 0.15470  0.18780  0.57090  Biso   1.000  H
  C182     1.0000 0.05260  0.20590  0.39690  Biso   1.000  C
  H125     1.0000 0.06760  0.23390  0.40710  Biso   1.000  H
  C183     1.0000 0.14050  0.10690  0.58740  Biso   1.000  C
  C184     1.0000 0.18420  0.95610  0.68500  Biso   1.000  C
  C185     1.0000 0.16150  0.91050  0.67360  Biso   1.000  C
  C186     1.0000 0.17730  0.88270  0.62050  Biso   1.000  C
  H126     1.0000 0.20080  0.89230  0.58970  Biso   1.000  H
  C187     1.0000 0.15860  0.84070  0.61230  Biso   1.000  C
  H127     1.0000 0.16670  0.82260  0.57220  Biso   1.000  H
  C188     1.0000 0.12800  0.82550  0.66360  Biso   1.000  C
  C189     1.0000 0.11450  0.85380  0.72080  Biso   1.000  C
  H128     1.0000 0.09450  0.84420  0.75660  Biso   1.000  H
  C190     1.0000 0.13050  0.89580  0.72440  Biso   1.000  C
  H129     1.0000 0.12040  0.91430  0.76130  Biso   1.000  H
  C191     1.0000 0.10830  0.78060  0.65700  Biso   1.000  C
  C192     1.0000 0.06820  0.75820  0.55070  Biso   1.000  C
  H130     1.0000 0.05380  0.77160  0.48350  Biso   1.000  H
  C193     1.0000 0.04880  0.71590  0.54220  Biso   1.000  C
  C194     1.0000 0.07260  0.69700  0.64500  Biso   1.000  C
  H131     1.0000 0.06070  0.66890  0.64080  Biso   1.000  H
  C195     1.0000 0.11370  0.71810  0.75490  Biso   1.000  C
  C196     1.0000 0.13110  0.76070  0.75800  Biso   1.000  C
  H132     1.0000 0.15850  0.77570  0.82950  Biso   1.000  H
  C197     1.0000 0.13540  0.69790  0.86150  Biso   1.000  C
  C198     1.0000 0.08370  0.66620  0.84480  Biso   1.000  C
  H133     1.0000 0.03670  0.65700  0.76620  Biso   1.000  H
  C199     1.0000 0.10200  0.64800  0.94500  Biso   1.000  C
  H134     1.0000 0.06650  0.62700  0.93240  Biso   1.000  H
  C200     1.0000 0.17200  0.66060  0.06310  Biso   1.000  C
  C201     1.0000 0.22400  0.69120  0.08060  Biso   1.000  C
  H135     1.0000 0.27200  0.69950  0.15960  Biso   1.000  H
  C202     1.0000 0.20580  0.71040  0.98050  Biso   1.000  C
  H136     1.0000 0.24110  0.73170  0.99390  Biso   1.000  H
  C203     1.0000 0.19310  0.64090  0.17160  Biso   1.000  C
  C204     1.0000 0.99980  0.69180  0.42720  Biso   1.000  C
  C205     1.0000 0.00810  0.64950  0.42970  Biso   1.000  C
  H137     1.0000 0.05010  0.63650  0.50480  Biso   1.000  H
  C206     1.0000 0.95680  0.62540  0.32560  Biso   1.000  C
  H138     1.0000 0.96310  0.59660  0.33240  Biso   1.000  H
  C207     1.0000 0.89730  0.64290  0.21340  Biso   1.000  C
  C208     1.0000 0.88670  0.68580  0.20630  Biso   1.000  C
  H139     1.0000 0.84540  0.69850  0.13040  Biso   1.000  H
  C209     1.0000 0.93690  0.71000  0.31100  Biso   1.000  C
  H140     1.0000 0.92900  0.73870  0.30450  Biso   1.000  H
  C210     1.0000 0.84010  0.61560  0.10290  Biso   1.000  C
  C211     1.0000 0.53550  0.56100  0.81860  Biso   1.000  C
  H141     1.0000 0.55330  0.58830  0.84510  Biso   1.000  H
  C212     1.0000 0.53690  0.49550  0.80430  Biso   1.000  C
  H142     1.0000 0.55680  0.46820  0.82000  Biso   1.000  H
  C213     1.0000 0.45290  0.50750  0.71070  Biso   1.000  C
  C214     1.0000 0.37430  0.48420  0.61250  Biso   1.000  C
  C215     1.0000 0.37880  0.44250  0.59540  Biso   1.000  C
  H143     1.0000 0.43170  0.42900  0.64540  Biso   1.000  H
  C216     1.0000 0.30290  0.42040  0.50180  Biso   1.000  C
  H144     1.0000 0.30510  0.39190  0.49380  Biso   1.000  H
  C217     1.0000 0.22570  0.44090  0.42260  Biso   1.000  C
  H145     1.0000 0.17660  0.42660  0.35770  Biso   1.000  H
  C218     1.0000 0.22050  0.48270  0.43840  Biso   1.000  C
  C219     1.0000 0.29490  0.50350  0.53480  Biso   1.000  C
  H146     1.0000 0.29130  0.53140  0.54780  Biso   1.000  H
  C220     1.0000 0.13790  0.50530  0.35120  Biso   1.000  C
  C221     1.0000 0.05660  0.49080  0.28370  Biso   1.000  C
  H147     1.0000 0.04040  0.46370  0.28210  Biso   1.000  H
  C222     1.0000 0.05090  0.55630  0.24410  Biso   1.000  C
  H148     1.0000 0.02910  0.58260  0.20940  Biso   1.000  H
  C223     1.0000 0.42370  0.07250  0.91530  Biso   1.000  C
  H149     1.0000 0.40490  0.09980  0.90480  Biso   1.000  H
  C224     1.0000 0.42790  0.00520  0.90110  Biso   1.000  C
  H150     1.0000 0.41080  0.97770  0.87650  Biso   1.000  H
  C225     1.0000 0.51060  0.01850  0.98380  Biso   1.000  C
  C226     1.0000 0.59280  0.99540  0.06110  Biso   1.000  C
  C227     1.0000 0.59240  0.95350  0.04810  Biso   1.000  C
  H151     1.0000 0.54080  0.93940  0.99010  Biso   1.000  H
  C228     1.0000 0.67110  0.93160  0.12350  Biso   1.000  C
  H152     1.0000 0.67170  0.90340  0.11050  Biso   1.000  H
  C229     1.0000 0.74490  0.95140  0.21390  Biso   1.000  C
  H153     1.0000 0.79580  0.93640  0.26660  Biso   1.000  H
  C230     1.0000 0.74570  0.99340  0.22900  Biso   1.000  C
  C231     1.0000 0.67010  0.01520  0.14820  Biso   1.000  C
  H154     1.0000 0.67130  0.04410  0.15270  Biso   1.000  H
  C232     1.0000 0.82620  0.01540  0.32900  Biso   1.000  C
  C233     1.0000 0.90970  0.00440  0.39220  Biso   1.000  C
  H155     1.0000 0.92790  0.98030  0.38080  Biso   1.000  H
  C234     1.0000 0.91000  0.06330  0.46070  Biso   1.000  C
  H156     1.0000 0.93000  0.08760  0.50680  Biso   1.000  H
  Cd10     1.0000 0.23141  0.03191  0.00656  Biso   1.000  Cd
  Cd11     1.0000 0.22967  0.59172  0.35213  Biso   1.000  Cd
  Cd12     1.0000 0.73267  0.53727  0.72703  Biso   1.000  Cd
  N25      1.0000 0.08590  0.02890  0.86970  Biso   1.000  N
  N26      1.0000 0.95430  0.04970  0.72260  Biso   1.000  N
  H157     1.0000 0.91090  0.06610  0.67660  Biso   1.000  H
  N27      1.0000 0.63280  0.04740  0.32410  Biso   1.000  N
  N28      1.0000 0.50290  0.02430  0.21830  Biso   1.000  N
  H158     1.0000 0.44780  0.02410  0.16940  Biso   1.000  H
  N29      1.0000 0.87210  0.53880  0.85850  Biso   1.000  N
  N30      1.0000 0.00680  0.56060  0.98990  Biso   1.000  N
  H159     1.0000 0.05040  0.57700  0.03420  Biso   1.000  H
  N31      1.0000 0.32780  0.55290  0.37430  Biso   1.000  N
  N32      1.0000 0.45950  0.53420  0.47250  Biso   1.000  N
  H160     1.0000 0.51470  0.53470  0.52370  Biso   1.000  H
  O40      1.0000 0.32670  0.98480  0.01710  Biso   1.000  O
  O41      1.0000 0.25200  0.96410  0.05940  Biso   1.000  O
  O42      1.0000 0.20860  0.64420  0.44040  Biso   1.000  O
  O43      1.0000 0.32680  0.60723  0.56110  Biso   1.000  O
  O44      1.0000 0.71240  0.61820  0.68490  Biso   1.000  O
  O45      1.0000 0.61580  0.56902  0.56890  Biso   1.000  O
  O46      1.0000 0.65930  0.48141  0.71990  Biso   1.000  O
  O47      1.0000 0.72930  0.46772  0.66440  Biso   1.000  O
  O48      1.0000 0.76180  0.14730  0.27630  Biso   1.000  O
  O49      1.0000 0.63950  0.11446  0.15250  Biso   1.000  O
  O50      1.0000 0.29600  0.13170  0.99850  Biso   1.000  O
  O51      1.0000 0.33820  0.07779  0.12140  Biso   1.000  O
  O52      1.0000 0.20620  0.07066  0.84840  Biso   1.000  O
  H161     1.0000 0.17680  0.09220  0.83230  Biso   1.000  H
  H162     1.0000 0.17880  0.05560  0.78460  Biso   1.000  H
  C235     1.0000 0.30180  0.95640  0.04260  Biso   1.000  C
  C236     1.0000 0.32740  0.91220  0.05140  Biso   1.000  C
  C237     1.0000 0.32120  0.88430  0.11600  Biso   1.000  C
  H163     1.0000 0.30480  0.89360  0.15660  Biso   1.000  H
  C238     1.0000 0.33950  0.84260  0.12030  Biso   1.000  C
  H164     1.0000 0.33840  0.82450  0.16770  Biso   1.000  H
  C239     1.0000 0.35920  0.82760  0.05630  Biso   1.000  C
  C240     1.0000 0.36550  0.85530  0.99230  Biso   1.000  C
  H165     1.0000 0.37980  0.84560  0.94930  Biso   1.000  H
  C241     1.0000 0.35060  0.89800  0.99130  Biso   1.000  C
  H166     1.0000 0.35650  0.91650  0.94960  Biso   1.000  H
  C242     1.0000 0.37720  0.78240  0.06140  Biso   1.000  C
  C243     1.0000 0.41670  0.75900  0.16810  Biso   1.000  C
  H167     1.0000 0.43220  0.77190  0.23650  Biso   1.000  H
  C244     1.0000 0.43250  0.71700  0.17150  Biso   1.000  C
  C245     1.0000 0.40800  0.69770  0.06840  Biso   1.000  C
  H168     1.0000 0.41760  0.66930  0.07070  Biso   1.000  H
  C246     1.0000 0.36900  0.72000  0.96090  Biso   1.000  C
  C247     1.0000 0.35420  0.76240  0.95870  Biso   1.000  C
  H169     1.0000 0.32870  0.77780  0.88830  Biso   1.000  H
  C248     1.0000 0.34770  0.69890  0.85480  Biso   1.000  C
  C249     1.0000 0.39790  0.66620  0.87040  Biso   1.000  C
  H170     1.0000 0.44660  0.65780  0.94880  Biso   1.000  H
  C250     1.0000 0.37620  0.64640  0.77170  Biso   1.000  C
  H171     1.0000 0.41090  0.62500  0.78410  Biso   1.000  H
  C251     1.0000 0.30240  0.65760  0.65160  Biso   1.000  C
  C252     1.0000 0.25350  0.69060  0.63600  Biso   1.000  C
  H172     1.0000 0.20510  0.69910  0.55740  Biso   1.000  H
  C253     1.0000 0.27570  0.71090  0.73570  Biso   1.000  C
  H173     1.0000 0.24220  0.73300  0.72320  Biso   1.000  H
  C254     1.0000 0.27720  0.63480  0.54410  Biso   1.000  C
  C255     1.0000 0.47940  0.69120  0.28380  Biso   1.000  C
  C256     1.0000 0.45300  0.65070  0.27550  Biso   1.000  C
  H174     1.0000 0.40000  0.64160  0.20310  Biso   1.000  H
  C257     1.0000 0.50520  0.62350  0.37520  Biso   1.000  C
  H175     1.0000 0.48850  0.59600  0.36710  Biso   1.000  H
  C258     1.0000 0.58090  0.63740  0.48460  Biso   1.000  C
  C259     1.0000 0.60400  0.67820  0.49610  Biso   1.000  C
  H176     1.0000 0.65470  0.68780  0.57090  Biso   1.000  H
  C260     1.0000 0.55260  0.70590  0.39690  Biso   1.000  C
  H177     1.0000 0.56760  0.73390  0.40710  Biso   1.000  H
  C261     1.0000 0.64050  0.60690  0.58740  Biso   1.000  C
  C262     1.0000 0.68420  0.45610  0.68500  Biso   1.000  C
  C263     1.0000 0.66150  0.41050  0.67360  Biso   1.000  C
  C264     1.0000 0.67730  0.38270  0.62050  Biso   1.000  C
  H178     1.0000 0.70080  0.39230  0.58970  Biso   1.000  H
  C265     1.0000 0.65860  0.34070  0.61230  Biso   1.000  C
  H179     1.0000 0.66670  0.32260  0.57220  Biso   1.000  H
  C266     1.0000 0.62800  0.32550  0.66360  Biso   1.000  C
  C267     1.0000 0.61450  0.35380  0.72080  Biso   1.000  C
  H180     1.0000 0.59450  0.34420  0.75660  Biso   1.000  H
  C268     1.0000 0.63050  0.39580  0.72440  Biso   1.000  C
  H181     1.0000 0.62040  0.41430  0.76130  Biso   1.000  H
  C269     1.0000 0.60830  0.28060  0.65700  Biso   1.000  C
  C270     1.0000 0.56820  0.25820  0.55070  Biso   1.000  C
  H182     1.0000 0.55380  0.27160  0.48350  Biso   1.000  H
  C271     1.0000 0.54880  0.21590  0.54220  Biso   1.000  C
  C272     1.0000 0.57260  0.19700  0.64500  Biso   1.000  C
  H183     1.0000 0.56070  0.16890  0.64080  Biso   1.000  H
  C273     1.0000 0.61370  0.21810  0.75490  Biso   1.000  C
  C274     1.0000 0.63110  0.26070  0.75800  Biso   1.000  C
  H184     1.0000 0.65850  0.27570  0.82950  Biso   1.000  H
  C275     1.0000 0.63540  0.19790  0.86150  Biso   1.000  C
  C276     1.0000 0.58370  0.16620  0.84480  Biso   1.000  C
  H185     1.0000 0.53670  0.15700  0.76620  Biso   1.000  H
  C277     1.0000 0.60200  0.14800  0.94500  Biso   1.000  C
  H186     1.0000 0.56650  0.12700  0.93240  Biso   1.000  H
  C278     1.0000 0.67200  0.16060  0.06310  Biso   1.000  C
  C279     1.0000 0.72400  0.19120  0.08060  Biso   1.000  C
  H187     1.0000 0.77200  0.19950  0.15960  Biso   1.000  H
  C280     1.0000 0.70580  0.21040  0.98050  Biso   1.000  C
  H188     1.0000 0.74110  0.23170  0.99390  Biso   1.000  H
  C281     1.0000 0.69310  0.14090  0.17160  Biso   1.000  C
  C282     1.0000 0.49980  0.19180  0.42720  Biso   1.000  C
  C283     1.0000 0.50810  0.14950  0.42970  Biso   1.000  C
  H189     1.0000 0.55010  0.13650  0.50480  Biso   1.000  H
  C284     1.0000 0.45680  0.12540  0.32560  Biso   1.000  C
  H190     1.0000 0.46310  0.09660  0.33240  Biso   1.000  H
  C285     1.0000 0.39730  0.14290  0.21340  Biso   1.000  C
  C286     1.0000 0.38670  0.18580  0.20630  Biso   1.000  C
  H191     1.0000 0.34540  0.19850  0.13040  Biso   1.000  H
  C287     1.0000 0.43690  0.21000  0.31100  Biso   1.000  C
  H192     1.0000 0.42900  0.23870  0.30450  Biso   1.000  H
  C288     1.0000 0.34010  0.11560  0.10290  Biso   1.000  C
  C289     1.0000 0.03550  0.06100  0.81860  Biso   1.000  C
  H193     1.0000 0.05330  0.08830  0.84510  Biso   1.000  H
  C290     1.0000 0.03690  0.99550  0.80430  Biso   1.000  C
  H194     1.0000 0.05680  0.96820  0.82000  Biso   1.000  H
  C291     1.0000 0.95290  0.00750  0.71070  Biso   1.000  C
  C292     1.0000 0.87430  0.98420  0.61250  Biso   1.000  C
  C293     1.0000 0.87880  0.94250  0.59540  Biso   1.000  C
  H195     1.0000 0.93170  0.92900  0.64540  Biso   1.000  H
  C294     1.0000 0.80290  0.92040  0.50180  Biso   1.000  C
  H196     1.0000 0.80510  0.89190  0.49380  Biso   1.000  H
  C295     1.0000 0.72570  0.94090  0.42260  Biso   1.000  C
  H197     1.0000 0.67660  0.92660  0.35770  Biso   1.000  H
  C296     1.0000 0.72050  0.98270  0.43840  Biso   1.000  C
  C297     1.0000 0.79490  0.00350  0.53480  Biso   1.000  C
  H198     1.0000 0.79130  0.03140  0.54780  Biso   1.000  H
  C298     1.0000 0.63790  0.00530  0.35120  Biso   1.000  C
  C299     1.0000 0.55660  0.99080  0.28370  Biso   1.000  C
  H199     1.0000 0.54040  0.96370  0.28210  Biso   1.000  H
  C300     1.0000 0.55090  0.05630  0.24410  Biso   1.000  C
  H200     1.0000 0.52910  0.08260  0.20940  Biso   1.000  H
  C301     1.0000 0.92370  0.57250  0.91530  Biso   1.000  C
  H201     1.0000 0.90490  0.59980  0.90480  Biso   1.000  H
  C302     1.0000 0.92790  0.50520  0.90110  Biso   1.000  C
  H202     1.0000 0.91080  0.47770  0.87650  Biso   1.000  H
  C303     1.0000 0.01060  0.51850  0.98380  Biso   1.000  C
  C304     1.0000 0.09280  0.49540  0.06110  Biso   1.000  C
  C305     1.0000 0.09240  0.45350  0.04810  Biso   1.000  C
  H203     1.0000 0.04080  0.43940  0.99010  Biso   1.000  H
  C306     1.0000 0.17110  0.43160  0.12350  Biso   1.000  C
  H204     1.0000 0.17170  0.40340  0.11050  Biso   1.000  H
  C307     1.0000 0.24490  0.45140  0.21390  Biso   1.000  C
  H205     1.0000 0.29580  0.43640  0.26660  Biso   1.000  H
  C308     1.0000 0.24570  0.49340  0.22900  Biso   1.000  C
  C309     1.0000 0.17010  0.51520  0.14820  Biso   1.000  C
  H206     1.0000 0.17130  0.54410  0.15270  Biso   1.000  H
  C310     1.0000 0.32620  0.51540  0.32900  Biso   1.000  C
  C311     1.0000 0.40970  0.50440  0.39220  Biso   1.000  C
  H207     1.0000 0.42790  0.48030  0.38080  Biso   1.000  H
  C312     1.0000 0.41000  0.56330  0.46070  Biso   1.000  C
  H208     1.0000 0.43000  0.58760  0.50680  Biso   1.000  H
