data_image0
_cell_length_a       36.4378
_cell_length_b       36.4378
_cell_length_c       10.9373
_cell_angle_alpha    90
_cell_angle_beta     90
_cell_angle_gamma    90

_symmetry_space_group_name_H-M    "P 1"
_symmetry_int_tables_number       1

loop_
  _symmetry_equiv_pos_as_xyz
  'x, y, z'

loop_
  _atom_site_label
  _atom_site_occupancy
  _atom_site_fract_x
  _atom_site_fract_y
  _atom_site_fract_z
  _atom_site_thermal_displace_type
  _atom_site_B_iso_or_equiv
  _atom_site_type_symbol
  N1       1.0000 0.78591  0.50233  0.48089  Biso   1.000  N
  N2       1.0000 0.80138  0.46835  0.30222  Biso   1.000  N
  N3       1.0000 0.80185  0.53367  0.29740  Biso   1.000  N
  C1       1.0000 0.79138  0.53455  0.41812  Biso   1.000  C
  C2       1.0000 0.79091  0.46922  0.42294  Biso   1.000  C
  C3       1.0000 0.80685  0.50057  0.23945  Biso   1.000  C
  C4       1.0000 0.78633  0.56801  0.47668  Biso   1.000  C
  C5       1.0000 0.78946  0.60011  0.41211  Biso   1.000  C
  C6       1.0000 0.78447  0.63312  0.46990  Biso   1.000  C
  C7       1.0000 0.77635  0.63404  0.59226  Biso   1.000  C
  C8       1.0000 0.77321  0.60194  0.65684  Biso   1.000  C
  C9       1.0000 0.77820  0.56893  0.59904  Biso   1.000  C
  C10      1.0000 0.77089  0.67016  0.65549  Biso   1.000  C
  C11      1.0000 0.78539  0.43665  0.48639  Biso   1.000  C
  C12      1.0000 0.78327  0.43695  0.61155  Biso   1.000  C
  C13      1.0000 0.77781  0.40481  0.67415  Biso   1.000  C
  C14      1.0000 0.77448  0.37237  0.61161  Biso   1.000  C
  C15      1.0000 0.77660  0.37208  0.48645  Biso   1.000  C
  C16      1.0000 0.78206  0.40421  0.42384  Biso   1.000  C
  C17      1.0000 0.76852  0.33721  0.68010  Biso   1.000  C
  C18      1.0000 0.81743  0.49968  0.11744  Biso   1.000  C
  C19      1.0000 0.82623  0.46691  0.06330  Biso   1.000  C
  C20      1.0000 0.83667  0.46603  0.94290  Biso   1.000  C
  C21      1.0000 0.83831  0.49793  0.87664  Biso   1.000  C
  C22      1.0000 0.82951  0.53071  0.93078  Biso   1.000  C
  C23      1.0000 0.81907  0.53158  0.05118  Biso   1.000  C
  C24      1.0000 0.84973  0.49697  0.74492  Biso   1.000  C
  O1       1.0000 0.74526  0.67375  0.73642  Biso   1.000  O
  O2       1.0000 0.79182  0.69772  0.62908  Biso   1.000  O
  O3       1.0000 0.78311  0.30707  0.64088  Biso   1.000  O
  O4       1.0000 0.74878  0.33703  0.77839  Biso   1.000  O
  O5       1.0000 0.86995  0.47037  0.70495  Biso   1.000  O
  O6       1.0000 0.83937  0.52275  0.67129  Biso   1.000  O
  Al1      1.0000 0.75331  0.70776  0.86410  Biso   1.000  Al
  O7       1.0000 0.75872  0.74478  0.73920  Biso   1.000  O
  N4       1.0000 0.28591  0.00233  0.98089  Biso   1.000  N
  N5       1.0000 0.30138  0.96835  0.80222  Biso   1.000  N
  N6       1.0000 0.30185  0.03367  0.79740  Biso   1.000  N
  C25      1.0000 0.29138  0.03455  0.91812  Biso   1.000  C
  C26      1.0000 0.29091  0.96922  0.92294  Biso   1.000  C
  C27      1.0000 0.30685  0.00057  0.73945  Biso   1.000  C
  C28      1.0000 0.28633  0.06801  0.97668  Biso   1.000  C
  C29      1.0000 0.28946  0.10011  0.91211  Biso   1.000  C
  C30      1.0000 0.28447  0.13312  0.96990  Biso   1.000  C
  C31      1.0000 0.27635  0.13404  0.09226  Biso   1.000  C
  C32      1.0000 0.27321  0.10194  0.15684  Biso   1.000  C
  C33      1.0000 0.27820  0.06893  0.09904  Biso   1.000  C
  C34      1.0000 0.27089  0.17016  0.15549  Biso   1.000  C
  C35      1.0000 0.28539  0.93665  0.98639  Biso   1.000  C
  C36      1.0000 0.28327  0.93695  0.11155  Biso   1.000  C
  C37      1.0000 0.27781  0.90481  0.17415  Biso   1.000  C
  C38      1.0000 0.27448  0.87237  0.11161  Biso   1.000  C
  C39      1.0000 0.27660  0.87208  0.98645  Biso   1.000  C
  C40      1.0000 0.28206  0.90421  0.92384  Biso   1.000  C
  C41      1.0000 0.26852  0.83721  0.18010  Biso   1.000  C
  C42      1.0000 0.31743  0.99968  0.61744  Biso   1.000  C
  C43      1.0000 0.32623  0.96691  0.56330  Biso   1.000  C
  C44      1.0000 0.33667  0.96603  0.44290  Biso   1.000  C
  C45      1.0000 0.33831  0.99793  0.37664  Biso   1.000  C
  C46      1.0000 0.32951  0.03071  0.43078  Biso   1.000  C
  C47      1.0000 0.31907  0.03158  0.55118  Biso   1.000  C
  C48      1.0000 0.34973  0.99697  0.24492  Biso   1.000  C
  O8       1.0000 0.24526  0.17375  0.23642  Biso   1.000  O
  O9       1.0000 0.29182  0.19772  0.12908  Biso   1.000  O
  O10      1.0000 0.28311  0.80707  0.14088  Biso   1.000  O
  O11      1.0000 0.24878  0.83703  0.27839  Biso   1.000  O
  O12      1.0000 0.36995  0.97037  0.20495  Biso   1.000  O
  O13      1.0000 0.33937  0.02275  0.17129  Biso   1.000  O
  Al2      1.0000 0.25331  0.20776  0.36410  Biso   1.000  Al
  O14      1.0000 0.25872  0.24478  0.23920  Biso   1.000  O
  N7       1.0000 0.71409  0.99767  0.98089  Biso   1.000  N
  N8       1.0000 0.69862  0.03165  0.80222  Biso   1.000  N
  N9       1.0000 0.69815  0.96633  0.79740  Biso   1.000  N
  C49      1.0000 0.70862  0.96545  0.91812  Biso   1.000  C
  C50      1.0000 0.70909  0.03078  0.92294  Biso   1.000  C
  C51      1.0000 0.69315  0.99943  0.73945  Biso   1.000  C
  C52      1.0000 0.71367  0.93199  0.97668  Biso   1.000  C
  C53      1.0000 0.71054  0.89989  0.91211  Biso   1.000  C
  C54      1.0000 0.71553  0.86688  0.96990  Biso   1.000  C
  C55      1.0000 0.72365  0.86596  0.09226  Biso   1.000  C
  C56      1.0000 0.72679  0.89806  0.15684  Biso   1.000  C
  C57      1.0000 0.72180  0.93107  0.09904  Biso   1.000  C
  C58      1.0000 0.72911  0.82984  0.15549  Biso   1.000  C
  C59      1.0000 0.71461  0.06335  0.98639  Biso   1.000  C
  C60      1.0000 0.71673  0.06305  0.11155  Biso   1.000  C
  C61      1.0000 0.72219  0.09519  0.17415  Biso   1.000  C
  C62      1.0000 0.72552  0.12763  0.11161  Biso   1.000  C
  C63      1.0000 0.72340  0.12792  0.98645  Biso   1.000  C
  C64      1.0000 0.71794  0.09579  0.92384  Biso   1.000  C
  C65      1.0000 0.73148  0.16279  0.18010  Biso   1.000  C
  C66      1.0000 0.68257  0.00032  0.61744  Biso   1.000  C
  C67      1.0000 0.67377  0.03309  0.56330  Biso   1.000  C
  C68      1.0000 0.66333  0.03397  0.44290  Biso   1.000  C
  C69      1.0000 0.66169  0.00207  0.37664  Biso   1.000  C
  C70      1.0000 0.67049  0.96929  0.43078  Biso   1.000  C
  C71      1.0000 0.68093  0.96842  0.55118  Biso   1.000  C
  C72      1.0000 0.65027  0.00303  0.24492  Biso   1.000  C
  O15      1.0000 0.75474  0.82625  0.23642  Biso   1.000  O
  O16      1.0000 0.70818  0.80228  0.12908  Biso   1.000  O
  O17      1.0000 0.71689  0.19293  0.14088  Biso   1.000  O
  O18      1.0000 0.75122  0.16297  0.27839  Biso   1.000  O
  O19      1.0000 0.63005  0.02963  0.20495  Biso   1.000  O
  O20      1.0000 0.66063  0.97725  0.17129  Biso   1.000  O
  Al3      1.0000 0.74669  0.79224  0.36410  Biso   1.000  Al
  O21      1.0000 0.74128  0.75522  0.23920  Biso   1.000  O
  N10      1.0000 0.21409  0.49767  0.48089  Biso   1.000  N
  N11      1.0000 0.19862  0.53165  0.30222  Biso   1.000  N
  N12      1.0000 0.19815  0.46633  0.29740  Biso   1.000  N
  C73      1.0000 0.20862  0.46545  0.41812  Biso   1.000  C
  C74      1.0000 0.20909  0.53078  0.42294  Biso   1.000  C
  C75      1.0000 0.19315  0.49943  0.23945  Biso   1.000  C
  C76      1.0000 0.21367  0.43199  0.47668  Biso   1.000  C
  C77      1.0000 0.21054  0.39989  0.41211  Biso   1.000  C
  C78      1.0000 0.21553  0.36688  0.46990  Biso   1.000  C
  C79      1.0000 0.22365  0.36596  0.59226  Biso   1.000  C
  C80      1.0000 0.22679  0.39806  0.65684  Biso   1.000  C
  C81      1.0000 0.22180  0.43107  0.59904  Biso   1.000  C
  C82      1.0000 0.22911  0.32984  0.65549  Biso   1.000  C
  C83      1.0000 0.21461  0.56335  0.48639  Biso   1.000  C
  C84      1.0000 0.21673  0.56305  0.61155  Biso   1.000  C
  C85      1.0000 0.22219  0.59519  0.67415  Biso   1.000  C
  C86      1.0000 0.22552  0.62763  0.61161  Biso   1.000  C
  C87      1.0000 0.22340  0.62792  0.48645  Biso   1.000  C
  C88      1.0000 0.21794  0.59579  0.42384  Biso   1.000  C
  C89      1.0000 0.23148  0.66279  0.68010  Biso   1.000  C
  C90      1.0000 0.18257  0.50032  0.11744  Biso   1.000  C
  C91      1.0000 0.17377  0.53309  0.06330  Biso   1.000  C
  C92      1.0000 0.16333  0.53397  0.94290  Biso   1.000  C
  C93      1.0000 0.16169  0.50207  0.87664  Biso   1.000  C
  C94      1.0000 0.17049  0.46929  0.93078  Biso   1.000  C
  C95      1.0000 0.18093  0.46842  0.05118  Biso   1.000  C
  C96      1.0000 0.15027  0.50303  0.74492  Biso   1.000  C
  O22      1.0000 0.25474  0.32625  0.73642  Biso   1.000  O
  O23      1.0000 0.20818  0.30228  0.62908  Biso   1.000  O
  O24      1.0000 0.21689  0.69293  0.64088  Biso   1.000  O
  O25      1.0000 0.25122  0.66297  0.77839  Biso   1.000  O
  O26      1.0000 0.13005  0.52963  0.70495  Biso   1.000  O
  O27      1.0000 0.16063  0.47725  0.67129  Biso   1.000  O
  Al4      1.0000 0.24669  0.29224  0.86410  Biso   1.000  Al
  O28      1.0000 0.24128  0.25522  0.73920  Biso   1.000  O
  N13      1.0000 0.49767  0.28591  0.73089  Biso   1.000  N
  N14      1.0000 0.53165  0.30138  0.55222  Biso   1.000  N
  N15      1.0000 0.46633  0.30185  0.54740  Biso   1.000  N
  C97      1.0000 0.46545  0.29138  0.66812  Biso   1.000  C
  C98      1.0000 0.53078  0.29091  0.67294  Biso   1.000  C
  C99      1.0000 0.49943  0.30685  0.48945  Biso   1.000  C
  C100     1.0000 0.43199  0.28633  0.72668  Biso   1.000  C
  C101     1.0000 0.39989  0.28946  0.66211  Biso   1.000  C
  C102     1.0000 0.36688  0.28447  0.71990  Biso   1.000  C
  C103     1.0000 0.36596  0.27635  0.84226  Biso   1.000  C
  C104     1.0000 0.39806  0.27321  0.90684  Biso   1.000  C
  C105     1.0000 0.43107  0.27820  0.84904  Biso   1.000  C
  C106     1.0000 0.32984  0.27089  0.90549  Biso   1.000  C
  C107     1.0000 0.56335  0.28539  0.73639  Biso   1.000  C
  C108     1.0000 0.56305  0.28327  0.86155  Biso   1.000  C
  C109     1.0000 0.59519  0.27781  0.92415  Biso   1.000  C
  C110     1.0000 0.62763  0.27448  0.86161  Biso   1.000  C
  C111     1.0000 0.62792  0.27660  0.73645  Biso   1.000  C
  C112     1.0000 0.59579  0.28206  0.67384  Biso   1.000  C
  C113     1.0000 0.66279  0.26852  0.93010  Biso   1.000  C
  C114     1.0000 0.50032  0.31743  0.36744  Biso   1.000  C
  C115     1.0000 0.53309  0.32623  0.31330  Biso   1.000  C
  C116     1.0000 0.53397  0.33667  0.19290  Biso   1.000  C
  C117     1.0000 0.50207  0.33831  0.12664  Biso   1.000  C
  C118     1.0000 0.46929  0.32951  0.18078  Biso   1.000  C
  C119     1.0000 0.46842  0.31907  0.30118  Biso   1.000  C
  C120     1.0000 0.50303  0.34973  0.99492  Biso   1.000  C
  O29      1.0000 0.32625  0.24526  0.98642  Biso   1.000  O
  O30      1.0000 0.30228  0.29182  0.87908  Biso   1.000  O
  O31      1.0000 0.69293  0.28311  0.89088  Biso   1.000  O
  O32      1.0000 0.66297  0.24878  0.02839  Biso   1.000  O
  O33      1.0000 0.52963  0.36995  0.95495  Biso   1.000  O
  O34      1.0000 0.47725  0.33937  0.92129  Biso   1.000  O
  Al5      1.0000 0.29224  0.25331  0.11410  Biso   1.000  Al
  O35      1.0000 0.25522  0.25872  0.98920  Biso   1.000  O
  N16      1.0000 0.99767  0.78591  0.23089  Biso   1.000  N
  N17      1.0000 0.03165  0.80138  0.05222  Biso   1.000  N
  N18      1.0000 0.96633  0.80185  0.04740  Biso   1.000  N
  C121     1.0000 0.96545  0.79138  0.16812  Biso   1.000  C
  C122     1.0000 0.03078  0.79091  0.17294  Biso   1.000  C
  C123     1.0000 0.99943  0.80685  0.98945  Biso   1.000  C
  C124     1.0000 0.93199  0.78633  0.22668  Biso   1.000  C
  C125     1.0000 0.89989  0.78946  0.16211  Biso   1.000  C
  C126     1.0000 0.86688  0.78447  0.21990  Biso   1.000  C
  C127     1.0000 0.86596  0.77635  0.34226  Biso   1.000  C
  C128     1.0000 0.89806  0.77321  0.40684  Biso   1.000  C
  C129     1.0000 0.93107  0.77820  0.34904  Biso   1.000  C
  C130     1.0000 0.82984  0.77089  0.40549  Biso   1.000  C
  C131     1.0000 0.06335  0.78539  0.23639  Biso   1.000  C
  C132     1.0000 0.06305  0.78327  0.36155  Biso   1.000  C
  C133     1.0000 0.09519  0.77781  0.42415  Biso   1.000  C
  C134     1.0000 0.12763  0.77448  0.36161  Biso   1.000  C
  C135     1.0000 0.12792  0.77660  0.23645  Biso   1.000  C
  C136     1.0000 0.09579  0.78206  0.17384  Biso   1.000  C
  C137     1.0000 0.16279  0.76852  0.43010  Biso   1.000  C
  C138     1.0000 0.00032  0.81743  0.86744  Biso   1.000  C
  C139     1.0000 0.03309  0.82623  0.81330  Biso   1.000  C
  C140     1.0000 0.03397  0.83667  0.69290  Biso   1.000  C
  C141     1.0000 0.00207  0.83831  0.62664  Biso   1.000  C
  C142     1.0000 0.96929  0.82951  0.68078  Biso   1.000  C
  C143     1.0000 0.96842  0.81907  0.80118  Biso   1.000  C
  C144     1.0000 0.00303  0.84973  0.49492  Biso   1.000  C
  O36      1.0000 0.82625  0.74526  0.48642  Biso   1.000  O
  O37      1.0000 0.80228  0.79182  0.37908  Biso   1.000  O
  O38      1.0000 0.19293  0.78311  0.39088  Biso   1.000  O
  O39      1.0000 0.16297  0.74878  0.52839  Biso   1.000  O
  O40      1.0000 0.02963  0.86995  0.45495  Biso   1.000  O
  O41      1.0000 0.97725  0.83937  0.42129  Biso   1.000  O
  Al6      1.0000 0.79224  0.75331  0.61410  Biso   1.000  Al
  O42      1.0000 0.75522  0.75872  0.48920  Biso   1.000  O
  N19      1.0000 0.00233  0.21409  0.23089  Biso   1.000  N
  N20      1.0000 0.96835  0.19862  0.05222  Biso   1.000  N
  N21      1.0000 0.03367  0.19815  0.04740  Biso   1.000  N
  C145     1.0000 0.03455  0.20862  0.16812  Biso   1.000  C
  C146     1.0000 0.96922  0.20909  0.17294  Biso   1.000  C
  C147     1.0000 0.00057  0.19315  0.98945  Biso   1.000  C
  C148     1.0000 0.06801  0.21367  0.22668  Biso   1.000  C
  C149     1.0000 0.10011  0.21054  0.16211  Biso   1.000  C
  C150     1.0000 0.13312  0.21553  0.21990  Biso   1.000  C
  C151     1.0000 0.13404  0.22365  0.34226  Biso   1.000  C
  C152     1.0000 0.10194  0.22679  0.40684  Biso   1.000  C
  C153     1.0000 0.06893  0.22180  0.34904  Biso   1.000  C
  C154     1.0000 0.17016  0.22911  0.40549  Biso   1.000  C
  C155     1.0000 0.93665  0.21461  0.23639  Biso   1.000  C
  C156     1.0000 0.93695  0.21673  0.36155  Biso   1.000  C
  C157     1.0000 0.90481  0.22219  0.42415  Biso   1.000  C
  C158     1.0000 0.87237  0.22552  0.36161  Biso   1.000  C
  C159     1.0000 0.87208  0.22340  0.23645  Biso   1.000  C
  C160     1.0000 0.90421  0.21794  0.17384  Biso   1.000  C
  C161     1.0000 0.83721  0.23148  0.43010  Biso   1.000  C
  C162     1.0000 0.99968  0.18257  0.86744  Biso   1.000  C
  C163     1.0000 0.96691  0.17377  0.81330  Biso   1.000  C
  C164     1.0000 0.96603  0.16333  0.69290  Biso   1.000  C
  C165     1.0000 0.99793  0.16169  0.62664  Biso   1.000  C
  C166     1.0000 0.03071  0.17049  0.68078  Biso   1.000  C
  C167     1.0000 0.03158  0.18093  0.80118  Biso   1.000  C
  C168     1.0000 0.99697  0.15027  0.49492  Biso   1.000  C
  O43      1.0000 0.17375  0.25474  0.48642  Biso   1.000  O
  O44      1.0000 0.19772  0.20818  0.37908  Biso   1.000  O
  O45      1.0000 0.80707  0.21689  0.39088  Biso   1.000  O
  O46      1.0000 0.83703  0.25122  0.52839  Biso   1.000  O
  O47      1.0000 0.97037  0.13005  0.45495  Biso   1.000  O
  O48      1.0000 0.02275  0.16063  0.42129  Biso   1.000  O
  Al7      1.0000 0.20776  0.24669  0.61410  Biso   1.000  Al
  O49      1.0000 0.24478  0.24128  0.48920  Biso   1.000  O
  N22      1.0000 0.50233  0.71409  0.73089  Biso   1.000  N
  N23      1.0000 0.46835  0.69862  0.55222  Biso   1.000  N
  N24      1.0000 0.53367  0.69815  0.54740  Biso   1.000  N
  C169     1.0000 0.53455  0.70862  0.66812  Biso   1.000  C
  C170     1.0000 0.46922  0.70909  0.67294  Biso   1.000  C
  C171     1.0000 0.50057  0.69315  0.48945  Biso   1.000  C
  C172     1.0000 0.56801  0.71367  0.72668  Biso   1.000  C
  C173     1.0000 0.60011  0.71054  0.66211  Biso   1.000  C
  C174     1.0000 0.63312  0.71553  0.71990  Biso   1.000  C
  C175     1.0000 0.63404  0.72365  0.84226  Biso   1.000  C
  C176     1.0000 0.60194  0.72679  0.90684  Biso   1.000  C
  C177     1.0000 0.56893  0.72180  0.84904  Biso   1.000  C
  C178     1.0000 0.67016  0.72911  0.90549  Biso   1.000  C
  C179     1.0000 0.43665  0.71461  0.73639  Biso   1.000  C
  C180     1.0000 0.43695  0.71673  0.86155  Biso   1.000  C
  C181     1.0000 0.40481  0.72219  0.92415  Biso   1.000  C
  C182     1.0000 0.37237  0.72552  0.86161  Biso   1.000  C
  C183     1.0000 0.37208  0.72340  0.73645  Biso   1.000  C
  C184     1.0000 0.40421  0.71794  0.67384  Biso   1.000  C
  C185     1.0000 0.33721  0.73148  0.93010  Biso   1.000  C
  C186     1.0000 0.49968  0.68257  0.36744  Biso   1.000  C
  C187     1.0000 0.46691  0.67377  0.31330  Biso   1.000  C
  C188     1.0000 0.46603  0.66333  0.19290  Biso   1.000  C
  C189     1.0000 0.49793  0.66169  0.12664  Biso   1.000  C
  C190     1.0000 0.53071  0.67049  0.18078  Biso   1.000  C
  C191     1.0000 0.53158  0.68093  0.30118  Biso   1.000  C
  C192     1.0000 0.49697  0.65027  0.99492  Biso   1.000  C
  O50      1.0000 0.67375  0.75474  0.98642  Biso   1.000  O
  O51      1.0000 0.69772  0.70818  0.87908  Biso   1.000  O
  O52      1.0000 0.30707  0.71689  0.89088  Biso   1.000  O
  O53      1.0000 0.33703  0.75122  0.02839  Biso   1.000  O
  O54      1.0000 0.47037  0.63005  0.95495  Biso   1.000  O
  O55      1.0000 0.52275  0.66063  0.92129  Biso   1.000  O
  Al8      1.0000 0.70776  0.74669  0.11410  Biso   1.000  Al
  O56      1.0000 0.74478  0.74128  0.98920  Biso   1.000  O
  N25      1.0000 0.21409  0.99767  0.76911  Biso   1.000  N
  N26      1.0000 0.19862  0.03165  0.94778  Biso   1.000  N
  N27      1.0000 0.19815  0.96633  0.95260  Biso   1.000  N
  C193     1.0000 0.20862  0.96545  0.83188  Biso   1.000  C
  C194     1.0000 0.20909  0.03078  0.82706  Biso   1.000  C
  C195     1.0000 0.19315  0.99943  0.01055  Biso   1.000  C
  C196     1.0000 0.21367  0.93199  0.77332  Biso   1.000  C
  C197     1.0000 0.21054  0.89989  0.83789  Biso   1.000  C
  C198     1.0000 0.21553  0.86688  0.78010  Biso   1.000  C
  C199     1.0000 0.22365  0.86596  0.65774  Biso   1.000  C
  C200     1.0000 0.22679  0.89806  0.59316  Biso   1.000  C
  C201     1.0000 0.22180  0.93107  0.65096  Biso   1.000  C
  C202     1.0000 0.22911  0.82984  0.59451  Biso   1.000  C
  C203     1.0000 0.21461  0.06335  0.76361  Biso   1.000  C
  C204     1.0000 0.21673  0.06305  0.63845  Biso   1.000  C
  C205     1.0000 0.22219  0.09519  0.57585  Biso   1.000  C
  C206     1.0000 0.22552  0.12763  0.63839  Biso   1.000  C
  C207     1.0000 0.22340  0.12792  0.76355  Biso   1.000  C
  C208     1.0000 0.21794  0.09579  0.82616  Biso   1.000  C
  C209     1.0000 0.23148  0.16279  0.56990  Biso   1.000  C
  C210     1.0000 0.18257  0.00032  0.13256  Biso   1.000  C
  C211     1.0000 0.17377  0.03309  0.18670  Biso   1.000  C
  C212     1.0000 0.16333  0.03397  0.30710  Biso   1.000  C
  C213     1.0000 0.16169  0.00207  0.37336  Biso   1.000  C
  C214     1.0000 0.17049  0.96929  0.31922  Biso   1.000  C
  C215     1.0000 0.18093  0.96842  0.19882  Biso   1.000  C
  C216     1.0000 0.15027  0.00303  0.50508  Biso   1.000  C
  O57      1.0000 0.25474  0.82625  0.51358  Biso   1.000  O
  O58      1.0000 0.20818  0.80228  0.62092  Biso   1.000  O
  O59      1.0000 0.21689  0.19293  0.60912  Biso   1.000  O
  O60      1.0000 0.25122  0.16297  0.47161  Biso   1.000  O
  O61      1.0000 0.13005  0.02963  0.54505  Biso   1.000  O
  O62      1.0000 0.16063  0.97725  0.57871  Biso   1.000  O
  Al9      1.0000 0.24669  0.79224  0.38590  Biso   1.000  Al
  O63      1.0000 0.24128  0.75522  0.51080  Biso   1.000  O
  N28      1.0000 0.71409  0.49767  0.26911  Biso   1.000  N
  N29      1.0000 0.69862  0.53165  0.44778  Biso   1.000  N
  N30      1.0000 0.69815  0.46633  0.45260  Biso   1.000  N
  C217     1.0000 0.70862  0.46545  0.33188  Biso   1.000  C
  C218     1.0000 0.70909  0.53078  0.32706  Biso   1.000  C
  C219     1.0000 0.69315  0.49943  0.51055  Biso   1.000  C
  C220     1.0000 0.71367  0.43199  0.27332  Biso   1.000  C
  C221     1.0000 0.71054  0.39989  0.33789  Biso   1.000  C
  C222     1.0000 0.71553  0.36688  0.28010  Biso   1.000  C
  C223     1.0000 0.72365  0.36596  0.15774  Biso   1.000  C
  C224     1.0000 0.72679  0.39806  0.09316  Biso   1.000  C
  C225     1.0000 0.72180  0.43107  0.15096  Biso   1.000  C
  C226     1.0000 0.72911  0.32984  0.09451  Biso   1.000  C
  C227     1.0000 0.71461  0.56335  0.26361  Biso   1.000  C
  C228     1.0000 0.71673  0.56305  0.13845  Biso   1.000  C
  C229     1.0000 0.72219  0.59519  0.07585  Biso   1.000  C
  C230     1.0000 0.72552  0.62763  0.13839  Biso   1.000  C
  C231     1.0000 0.72340  0.62792  0.26355  Biso   1.000  C
  C232     1.0000 0.71794  0.59579  0.32616  Biso   1.000  C
  C233     1.0000 0.73148  0.66279  0.06990  Biso   1.000  C
  C234     1.0000 0.68257  0.50032  0.63256  Biso   1.000  C
  C235     1.0000 0.67377  0.53309  0.68670  Biso   1.000  C
  C236     1.0000 0.66333  0.53397  0.80710  Biso   1.000  C
  C237     1.0000 0.66169  0.50207  0.87336  Biso   1.000  C
  C238     1.0000 0.67049  0.46929  0.81922  Biso   1.000  C
  C239     1.0000 0.68093  0.46842  0.69882  Biso   1.000  C
  C240     1.0000 0.65027  0.50303  0.00508  Biso   1.000  C
  O64      1.0000 0.75474  0.32625  0.01358  Biso   1.000  O
  O65      1.0000 0.70818  0.30228  0.12092  Biso   1.000  O
  O66      1.0000 0.71689  0.69293  0.10912  Biso   1.000  O
  O67      1.0000 0.75122  0.66297  0.97161  Biso   1.000  O
  O68      1.0000 0.63005  0.52963  0.04505  Biso   1.000  O
  O69      1.0000 0.66063  0.47725  0.07871  Biso   1.000  O
  Al10     1.0000 0.74669  0.29224  0.88590  Biso   1.000  Al
  O70      1.0000 0.74128  0.25522  0.01080  Biso   1.000  O
  N31      1.0000 0.28591  0.50233  0.26911  Biso   1.000  N
  N32      1.0000 0.30138  0.46835  0.44778  Biso   1.000  N
  N33      1.0000 0.30185  0.53367  0.45260  Biso   1.000  N
  C241     1.0000 0.29138  0.53455  0.33188  Biso   1.000  C
  C242     1.0000 0.29091  0.46922  0.32706  Biso   1.000  C
  C243     1.0000 0.30685  0.50057  0.51055  Biso   1.000  C
  C244     1.0000 0.28633  0.56801  0.27332  Biso   1.000  C
  C245     1.0000 0.28946  0.60011  0.33789  Biso   1.000  C
  C246     1.0000 0.28447  0.63312  0.28010  Biso   1.000  C
  C247     1.0000 0.27635  0.63404  0.15774  Biso   1.000  C
  C248     1.0000 0.27321  0.60194  0.09316  Biso   1.000  C
  C249     1.0000 0.27820  0.56893  0.15096  Biso   1.000  C
  C250     1.0000 0.27089  0.67016  0.09451  Biso   1.000  C
  C251     1.0000 0.28539  0.43665  0.26361  Biso   1.000  C
  C252     1.0000 0.28327  0.43695  0.13845  Biso   1.000  C
  C253     1.0000 0.27781  0.40481  0.07585  Biso   1.000  C
  C254     1.0000 0.27448  0.37237  0.13839  Biso   1.000  C
  C255     1.0000 0.27660  0.37208  0.26355  Biso   1.000  C
  C256     1.0000 0.28206  0.40421  0.32616  Biso   1.000  C
  C257     1.0000 0.26852  0.33721  0.06990  Biso   1.000  C
  C258     1.0000 0.31743  0.49968  0.63256  Biso   1.000  C
  C259     1.0000 0.32623  0.46691  0.68670  Biso   1.000  C
  C260     1.0000 0.33667  0.46603  0.80710  Biso   1.000  C
  C261     1.0000 0.33831  0.49793  0.87336  Biso   1.000  C
  C262     1.0000 0.32951  0.53071  0.81922  Biso   1.000  C
  C263     1.0000 0.31907  0.53158  0.69882  Biso   1.000  C
  C264     1.0000 0.34973  0.49697  0.00508  Biso   1.000  C
  O71      1.0000 0.24526  0.67375  0.01358  Biso   1.000  O
  O72      1.0000 0.29182  0.69772  0.12092  Biso   1.000  O
  O73      1.0000 0.28311  0.30707  0.10912  Biso   1.000  O
  O74      1.0000 0.24878  0.33703  0.97161  Biso   1.000  O
  O75      1.0000 0.36995  0.47037  0.04505  Biso   1.000  O
  O76      1.0000 0.33937  0.52275  0.07871  Biso   1.000  O
  Al11     1.0000 0.25331  0.70776  0.88590  Biso   1.000  Al
  O77      1.0000 0.25872  0.74478  0.01080  Biso   1.000  O
  N34      1.0000 0.78591  0.00233  0.76911  Biso   1.000  N
  N35      1.0000 0.80138  0.96835  0.94778  Biso   1.000  N
  N36      1.0000 0.80185  0.03367  0.95260  Biso   1.000  N
  C265     1.0000 0.79138  0.03455  0.83188  Biso   1.000  C
  C266     1.0000 0.79091  0.96922  0.82706  Biso   1.000  C
  C267     1.0000 0.80685  0.00057  0.01055  Biso   1.000  C
  C268     1.0000 0.78633  0.06801  0.77332  Biso   1.000  C
  C269     1.0000 0.78946  0.10011  0.83789  Biso   1.000  C
  C270     1.0000 0.78447  0.13312  0.78010  Biso   1.000  C
  C271     1.0000 0.77635  0.13404  0.65774  Biso   1.000  C
  C272     1.0000 0.77321  0.10194  0.59316  Biso   1.000  C
  C273     1.0000 0.77820  0.06893  0.65096  Biso   1.000  C
  C274     1.0000 0.77089  0.17016  0.59451  Biso   1.000  C
  C275     1.0000 0.78539  0.93665  0.76361  Biso   1.000  C
  C276     1.0000 0.78327  0.93695  0.63845  Biso   1.000  C
  C277     1.0000 0.77781  0.90481  0.57585  Biso   1.000  C
  C278     1.0000 0.77448  0.87237  0.63839  Biso   1.000  C
  C279     1.0000 0.77660  0.87208  0.76355  Biso   1.000  C
  C280     1.0000 0.78206  0.90421  0.82616  Biso   1.000  C
  C281     1.0000 0.76852  0.83721  0.56990  Biso   1.000  C
  C282     1.0000 0.81743  0.99968  0.13256  Biso   1.000  C
  C283     1.0000 0.82623  0.96691  0.18670  Biso   1.000  C
  C284     1.0000 0.83667  0.96603  0.30710  Biso   1.000  C
  C285     1.0000 0.83831  0.99793  0.37336  Biso   1.000  C
  C286     1.0000 0.82951  0.03071  0.31922  Biso   1.000  C
  C287     1.0000 0.81907  0.03158  0.19882  Biso   1.000  C
  C288     1.0000 0.84973  0.99697  0.50508  Biso   1.000  C
  O78      1.0000 0.74526  0.17375  0.51358  Biso   1.000  O
  O79      1.0000 0.79182  0.19772  0.62092  Biso   1.000  O
  O80      1.0000 0.78311  0.80707  0.60912  Biso   1.000  O
  O81      1.0000 0.74878  0.83703  0.47161  Biso   1.000  O
  O82      1.0000 0.86995  0.97037  0.54505  Biso   1.000  O
  O83      1.0000 0.83937  0.02275  0.57871  Biso   1.000  O
  Al12     1.0000 0.75331  0.20776  0.38590  Biso   1.000  Al
  O84      1.0000 0.75872  0.24478  0.51080  Biso   1.000  O
  N37      1.0000 0.50233  0.21409  0.51911  Biso   1.000  N
  N38      1.0000 0.46835  0.19862  0.69778  Biso   1.000  N
  N39      1.0000 0.53367  0.19815  0.70260  Biso   1.000  N
  C289     1.0000 0.53455  0.20862  0.58188  Biso   1.000  C
  C290     1.0000 0.46922  0.20909  0.57706  Biso   1.000  C
  C291     1.0000 0.50057  0.19315  0.76055  Biso   1.000  C
  C292     1.0000 0.56801  0.21367  0.52332  Biso   1.000  C
  C293     1.0000 0.60011  0.21054  0.58789  Biso   1.000  C
  C294     1.0000 0.63312  0.21553  0.53010  Biso   1.000  C
  C295     1.0000 0.63404  0.22365  0.40774  Biso   1.000  C
  C296     1.0000 0.60194  0.22679  0.34316  Biso   1.000  C
  C297     1.0000 0.56893  0.22180  0.40096  Biso   1.000  C
  C298     1.0000 0.67016  0.22911  0.34451  Biso   1.000  C
  C299     1.0000 0.43665  0.21461  0.51361  Biso   1.000  C
  C300     1.0000 0.43695  0.21673  0.38845  Biso   1.000  C
  C301     1.0000 0.40481  0.22219  0.32585  Biso   1.000  C
  C302     1.0000 0.37237  0.22552  0.38839  Biso   1.000  C
  C303     1.0000 0.37208  0.22340  0.51355  Biso   1.000  C
  C304     1.0000 0.40421  0.21794  0.57616  Biso   1.000  C
  C305     1.0000 0.33721  0.23148  0.31990  Biso   1.000  C
  C306     1.0000 0.49968  0.18257  0.88256  Biso   1.000  C
  C307     1.0000 0.46691  0.17377  0.93670  Biso   1.000  C
  C308     1.0000 0.46603  0.16333  0.05710  Biso   1.000  C
  C309     1.0000 0.49793  0.16169  0.12336  Biso   1.000  C
  C310     1.0000 0.53071  0.17049  0.06922  Biso   1.000  C
  C311     1.0000 0.53158  0.18093  0.94882  Biso   1.000  C
  C312     1.0000 0.49697  0.15027  0.25508  Biso   1.000  C
  O85      1.0000 0.67375  0.25474  0.26358  Biso   1.000  O
  O86      1.0000 0.69772  0.20818  0.37092  Biso   1.000  O
  O87      1.0000 0.30707  0.21689  0.35912  Biso   1.000  O
  O88      1.0000 0.33703  0.25122  0.22161  Biso   1.000  O
  O89      1.0000 0.47037  0.13005  0.29505  Biso   1.000  O
  O90      1.0000 0.52275  0.16063  0.32871  Biso   1.000  O
  Al13     1.0000 0.70776  0.24669  0.13590  Biso   1.000  Al
  O91      1.0000 0.74478  0.24128  0.26080  Biso   1.000  O
  N40      1.0000 0.00233  0.71409  0.01911  Biso   1.000  N
  N41      1.0000 0.96835  0.69862  0.19778  Biso   1.000  N
  N42      1.0000 0.03367  0.69815  0.20260  Biso   1.000  N
  C313     1.0000 0.03455  0.70862  0.08188  Biso   1.000  C
  C314     1.0000 0.96922  0.70909  0.07706  Biso   1.000  C
  C315     1.0000 0.00057  0.69315  0.26055  Biso   1.000  C
  C316     1.0000 0.06801  0.71367  0.02332  Biso   1.000  C
  C317     1.0000 0.10011  0.71054  0.08789  Biso   1.000  C
  C318     1.0000 0.13312  0.71553  0.03010  Biso   1.000  C
  C319     1.0000 0.13404  0.72365  0.90774  Biso   1.000  C
  C320     1.0000 0.10194  0.72679  0.84316  Biso   1.000  C
  C321     1.0000 0.06893  0.72180  0.90096  Biso   1.000  C
  C322     1.0000 0.17016  0.72911  0.84451  Biso   1.000  C
  C323     1.0000 0.93665  0.71461  0.01361  Biso   1.000  C
  C324     1.0000 0.93695  0.71673  0.88845  Biso   1.000  C
  C325     1.0000 0.90481  0.72219  0.82585  Biso   1.000  C
  C326     1.0000 0.87237  0.72552  0.88839  Biso   1.000  C
  C327     1.0000 0.87208  0.72340  0.01355  Biso   1.000  C
  C328     1.0000 0.90421  0.71794  0.07616  Biso   1.000  C
  C329     1.0000 0.83721  0.73148  0.81990  Biso   1.000  C
  C330     1.0000 0.99968  0.68257  0.38256  Biso   1.000  C
  C331     1.0000 0.96691  0.67377  0.43670  Biso   1.000  C
  C332     1.0000 0.96603  0.66333  0.55710  Biso   1.000  C
  C333     1.0000 0.99793  0.66169  0.62336  Biso   1.000  C
  C334     1.0000 0.03071  0.67049  0.56922  Biso   1.000  C
  C335     1.0000 0.03158  0.68093  0.44882  Biso   1.000  C
  C336     1.0000 0.99697  0.65027  0.75508  Biso   1.000  C
  O92      1.0000 0.17375  0.75474  0.76358  Biso   1.000  O
  O93      1.0000 0.19772  0.70818  0.87092  Biso   1.000  O
  O94      1.0000 0.80707  0.71689  0.85912  Biso   1.000  O
  O95      1.0000 0.83703  0.75122  0.72161  Biso   1.000  O
  O96      1.0000 0.97037  0.63005  0.79505  Biso   1.000  O
  O97      1.0000 0.02275  0.66063  0.82871  Biso   1.000  O
  Al14     1.0000 0.20776  0.74669  0.63590  Biso   1.000  Al
  O98      1.0000 0.24478  0.74128  0.76080  Biso   1.000  O
  N43      1.0000 0.99767  0.28591  0.01911  Biso   1.000  N
  N44      1.0000 0.03165  0.30138  0.19778  Biso   1.000  N
  N45      1.0000 0.96633  0.30185  0.20260  Biso   1.000  N
  C337     1.0000 0.96545  0.29138  0.08188  Biso   1.000  C
  C338     1.0000 0.03078  0.29091  0.07706  Biso   1.000  C
  C339     1.0000 0.99943  0.30685  0.26055  Biso   1.000  C
  C340     1.0000 0.93199  0.28633  0.02332  Biso   1.000  C
  C341     1.0000 0.89989  0.28946  0.08789  Biso   1.000  C
  C342     1.0000 0.86688  0.28447  0.03010  Biso   1.000  C
  C343     1.0000 0.86596  0.27635  0.90774  Biso   1.000  C
  C344     1.0000 0.89806  0.27321  0.84316  Biso   1.000  C
  C345     1.0000 0.93107  0.27820  0.90096  Biso   1.000  C
  C346     1.0000 0.82984  0.27089  0.84451  Biso   1.000  C
  C347     1.0000 0.06335  0.28539  0.01361  Biso   1.000  C
  C348     1.0000 0.06305  0.28327  0.88845  Biso   1.000  C
  C349     1.0000 0.09519  0.27781  0.82585  Biso   1.000  C
  C350     1.0000 0.12763  0.27448  0.88839  Biso   1.000  C
  C351     1.0000 0.12792  0.27660  0.01355  Biso   1.000  C
  C352     1.0000 0.09579  0.28206  0.07616  Biso   1.000  C
  C353     1.0000 0.16279  0.26852  0.81990  Biso   1.000  C
  C354     1.0000 0.00032  0.31743  0.38256  Biso   1.000  C
  C355     1.0000 0.03309  0.32623  0.43670  Biso   1.000  C
  C356     1.0000 0.03397  0.33667  0.55710  Biso   1.000  C
  C357     1.0000 0.00207  0.33831  0.62336  Biso   1.000  C
  C358     1.0000 0.96929  0.32951  0.56922  Biso   1.000  C
  C359     1.0000 0.96842  0.31907  0.44882  Biso   1.000  C
  C360     1.0000 0.00303  0.34973  0.75508  Biso   1.000  C
  O99      1.0000 0.82625  0.24526  0.76358  Biso   1.000  O
  O100     1.0000 0.80228  0.29182  0.87092  Biso   1.000  O
  O101     1.0000 0.19293  0.28311  0.85912  Biso   1.000  O
  O102     1.0000 0.16297  0.24878  0.72161  Biso   1.000  O
  O103     1.0000 0.02963  0.36995  0.79505  Biso   1.000  O
  O104     1.0000 0.97725  0.33937  0.82871  Biso   1.000  O
  Al15     1.0000 0.79224  0.25331  0.63590  Biso   1.000  Al
  O105     1.0000 0.75522  0.25872  0.76080  Biso   1.000  O
  N46      1.0000 0.49767  0.78591  0.51911  Biso   1.000  N
  N47      1.0000 0.53165  0.80138  0.69778  Biso   1.000  N
  N48      1.0000 0.46633  0.80185  0.70260  Biso   1.000  N
  C361     1.0000 0.46545  0.79138  0.58188  Biso   1.000  C
  C362     1.0000 0.53078  0.79091  0.57706  Biso   1.000  C
  C363     1.0000 0.49943  0.80685  0.76055  Biso   1.000  C
  C364     1.0000 0.43199  0.78633  0.52332  Biso   1.000  C
  C365     1.0000 0.39989  0.78946  0.58789  Biso   1.000  C
  C366     1.0000 0.36688  0.78447  0.53010  Biso   1.000  C
  C367     1.0000 0.36596  0.77635  0.40774  Biso   1.000  C
  C368     1.0000 0.39806  0.77321  0.34316  Biso   1.000  C
  C369     1.0000 0.43107  0.77820  0.40096  Biso   1.000  C
  C370     1.0000 0.32984  0.77089  0.34451  Biso   1.000  C
  C371     1.0000 0.56335  0.78539  0.51361  Biso   1.000  C
  C372     1.0000 0.56305  0.78327  0.38845  Biso   1.000  C
  C373     1.0000 0.59519  0.77781  0.32585  Biso   1.000  C
  C374     1.0000 0.62763  0.77448  0.38839  Biso   1.000  C
  C375     1.0000 0.62792  0.77660  0.51355  Biso   1.000  C
  C376     1.0000 0.59579  0.78206  0.57616  Biso   1.000  C
  C377     1.0000 0.66279  0.76852  0.31990  Biso   1.000  C
  C378     1.0000 0.50032  0.81743  0.88256  Biso   1.000  C
  C379     1.0000 0.53309  0.82623  0.93670  Biso   1.000  C
  C380     1.0000 0.53397  0.83667  0.05710  Biso   1.000  C
  C381     1.0000 0.50207  0.83831  0.12336  Biso   1.000  C
  C382     1.0000 0.46929  0.82951  0.06922  Biso   1.000  C
  C383     1.0000 0.46842  0.81907  0.94882  Biso   1.000  C
  C384     1.0000 0.50303  0.84973  0.25508  Biso   1.000  C
  O106     1.0000 0.32625  0.74526  0.26358  Biso   1.000  O
  O107     1.0000 0.30228  0.79182  0.37092  Biso   1.000  O
  O108     1.0000 0.69293  0.78311  0.35912  Biso   1.000  O
  O109     1.0000 0.66297  0.74878  0.22161  Biso   1.000  O
  O110     1.0000 0.52963  0.86995  0.29505  Biso   1.000  O
  O111     1.0000 0.47725  0.83937  0.32871  Biso   1.000  O
  Al16     1.0000 0.29224  0.75331  0.13590  Biso   1.000  Al
  O112     1.0000 0.25522  0.75872  0.26080  Biso   1.000  O
