data_image0
_cell_length_a       17.571
_cell_length_b       17.571
_cell_length_c       23.404
_cell_angle_alpha    90
_cell_angle_beta     90
_cell_angle_gamma    90

_symmetry_space_group_name_H-M    "P 1"
_symmetry_int_tables_number       1

loop_
  _symmetry_equiv_pos_as_xyz
  'x, y, z'

loop_
  _atom_site_label
  _atom_site_occupancy
  _atom_site_fract_x
  _atom_site_fract_y
  _atom_site_fract_z
  _atom_site_thermal_displace_type
  _atom_site_B_iso_or_equiv
  _atom_site_type_symbol
  N1       1.0000 0.62010  0.72440  0.43760  Biso   1.000  N
  N2       1.0000 0.38170  0.73870  0.50174  Biso   1.000  N
  C1       1.0000 0.56500  0.69750  0.45610  Biso   1.000  C
  C2       1.0000 0.50080  0.66170  0.47840  Biso   1.000  C
  C3       1.0000 0.43710  0.70550  0.49040  Biso   1.000  C
  C4       1.0000 0.50060  0.57940  0.48930  Biso   1.000  C
  C5       1.0000 0.56350  0.53400  0.47720  Biso   1.000  C
  C6       1.0000 0.43660  0.54310  0.51210  Biso   1.000  C
  C7       1.0000 0.69700  0.78070  0.56580  Biso   1.000  C
  C8       1.0000 0.69260  0.78290  0.62450  Biso   1.000  C
  C9       1.0000 0.77940  0.69300  0.75040  Biso   1.000  C
  C10      1.0000 0.77870  0.69600  0.80830  Biso   1.000  C
  C11      1.0000 0.21720  0.80500  0.37220  Biso   1.000  C
  C12      1.0000 0.21510  0.80750  0.31300  Biso   1.000  C
  H1       1.0000 0.60750  0.55680  0.46090  Biso   1.000  H
  H2       1.0000 0.39220  0.57220  0.52000  Biso   1.000  H
  H3       1.0000 0.65700  0.80410  0.54500  Biso   1.000  H
  H4       1.0000 0.65090  0.80650  0.64330  Biso   1.000  H
  H5       1.0000 0.80080  0.65020  0.73150  Biso   1.000  H
  H6       1.0000 0.80080  0.65430  0.82820  Biso   1.000  H
  H7       1.0000 0.19340  0.84470  0.39310  Biso   1.000  H
  H8       1.0000 0.19030  0.84840  0.29410  Biso   1.000  H
  N3       1.0000 0.87990  0.77560  0.43760  Biso   1.000  N
  N4       1.0000 0.11830  0.76130  0.50174  Biso   1.000  N
  C13      1.0000 0.93500  0.80250  0.45610  Biso   1.000  C
  C14      1.0000 0.99920  0.83830  0.47840  Biso   1.000  C
  C15      1.0000 0.06290  0.79450  0.49040  Biso   1.000  C
  C16      1.0000 0.99940  0.92060  0.48930  Biso   1.000  C
  C17      1.0000 0.93650  0.96600  0.47720  Biso   1.000  C
  C18      1.0000 0.06340  0.95690  0.51210  Biso   1.000  C
  C19      1.0000 0.80300  0.71930  0.56580  Biso   1.000  C
  C20      1.0000 0.80740  0.71710  0.62450  Biso   1.000  C
  C21      1.0000 0.72060  0.80700  0.75040  Biso   1.000  C
  C22      1.0000 0.72130  0.80400  0.80830  Biso   1.000  C
  C23      1.0000 0.28280  0.69500  0.37220  Biso   1.000  C
  C24      1.0000 0.28490  0.69250  0.31300  Biso   1.000  C
  H9       1.0000 0.89250  0.94320  0.46090  Biso   1.000  H
  H10      1.0000 0.10780  0.92780  0.52000  Biso   1.000  H
  H11      1.0000 0.84300  0.69590  0.54500  Biso   1.000  H
  H12      1.0000 0.84910  0.69350  0.64330  Biso   1.000  H
  H13      1.0000 0.69920  0.84980  0.73150  Biso   1.000  H
  H14      1.0000 0.69920  0.84570  0.82820  Biso   1.000  H
  H15      1.0000 0.30660  0.65530  0.39310  Biso   1.000  H
  H16      1.0000 0.30970  0.65160  0.29410  Biso   1.000  H
  N5       1.0000 0.77560  0.62010  0.43760  Biso   1.000  N
  N6       1.0000 0.76130  0.38170  0.50174  Biso   1.000  N
  C25      1.0000 0.80250  0.56500  0.45610  Biso   1.000  C
  C26      1.0000 0.83830  0.50080  0.47840  Biso   1.000  C
  C27      1.0000 0.79450  0.43710  0.49040  Biso   1.000  C
  C28      1.0000 0.92060  0.50060  0.48930  Biso   1.000  C
  C29      1.0000 0.96600  0.56350  0.47720  Biso   1.000  C
  C30      1.0000 0.95690  0.43660  0.51210  Biso   1.000  C
  C31      1.0000 0.71930  0.69700  0.56580  Biso   1.000  C
  C32      1.0000 0.71710  0.69260  0.62450  Biso   1.000  C
  C33      1.0000 0.80700  0.77940  0.75040  Biso   1.000  C
  C34      1.0000 0.80400  0.77870  0.80830  Biso   1.000  C
  C35      1.0000 0.69500  0.21720  0.37220  Biso   1.000  C
  C36      1.0000 0.69250  0.21510  0.31300  Biso   1.000  C
  H17      1.0000 0.94320  0.60750  0.46090  Biso   1.000  H
  H18      1.0000 0.92780  0.39220  0.52000  Biso   1.000  H
  H19      1.0000 0.69590  0.65700  0.54500  Biso   1.000  H
  H20      1.0000 0.69350  0.65090  0.64330  Biso   1.000  H
  H21      1.0000 0.84980  0.80080  0.73150  Biso   1.000  H
  H22      1.0000 0.84570  0.80080  0.82820  Biso   1.000  H
  H23      1.0000 0.65530  0.19340  0.39310  Biso   1.000  H
  H24      1.0000 0.65160  0.19030  0.29410  Biso   1.000  H
  N7       1.0000 0.72440  0.87990  0.43760  Biso   1.000  N
  N8       1.0000 0.73870  0.11830  0.50174  Biso   1.000  N
  C37      1.0000 0.69750  0.93500  0.45610  Biso   1.000  C
  C38      1.0000 0.66170  0.99920  0.47840  Biso   1.000  C
  C39      1.0000 0.70550  0.06290  0.49040  Biso   1.000  C
  C40      1.0000 0.57940  0.99940  0.48930  Biso   1.000  C
  C41      1.0000 0.53400  0.93650  0.47720  Biso   1.000  C
  C42      1.0000 0.54310  0.06340  0.51210  Biso   1.000  C
  C43      1.0000 0.78070  0.80300  0.56580  Biso   1.000  C
  C44      1.0000 0.78290  0.80740  0.62450  Biso   1.000  C
  C45      1.0000 0.69300  0.72060  0.75040  Biso   1.000  C
  C46      1.0000 0.69600  0.72130  0.80830  Biso   1.000  C
  C47      1.0000 0.80500  0.28280  0.37220  Biso   1.000  C
  C48      1.0000 0.80750  0.28490  0.31300  Biso   1.000  C
  H25      1.0000 0.55680  0.89250  0.46090  Biso   1.000  H
  H26      1.0000 0.57220  0.10780  0.52000  Biso   1.000  H
  H27      1.0000 0.80410  0.84300  0.54500  Biso   1.000  H
  H28      1.0000 0.80650  0.84910  0.64330  Biso   1.000  H
  H29      1.0000 0.65020  0.69920  0.73150  Biso   1.000  H
  H30      1.0000 0.65430  0.69920  0.82820  Biso   1.000  H
  H31      1.0000 0.84470  0.30660  0.39310  Biso   1.000  H
  H32      1.0000 0.84840  0.30970  0.29410  Biso   1.000  H
  N9       1.0000 0.37990  0.22440  0.06240  Biso   1.000  N
  N10      1.0000 0.61830  0.23870  0.99826  Biso   1.000  N
  C49      1.0000 0.43500  0.19750  0.04390  Biso   1.000  C
  C50      1.0000 0.49920  0.16170  0.02160  Biso   1.000  C
  C51      1.0000 0.56290  0.20550  0.00960  Biso   1.000  C
  C52      1.0000 0.49940  0.07940  0.01070  Biso   1.000  C
  C53      1.0000 0.43650  0.03400  0.02280  Biso   1.000  C
  C54      1.0000 0.56340  0.04310  0.98790  Biso   1.000  C
  C55      1.0000 0.30300  0.28070  0.93420  Biso   1.000  C
  C56      1.0000 0.30740  0.28290  0.87550  Biso   1.000  C
  C57      1.0000 0.22060  0.19300  0.74960  Biso   1.000  C
  C58      1.0000 0.22130  0.19600  0.69170  Biso   1.000  C
  C59      1.0000 0.78280  0.30500  0.12780  Biso   1.000  C
  C60      1.0000 0.78490  0.30750  0.18700  Biso   1.000  C
  H33      1.0000 0.39250  0.05680  0.03910  Biso   1.000  H
  H34      1.0000 0.60780  0.07220  0.98000  Biso   1.000  H
  H35      1.0000 0.34300  0.30410  0.95500  Biso   1.000  H
  H36      1.0000 0.34910  0.30650  0.85670  Biso   1.000  H
  H37      1.0000 0.19920  0.15020  0.76850  Biso   1.000  H
  H38      1.0000 0.19920  0.15430  0.67180  Biso   1.000  H
  H39      1.0000 0.80660  0.34470  0.10690  Biso   1.000  H
  H40      1.0000 0.80970  0.34840  0.20590  Biso   1.000  H
  N11      1.0000 0.12010  0.27560  0.06240  Biso   1.000  N
  N12      1.0000 0.88170  0.26130  0.99826  Biso   1.000  N
  C61      1.0000 0.06500  0.30250  0.04390  Biso   1.000  C
  C62      1.0000 0.00080  0.33830  0.02160  Biso   1.000  C
  C63      1.0000 0.93710  0.29450  0.00960  Biso   1.000  C
  C64      1.0000 0.00060  0.42060  0.01070  Biso   1.000  C
  C65      1.0000 0.06350  0.46600  0.02280  Biso   1.000  C
  C66      1.0000 0.93660  0.45690  0.98790  Biso   1.000  C
  C67      1.0000 0.19700  0.21930  0.93420  Biso   1.000  C
  C68      1.0000 0.19260  0.21710  0.87550  Biso   1.000  C
  C69      1.0000 0.27940  0.30700  0.74960  Biso   1.000  C
  C70      1.0000 0.27870  0.30400  0.69170  Biso   1.000  C
  C71      1.0000 0.71720  0.19500  0.12780  Biso   1.000  C
  C72      1.0000 0.71510  0.19250  0.18700  Biso   1.000  C
  H41      1.0000 0.10750  0.44320  0.03910  Biso   1.000  H
  H42      1.0000 0.89220  0.42780  0.98000  Biso   1.000  H
  H43      1.0000 0.15700  0.19590  0.95500  Biso   1.000  H
  H44      1.0000 0.15090  0.19350  0.85670  Biso   1.000  H
  H45      1.0000 0.30080  0.34980  0.76850  Biso   1.000  H
  H46      1.0000 0.30080  0.34570  0.67180  Biso   1.000  H
  H47      1.0000 0.69340  0.15530  0.10690  Biso   1.000  H
  H48      1.0000 0.69030  0.15160  0.20590  Biso   1.000  H
  N13      1.0000 0.22440  0.12010  0.06240  Biso   1.000  N
  N14      1.0000 0.23870  0.88170  0.99826  Biso   1.000  N
  C73      1.0000 0.19750  0.06500  0.04390  Biso   1.000  C
  C74      1.0000 0.16170  0.00080  0.02160  Biso   1.000  C
  C75      1.0000 0.20550  0.93710  0.00960  Biso   1.000  C
  C76      1.0000 0.07940  0.00060  0.01070  Biso   1.000  C
  C77      1.0000 0.03400  0.06350  0.02280  Biso   1.000  C
  C78      1.0000 0.04310  0.93660  0.98790  Biso   1.000  C
  C79      1.0000 0.28070  0.19700  0.93420  Biso   1.000  C
  C80      1.0000 0.28290  0.19260  0.87550  Biso   1.000  C
  C81      1.0000 0.19300  0.27940  0.74960  Biso   1.000  C
  C82      1.0000 0.19600  0.27870  0.69170  Biso   1.000  C
  C83      1.0000 0.30500  0.71720  0.12780  Biso   1.000  C
  C84      1.0000 0.30750  0.71510  0.18700  Biso   1.000  C
  H49      1.0000 0.05680  0.10750  0.03910  Biso   1.000  H
  H50      1.0000 0.07220  0.89220  0.98000  Biso   1.000  H
  H51      1.0000 0.30410  0.15700  0.95500  Biso   1.000  H
  H52      1.0000 0.30650  0.15090  0.85670  Biso   1.000  H
  H53      1.0000 0.15020  0.30080  0.76850  Biso   1.000  H
  H54      1.0000 0.15430  0.30080  0.67180  Biso   1.000  H
  H55      1.0000 0.34470  0.69340  0.10690  Biso   1.000  H
  H56      1.0000 0.34840  0.69030  0.20590  Biso   1.000  H
  N15      1.0000 0.27560  0.37990  0.06240  Biso   1.000  N
  N16      1.0000 0.26130  0.61830  0.99826  Biso   1.000  N
  C85      1.0000 0.30250  0.43500  0.04390  Biso   1.000  C
  C86      1.0000 0.33830  0.49920  0.02160  Biso   1.000  C
  C87      1.0000 0.29450  0.56290  0.00960  Biso   1.000  C
  C88      1.0000 0.42060  0.49940  0.01070  Biso   1.000  C
  C89      1.0000 0.46600  0.43650  0.02280  Biso   1.000  C
  C90      1.0000 0.45690  0.56340  0.98790  Biso   1.000  C
  C91      1.0000 0.21930  0.30300  0.93420  Biso   1.000  C
  C92      1.0000 0.21710  0.30740  0.87550  Biso   1.000  C
  C93      1.0000 0.30700  0.22060  0.74960  Biso   1.000  C
  C94      1.0000 0.30400  0.22130  0.69170  Biso   1.000  C
  C95      1.0000 0.19500  0.78280  0.12780  Biso   1.000  C
  C96      1.0000 0.19250  0.78490  0.18700  Biso   1.000  C
  H57      1.0000 0.44320  0.39250  0.03910  Biso   1.000  H
  H58      1.0000 0.42780  0.60780  0.98000  Biso   1.000  H
  H59      1.0000 0.19590  0.34300  0.95500  Biso   1.000  H
  H60      1.0000 0.19350  0.34910  0.85670  Biso   1.000  H
  H61      1.0000 0.34980  0.19920  0.76850  Biso   1.000  H
  H62      1.0000 0.34570  0.19920  0.67180  Biso   1.000  H
  H63      1.0000 0.15530  0.80660  0.10690  Biso   1.000  H
  H64      1.0000 0.15160  0.80970  0.20590  Biso   1.000  H
  N17      1.0000 0.37990  0.27560  0.56240  Biso   1.000  N
  N18      1.0000 0.61830  0.26130  0.49826  Biso   1.000  N
  C97      1.0000 0.43500  0.30250  0.54390  Biso   1.000  C
  C98      1.0000 0.49920  0.33830  0.52160  Biso   1.000  C
  C99      1.0000 0.56290  0.29450  0.50960  Biso   1.000  C
  C100     1.0000 0.49940  0.42060  0.51070  Biso   1.000  C
  C101     1.0000 0.43650  0.46600  0.52280  Biso   1.000  C
  C102     1.0000 0.56340  0.45690  0.48790  Biso   1.000  C
  C103     1.0000 0.30300  0.21930  0.43420  Biso   1.000  C
  C104     1.0000 0.30740  0.21710  0.37550  Biso   1.000  C
  C105     1.0000 0.22060  0.30700  0.24960  Biso   1.000  C
  C106     1.0000 0.22130  0.30400  0.19170  Biso   1.000  C
  C107     1.0000 0.78280  0.19500  0.62780  Biso   1.000  C
  C108     1.0000 0.78490  0.19250  0.68700  Biso   1.000  C
  H65      1.0000 0.39250  0.44320  0.53910  Biso   1.000  H
  H66      1.0000 0.60780  0.42780  0.48000  Biso   1.000  H
  H67      1.0000 0.34300  0.19590  0.45500  Biso   1.000  H
  H68      1.0000 0.34910  0.19350  0.35670  Biso   1.000  H
  H69      1.0000 0.19920  0.34980  0.26850  Biso   1.000  H
  H70      1.0000 0.19920  0.34570  0.17180  Biso   1.000  H
  H71      1.0000 0.80660  0.15530  0.60690  Biso   1.000  H
  H72      1.0000 0.80970  0.15160  0.70590  Biso   1.000  H
  N19      1.0000 0.12010  0.22440  0.56240  Biso   1.000  N
  N20      1.0000 0.88170  0.23870  0.49826  Biso   1.000  N
  C109     1.0000 0.06500  0.19750  0.54390  Biso   1.000  C
  C110     1.0000 0.00080  0.16170  0.52160  Biso   1.000  C
  C111     1.0000 0.93710  0.20550  0.50960  Biso   1.000  C
  C112     1.0000 0.00060  0.07940  0.51070  Biso   1.000  C
  C113     1.0000 0.06350  0.03400  0.52280  Biso   1.000  C
  C114     1.0000 0.93660  0.04310  0.48790  Biso   1.000  C
  C115     1.0000 0.19700  0.28070  0.43420  Biso   1.000  C
  C116     1.0000 0.19260  0.28290  0.37550  Biso   1.000  C
  C117     1.0000 0.27940  0.19300  0.24960  Biso   1.000  C
  C118     1.0000 0.27870  0.19600  0.19170  Biso   1.000  C
  C119     1.0000 0.71720  0.30500  0.62780  Biso   1.000  C
  C120     1.0000 0.71510  0.30750  0.68700  Biso   1.000  C
  H73      1.0000 0.10750  0.05680  0.53910  Biso   1.000  H
  H74      1.0000 0.89220  0.07220  0.48000  Biso   1.000  H
  H75      1.0000 0.15700  0.30410  0.45500  Biso   1.000  H
  H76      1.0000 0.15090  0.30650  0.35670  Biso   1.000  H
  H77      1.0000 0.30080  0.15020  0.26850  Biso   1.000  H
  H78      1.0000 0.30080  0.15430  0.17180  Biso   1.000  H
  H79      1.0000 0.69340  0.34470  0.60690  Biso   1.000  H
  H80      1.0000 0.69030  0.34840  0.70590  Biso   1.000  H
  N21      1.0000 0.22440  0.37990  0.56240  Biso   1.000  N
  N22      1.0000 0.23870  0.61830  0.49826  Biso   1.000  N
  C121     1.0000 0.19750  0.43500  0.54390  Biso   1.000  C
  C122     1.0000 0.16170  0.49920  0.52160  Biso   1.000  C
  C123     1.0000 0.20550  0.56290  0.50960  Biso   1.000  C
  C124     1.0000 0.07940  0.49940  0.51070  Biso   1.000  C
  C125     1.0000 0.03400  0.43650  0.52280  Biso   1.000  C
  C126     1.0000 0.04310  0.56340  0.48790  Biso   1.000  C
  C127     1.0000 0.28070  0.30300  0.43420  Biso   1.000  C
  C128     1.0000 0.28290  0.30740  0.37550  Biso   1.000  C
  C129     1.0000 0.19300  0.22060  0.24960  Biso   1.000  C
  C130     1.0000 0.19600  0.22130  0.19170  Biso   1.000  C
  C131     1.0000 0.30500  0.78280  0.62780  Biso   1.000  C
  C132     1.0000 0.30750  0.78490  0.68700  Biso   1.000  C
  H81      1.0000 0.05680  0.39250  0.53910  Biso   1.000  H
  H82      1.0000 0.07220  0.60780  0.48000  Biso   1.000  H
  H83      1.0000 0.30410  0.34300  0.45500  Biso   1.000  H
  H84      1.0000 0.30650  0.34910  0.35670  Biso   1.000  H
  H85      1.0000 0.15020  0.19920  0.26850  Biso   1.000  H
  H86      1.0000 0.15430  0.19920  0.17180  Biso   1.000  H
  H87      1.0000 0.34470  0.80660  0.60690  Biso   1.000  H
  H88      1.0000 0.34840  0.80970  0.70590  Biso   1.000  H
  N23      1.0000 0.27560  0.12010  0.56240  Biso   1.000  N
  N24      1.0000 0.26130  0.88170  0.49826  Biso   1.000  N
  C133     1.0000 0.30250  0.06500  0.54390  Biso   1.000  C
  C134     1.0000 0.33830  0.00080  0.52160  Biso   1.000  C
  C135     1.0000 0.29450  0.93710  0.50960  Biso   1.000  C
  C136     1.0000 0.42060  0.00060  0.51070  Biso   1.000  C
  C137     1.0000 0.46600  0.06350  0.52280  Biso   1.000  C
  C138     1.0000 0.45690  0.93660  0.48790  Biso   1.000  C
  C139     1.0000 0.21930  0.19700  0.43420  Biso   1.000  C
  C140     1.0000 0.21710  0.19260  0.37550  Biso   1.000  C
  C141     1.0000 0.30700  0.27940  0.24960  Biso   1.000  C
  C142     1.0000 0.30400  0.27870  0.19170  Biso   1.000  C
  C143     1.0000 0.19500  0.71720  0.62780  Biso   1.000  C
  C144     1.0000 0.19250  0.71510  0.68700  Biso   1.000  C
  H89      1.0000 0.44320  0.10750  0.53910  Biso   1.000  H
  H90      1.0000 0.42780  0.89220  0.48000  Biso   1.000  H
  H91      1.0000 0.19590  0.15700  0.45500  Biso   1.000  H
  H92      1.0000 0.19350  0.15090  0.35670  Biso   1.000  H
  H93      1.0000 0.34980  0.30080  0.26850  Biso   1.000  H
  H94      1.0000 0.34570  0.30080  0.17180  Biso   1.000  H
  H95      1.0000 0.15530  0.69340  0.60690  Biso   1.000  H
  H96      1.0000 0.15160  0.69030  0.70590  Biso   1.000  H
  N25      1.0000 0.62010  0.77560  0.93760  Biso   1.000  N
  N26      1.0000 0.38170  0.76130  0.00174  Biso   1.000  N
  C145     1.0000 0.56500  0.80250  0.95610  Biso   1.000  C
  C146     1.0000 0.50080  0.83830  0.97840  Biso   1.000  C
  C147     1.0000 0.43710  0.79450  0.99040  Biso   1.000  C
  C148     1.0000 0.50060  0.92060  0.98930  Biso   1.000  C
  C149     1.0000 0.56350  0.96600  0.97720  Biso   1.000  C
  C150     1.0000 0.43660  0.95690  0.01210  Biso   1.000  C
  C151     1.0000 0.69700  0.71930  0.06580  Biso   1.000  C
  C152     1.0000 0.69260  0.71710  0.12450  Biso   1.000  C
  C153     1.0000 0.77940  0.80700  0.25040  Biso   1.000  C
  C154     1.0000 0.77870  0.80400  0.30830  Biso   1.000  C
  C155     1.0000 0.21720  0.69500  0.87220  Biso   1.000  C
  C156     1.0000 0.21510  0.69250  0.81300  Biso   1.000  C
  H97      1.0000 0.60750  0.94320  0.96090  Biso   1.000  H
  H98      1.0000 0.39220  0.92780  0.02000  Biso   1.000  H
  H99      1.0000 0.65700  0.69590  0.04500  Biso   1.000  H
  H100     1.0000 0.65090  0.69350  0.14330  Biso   1.000  H
  H101     1.0000 0.80080  0.84980  0.23150  Biso   1.000  H
  H102     1.0000 0.80080  0.84570  0.32820  Biso   1.000  H
  H103     1.0000 0.19340  0.65530  0.89310  Biso   1.000  H
  H104     1.0000 0.19030  0.65160  0.79410  Biso   1.000  H
  N27      1.0000 0.87990  0.72440  0.93760  Biso   1.000  N
  N28      1.0000 0.11830  0.73870  0.00174  Biso   1.000  N
  C157     1.0000 0.93500  0.69750  0.95610  Biso   1.000  C
  C158     1.0000 0.99920  0.66170  0.97840  Biso   1.000  C
  C159     1.0000 0.06290  0.70550  0.99040  Biso   1.000  C
  C160     1.0000 0.99940  0.57940  0.98930  Biso   1.000  C
  C161     1.0000 0.93650  0.53400  0.97720  Biso   1.000  C
  C162     1.0000 0.06340  0.54310  0.01210  Biso   1.000  C
  C163     1.0000 0.80300  0.78070  0.06580  Biso   1.000  C
  C164     1.0000 0.80740  0.78290  0.12450  Biso   1.000  C
  C165     1.0000 0.72060  0.69300  0.25040  Biso   1.000  C
  C166     1.0000 0.72130  0.69600  0.30830  Biso   1.000  C
  C167     1.0000 0.28280  0.80500  0.87220  Biso   1.000  C
  C168     1.0000 0.28490  0.80750  0.81300  Biso   1.000  C
  H105     1.0000 0.89250  0.55680  0.96090  Biso   1.000  H
  H106     1.0000 0.10780  0.57220  0.02000  Biso   1.000  H
  H107     1.0000 0.84300  0.80410  0.04500  Biso   1.000  H
  H108     1.0000 0.84910  0.80650  0.14330  Biso   1.000  H
  H109     1.0000 0.69920  0.65020  0.23150  Biso   1.000  H
  H110     1.0000 0.69920  0.65430  0.32820  Biso   1.000  H
  H111     1.0000 0.30660  0.84470  0.89310  Biso   1.000  H
  H112     1.0000 0.30970  0.84840  0.79410  Biso   1.000  H
  N29      1.0000 0.77560  0.87990  0.93760  Biso   1.000  N
  N30      1.0000 0.76130  0.11830  0.00174  Biso   1.000  N
  C169     1.0000 0.80250  0.93500  0.95610  Biso   1.000  C
  C170     1.0000 0.83830  0.99920  0.97840  Biso   1.000  C
  C171     1.0000 0.79450  0.06290  0.99040  Biso   1.000  C
  C172     1.0000 0.92060  0.99940  0.98930  Biso   1.000  C
  C173     1.0000 0.96600  0.93650  0.97720  Biso   1.000  C
  C174     1.0000 0.95690  0.06340  0.01210  Biso   1.000  C
  C175     1.0000 0.71930  0.80300  0.06580  Biso   1.000  C
  C176     1.0000 0.71710  0.80740  0.12450  Biso   1.000  C
  C177     1.0000 0.80700  0.72060  0.25040  Biso   1.000  C
  C178     1.0000 0.80400  0.72130  0.30830  Biso   1.000  C
  C179     1.0000 0.69500  0.28280  0.87220  Biso   1.000  C
  C180     1.0000 0.69250  0.28490  0.81300  Biso   1.000  C
  H113     1.0000 0.94320  0.89250  0.96090  Biso   1.000  H
  H114     1.0000 0.92780  0.10780  0.02000  Biso   1.000  H
  H115     1.0000 0.69590  0.84300  0.04500  Biso   1.000  H
  H116     1.0000 0.69350  0.84910  0.14330  Biso   1.000  H
  H117     1.0000 0.84980  0.69920  0.23150  Biso   1.000  H
  H118     1.0000 0.84570  0.69920  0.32820  Biso   1.000  H
  H119     1.0000 0.65530  0.30660  0.89310  Biso   1.000  H
  H120     1.0000 0.65160  0.30970  0.79410  Biso   1.000  H
  N31      1.0000 0.72440  0.62010  0.93760  Biso   1.000  N
  N32      1.0000 0.73870  0.38170  0.00174  Biso   1.000  N
  C181     1.0000 0.69750  0.56500  0.95610  Biso   1.000  C
  C182     1.0000 0.66170  0.50080  0.97840  Biso   1.000  C
  C183     1.0000 0.70550  0.43710  0.99040  Biso   1.000  C
  C184     1.0000 0.57940  0.50060  0.98930  Biso   1.000  C
  C185     1.0000 0.53400  0.56350  0.97720  Biso   1.000  C
  C186     1.0000 0.54310  0.43660  0.01210  Biso   1.000  C
  C187     1.0000 0.78070  0.69700  0.06580  Biso   1.000  C
  C188     1.0000 0.78290  0.69260  0.12450  Biso   1.000  C
  C189     1.0000 0.69300  0.77940  0.25040  Biso   1.000  C
  C190     1.0000 0.69600  0.77870  0.30830  Biso   1.000  C
  C191     1.0000 0.80500  0.21720  0.87220  Biso   1.000  C
  C192     1.0000 0.80750  0.21510  0.81300  Biso   1.000  C
  H121     1.0000 0.55680  0.60750  0.96090  Biso   1.000  H
  H122     1.0000 0.57220  0.39220  0.02000  Biso   1.000  H
  H123     1.0000 0.80410  0.65700  0.04500  Biso   1.000  H
  H124     1.0000 0.80650  0.65090  0.14330  Biso   1.000  H
  H125     1.0000 0.65020  0.80080  0.23150  Biso   1.000  H
  H126     1.0000 0.65430  0.80080  0.32820  Biso   1.000  H
  H127     1.0000 0.84470  0.19340  0.89310  Biso   1.000  H
  H128     1.0000 0.84840  0.19030  0.79410  Biso   1.000  H
  Cd1      1.0000 0.75000  0.75000  0.43627  Biso   1.000  Cd
  N33      1.0000 0.75000  0.75000  0.53680  Biso   1.000  N
  N34      1.0000 0.75000  0.75000  0.83900  Biso   1.000  N
  C193     1.0000 0.75000  0.75000  0.65530  Biso   1.000  C
  C194     1.0000 0.75000  0.75000  0.71990  Biso   1.000  C
  Cd2      1.0000 0.25000  0.25000  0.06373  Biso   1.000  Cd
  N35      1.0000 0.25000  0.25000  0.96320  Biso   1.000  N
  N36      1.0000 0.25000  0.25000  0.66100  Biso   1.000  N
  C195     1.0000 0.25000  0.25000  0.84470  Biso   1.000  C
  C196     1.0000 0.25000  0.25000  0.78010  Biso   1.000  C
  Cd3      1.0000 0.25000  0.25000  0.56373  Biso   1.000  Cd
  N37      1.0000 0.25000  0.25000  0.46320  Biso   1.000  N
  N38      1.0000 0.25000  0.25000  0.16100  Biso   1.000  N
  C197     1.0000 0.25000  0.25000  0.34470  Biso   1.000  C
  C198     1.0000 0.25000  0.25000  0.28010  Biso   1.000  C
  Cd4      1.0000 0.75000  0.75000  0.93627  Biso   1.000  Cd
  N39      1.0000 0.75000  0.75000  0.03680  Biso   1.000  N
  N40      1.0000 0.75000  0.75000  0.33900  Biso   1.000  N
  C199     1.0000 0.75000  0.75000  0.15530  Biso   1.000  C
  C200     1.0000 0.75000  0.75000  0.21990  Biso   1.000  C
  Cd5      1.0000 0.25000  0.75000  0.50000  Biso   1.000  Cd
  Cd6      1.0000 0.75000  0.25000  0.50000  Biso   1.000  Cd
  Cd7      1.0000 0.75000  0.25000  0.00000  Biso   1.000  Cd
  Cd8      1.0000 0.25000  0.75000  0.00000  Biso   1.000  Cd
  N41      1.0000 0.25000  0.75000  0.40070  Biso   1.000  N
  C201     1.0000 0.25000  0.75000  0.28140  Biso   1.000  C
  N42      1.0000 0.75000  0.25000  0.40070  Biso   1.000  N
  C202     1.0000 0.75000  0.25000  0.28140  Biso   1.000  C
  N43      1.0000 0.75000  0.25000  0.09930  Biso   1.000  N
  C203     1.0000 0.75000  0.25000  0.21860  Biso   1.000  C
  N44      1.0000 0.25000  0.75000  0.09930  Biso   1.000  N
  C204     1.0000 0.25000  0.75000  0.21860  Biso   1.000  C
  N45      1.0000 0.75000  0.25000  0.59930  Biso   1.000  N
  C205     1.0000 0.75000  0.25000  0.71860  Biso   1.000  C
  N46      1.0000 0.25000  0.75000  0.59930  Biso   1.000  N
  C206     1.0000 0.25000  0.75000  0.71860  Biso   1.000  C
  N47      1.0000 0.25000  0.75000  0.90070  Biso   1.000  N
  C207     1.0000 0.25000  0.75000  0.78140  Biso   1.000  C
  N48      1.0000 0.75000  0.25000  0.90070  Biso   1.000  N
  C208     1.0000 0.75000  0.25000  0.78140  Biso   1.000  C
