data_VARJEF_clean
_audit_creation_date              2014-07-02
_audit_creation_method            'Materials Studio'
_symmetry_space_group_name_H-M    'P1'
_symmetry_Int_Tables_number       1
_symmetry_cell_setting            triclinic
loop_
_symmetry_equiv_pos_as_xyz
  x,y,z
_cell_length_a                    17.2926
_cell_length_b                    17.2926
_cell_length_c                    22.8962
_cell_angle_alpha                 90.0000
_cell_angle_beta                  90.0000
_cell_angle_gamma                 90.0000
loop_
_atom_site_label
_atom_site_type_symbol
_atom_site_fract_x
_atom_site_fract_y
_atom_site_fract_z
_atom_site_U_iso_or_equiv
_atom_site_adp_type
_atom_site_occupancy
Fe1    Fe    0.00000   0.00000   0.00000   0.01267  Uiso   1.00
Fe2    Fe    0.50000   0.50000   0.50000   0.01267  Uiso   1.00
Fe3    Fe    0.50000   0.00000   0.05156   0.01267  Uiso   1.00
Fe4    Fe    0.00000   0.50000   0.94844   0.01267  Uiso   1.00
Fe5    Fe    0.00000   0.50000   0.44844   0.01267  Uiso   1.00
Fe6    Fe    0.50000   0.00000   0.55156   0.01267  Uiso   1.00
Fe7    Fe    0.50000   0.50000   0.00000   0.01267  Uiso   1.00
Fe8    Fe    0.00000   0.00000   0.50000   0.01267  Uiso   1.00
H1     H     0.85990   0.82160   0.97820   0.01267  Uiso   1.00
H2     H     0.85980   0.68910   0.96140   0.01267  Uiso   1.00
H3     H     0.63940   0.67640   0.01820   0.01267  Uiso   1.00
H4     H     0.63690   0.80850   0.03200   0.01267  Uiso   1.00
H5     H     0.10210   0.95100   0.89580   0.01267  Uiso   1.00
H6     H     0.10390   0.94630   0.79440   0.01267  Uiso   1.00
H7     H     0.06820   0.90440   0.70500   0.01267  Uiso   1.00
H8     H     0.06750   0.90870   0.60530   0.01267  Uiso   1.00
H9     H     0.55960   0.90410   0.94640   0.01267  Uiso   1.00
H10    H     0.56180   0.90010   0.84550   0.01267  Uiso   1.00
H11    H     0.60240   0.94350   0.75660   0.01267  Uiso   1.00
H12    H     0.59930   0.94480   0.65590   0.01267  Uiso   1.00
H13    H     0.14010   0.17840   0.97820   0.01267  Uiso   1.00
H14    H     0.14020   0.31090   0.96140   0.01267  Uiso   1.00
H15    H     0.36060   0.32360   0.01820   0.01267  Uiso   1.00
H16    H     0.36310   0.19150   0.03200   0.01267  Uiso   1.00
H17    H     0.89790   0.04900   0.89580   0.01267  Uiso   1.00
H18    H     0.89610   0.05370   0.79440   0.01267  Uiso   1.00
H19    H     0.93180   0.09560   0.70500   0.01267  Uiso   1.00
H20    H     0.93250   0.09130   0.60530   0.01267  Uiso   1.00
H21    H     0.44040   0.09590   0.94640   0.01267  Uiso   1.00
H22    H     0.43820   0.09990   0.84550   0.01267  Uiso   1.00
H23    H     0.39760   0.05650   0.75660   0.01267  Uiso   1.00
H24    H     0.40070   0.05520   0.65590   0.01267  Uiso   1.00
H25    H     0.82160   0.14010   0.02180   0.01267  Uiso   1.00
H26    H     0.68910   0.14020   0.03860   0.01267  Uiso   1.00
H27    H     0.67640   0.36060   0.98180   0.01267  Uiso   1.00
H28    H     0.80850   0.36310   0.96800   0.01267  Uiso   1.00
H29    H     0.95100   0.89790   0.10420   0.01267  Uiso   1.00
H30    H     0.94630   0.89610   0.20560   0.01267  Uiso   1.00
H31    H     0.90440   0.93180   0.29500   0.01267  Uiso   1.00
H32    H     0.90870   0.93250   0.39470   0.01267  Uiso   1.00
H33    H     0.90410   0.44040   0.05360   0.01267  Uiso   1.00
H34    H     0.90010   0.43820   0.15450   0.01267  Uiso   1.00
H35    H     0.94350   0.39760   0.24340   0.01267  Uiso   1.00
H36    H     0.94480   0.40070   0.34410   0.01267  Uiso   1.00
H37    H     0.17840   0.85990   0.02180   0.01267  Uiso   1.00
H38    H     0.31090   0.85980   0.03860   0.01267  Uiso   1.00
H39    H     0.32360   0.63940   0.98180   0.01267  Uiso   1.00
H40    H     0.19150   0.63690   0.96800   0.01267  Uiso   1.00
H41    H     0.04900   0.10210   0.10420   0.01267  Uiso   1.00
H42    H     0.05370   0.10390   0.20560   0.01267  Uiso   1.00
H43    H     0.09560   0.06820   0.29500   0.01267  Uiso   1.00
H44    H     0.09130   0.06750   0.39470   0.01267  Uiso   1.00
H45    H     0.09590   0.55960   0.05360   0.01267  Uiso   1.00
H46    H     0.09990   0.56180   0.15450   0.01267  Uiso   1.00
H47    H     0.05650   0.60240   0.24340   0.01267  Uiso   1.00
H48    H     0.05520   0.59930   0.34410   0.01267  Uiso   1.00
H49    H     0.64010   0.32160   0.52180   0.01267  Uiso   1.00
H50    H     0.64020   0.18910   0.53860   0.01267  Uiso   1.00
H51    H     0.86060   0.17640   0.48180   0.01267  Uiso   1.00
H52    H     0.86310   0.30850   0.46800   0.01267  Uiso   1.00
H53    H     0.39790   0.45100   0.60420   0.01267  Uiso   1.00
H54    H     0.39610   0.44630   0.70560   0.01267  Uiso   1.00
H55    H     0.43180   0.40440   0.79500   0.01267  Uiso   1.00
H56    H     0.43250   0.40870   0.89470   0.01267  Uiso   1.00
H57    H     0.94040   0.40410   0.55360   0.01267  Uiso   1.00
H58    H     0.93820   0.40010   0.65450   0.01267  Uiso   1.00
H59    H     0.89760   0.44350   0.74340   0.01267  Uiso   1.00
H60    H     0.90070   0.44480   0.84410   0.01267  Uiso   1.00
H61    H     0.35990   0.67840   0.52180   0.01267  Uiso   1.00
H62    H     0.35980   0.81090   0.53860   0.01267  Uiso   1.00
H63    H     0.13940   0.82360   0.48180   0.01267  Uiso   1.00
H64    H     0.13690   0.69150   0.46800   0.01267  Uiso   1.00
H65    H     0.60210   0.54900   0.60420   0.01267  Uiso   1.00
H66    H     0.60390   0.55370   0.70560   0.01267  Uiso   1.00
H67    H     0.56820   0.59560   0.79500   0.01267  Uiso   1.00
H68    H     0.56750   0.59130   0.89470   0.01267  Uiso   1.00
H69    H     0.05960   0.59590   0.55360   0.01267  Uiso   1.00
H70    H     0.06180   0.59990   0.65450   0.01267  Uiso   1.00
H71    H     0.10240   0.55650   0.74340   0.01267  Uiso   1.00
H72    H     0.09930   0.55520   0.84410   0.01267  Uiso   1.00
H73    H     0.67840   0.64010   0.47820   0.01267  Uiso   1.00
H74    H     0.81090   0.64020   0.46140   0.01267  Uiso   1.00
H75    H     0.82360   0.86060   0.51820   0.01267  Uiso   1.00
H76    H     0.69150   0.86310   0.53200   0.01267  Uiso   1.00
H77    H     0.54900   0.39790   0.39580   0.01267  Uiso   1.00
H78    H     0.55370   0.39610   0.29440   0.01267  Uiso   1.00
H79    H     0.59560   0.43180   0.20500   0.01267  Uiso   1.00
H80    H     0.59130   0.43250   0.10530   0.01267  Uiso   1.00
H81    H     0.59590   0.94040   0.44640   0.01267  Uiso   1.00
H82    H     0.59990   0.93820   0.34550   0.01267  Uiso   1.00
H83    H     0.55650   0.89760   0.25660   0.01267  Uiso   1.00
H84    H     0.55520   0.90070   0.15590   0.01267  Uiso   1.00
H85    H     0.32160   0.35990   0.47820   0.01267  Uiso   1.00
H86    H     0.18910   0.35980   0.46140   0.01267  Uiso   1.00
H87    H     0.17640   0.13940   0.51820   0.01267  Uiso   1.00
H88    H     0.30850   0.13690   0.53200   0.01267  Uiso   1.00
H89    H     0.45100   0.60210   0.39580   0.01267  Uiso   1.00
H90    H     0.44630   0.60390   0.29440   0.01267  Uiso   1.00
H91    H     0.40440   0.56820   0.20500   0.01267  Uiso   1.00
H92    H     0.40870   0.56750   0.10530   0.01267  Uiso   1.00
H93    H     0.40410   0.05960   0.44640   0.01267  Uiso   1.00
H94    H     0.40010   0.06180   0.34550   0.01267  Uiso   1.00
H95    H     0.44350   0.10240   0.25660   0.01267  Uiso   1.00
H96    H     0.44480   0.09930   0.15590   0.01267  Uiso   1.00
C1     C     0.81715   0.95683   0.00895   0.01267  Uiso   1.00
C2     C     0.74865   0.91475   0.01691   0.01267  Uiso   1.00
C3     C     0.68097   0.95173   0.03517   0.01267  Uiso   1.00
C4     C     0.74920   0.83199   0.00670   0.01267  Uiso   1.00
C5     C     0.81412   0.79295   0.98585   0.01267  Uiso   1.00
C6     C     0.81439   0.71355   0.97578   0.01267  Uiso   1.00
C7     C     0.74946   0.67015   0.98717   0.01267  Uiso   1.00
C8     C     0.68385   0.70626   0.00904   0.01267  Uiso   1.00
C9     C     0.68293   0.78479   0.01805   0.01267  Uiso   1.00
C10    C     0.74932   0.58375   0.97789   0.01267  Uiso   1.00
C11    C     0.68313   0.54233   0.98916   0.01267  Uiso   1.00
C12    C     0.81838   0.54680   0.96251   0.01267  Uiso   1.00
C13    C     0.05929   0.97109   0.87464   0.01267  Uiso   1.00
C14    C     0.06107   0.96893   0.81396   0.01267  Uiso   1.00
C15    C     0.04022   0.94396   0.68544   0.01267  Uiso   1.00
C16    C     0.03899   0.94667   0.62616   0.01267  Uiso   1.00
C17    C     0.53462   0.94432   0.92539   0.01267  Uiso   1.00
C18    C     0.53626   0.94140   0.86502   0.01267  Uiso   1.00
C19    C     0.56003   0.96701   0.73707   0.01267  Uiso   1.00
C20    C     0.55790   0.96770   0.67698   0.01267  Uiso   1.00
C21    C     0.18285   0.04317   0.00895   0.01267  Uiso   1.00
C22    C     0.25135   0.08525   0.01691   0.01267  Uiso   1.00
C23    C     0.31903   0.04827   0.03517   0.01267  Uiso   1.00
C24    C     0.25080   0.16801   0.00670   0.01267  Uiso   1.00
C25    C     0.18588   0.20705   0.98585   0.01267  Uiso   1.00
C26    C     0.18561   0.28645   0.97578   0.01267  Uiso   1.00
C27    C     0.25054   0.32985   0.98717   0.01267  Uiso   1.00
C28    C     0.31615   0.29374   0.00904   0.01267  Uiso   1.00
C29    C     0.31707   0.21521   0.01805   0.01267  Uiso   1.00
C30    C     0.25068   0.41625   0.97789   0.01267  Uiso   1.00
C31    C     0.31687   0.45767   0.98916   0.01267  Uiso   1.00
C32    C     0.18162   0.45320   0.96251   0.01267  Uiso   1.00
C33    C     0.94071   0.02891   0.87464   0.01267  Uiso   1.00
C34    C     0.93893   0.03107   0.81396   0.01267  Uiso   1.00
C35    C     0.95978   0.05604   0.68544   0.01267  Uiso   1.00
C36    C     0.96101   0.05333   0.62616   0.01267  Uiso   1.00
C37    C     0.46538   0.05568   0.92539   0.01267  Uiso   1.00
C38    C     0.46374   0.05860   0.86502   0.01267  Uiso   1.00
C39    C     0.43997   0.03299   0.73707   0.01267  Uiso   1.00
C40    C     0.44210   0.03230   0.67698   0.01267  Uiso   1.00
C41    C     0.95683   0.18285   0.99105   0.01267  Uiso   1.00
C42    C     0.91475   0.25135   0.98309   0.01267  Uiso   1.00
C43    C     0.95173   0.31903   0.96483   0.01267  Uiso   1.00
C44    C     0.83199   0.25080   0.99330   0.01267  Uiso   1.00
C45    C     0.79295   0.18588   0.01415   0.01267  Uiso   1.00
C46    C     0.71355   0.18561   0.02422   0.01267  Uiso   1.00
C47    C     0.67015   0.25054   0.01283   0.01267  Uiso   1.00
C48    C     0.70626   0.31615   0.99096   0.01267  Uiso   1.00
C49    C     0.78479   0.31707   0.98195   0.01267  Uiso   1.00
C50    C     0.58375   0.25068   0.02211   0.01267  Uiso   1.00
C51    C     0.54233   0.31687   0.01084   0.01267  Uiso   1.00
C52    C     0.54680   0.18162   0.03749   0.01267  Uiso   1.00
C53    C     0.97109   0.94071   0.12536   0.01267  Uiso   1.00
C54    C     0.96893   0.93893   0.18604   0.01267  Uiso   1.00
C55    C     0.94396   0.95978   0.31456   0.01267  Uiso   1.00
C56    C     0.94667   0.96101   0.37384   0.01267  Uiso   1.00
C57    C     0.94432   0.46538   0.07461   0.01267  Uiso   1.00
C58    C     0.94140   0.46374   0.13498   0.01267  Uiso   1.00
C59    C     0.96701   0.43997   0.26293   0.01267  Uiso   1.00
C60    C     0.96770   0.44210   0.32302   0.01267  Uiso   1.00
C61    C     0.04317   0.81715   0.99105   0.01267  Uiso   1.00
C62    C     0.08525   0.74865   0.98309   0.01267  Uiso   1.00
C63    C     0.04827   0.68097   0.96483   0.01267  Uiso   1.00
C64    C     0.16801   0.74920   0.99330   0.01267  Uiso   1.00
C65    C     0.20705   0.81412   0.01415   0.01267  Uiso   1.00
C66    C     0.28645   0.81439   0.02422   0.01267  Uiso   1.00
C67    C     0.32985   0.74946   0.01283   0.01267  Uiso   1.00
C68    C     0.29374   0.68385   0.99096   0.01267  Uiso   1.00
C69    C     0.21521   0.68293   0.98195   0.01267  Uiso   1.00
C70    C     0.41625   0.74932   0.02211   0.01267  Uiso   1.00
C71    C     0.45767   0.68313   0.01084   0.01267  Uiso   1.00
C72    C     0.45320   0.81838   0.03749   0.01267  Uiso   1.00
C73    C     0.02891   0.05929   0.12536   0.01267  Uiso   1.00
C74    C     0.03107   0.06107   0.18604   0.01267  Uiso   1.00
C75    C     0.05604   0.04022   0.31456   0.01267  Uiso   1.00
C76    C     0.05333   0.03899   0.37384   0.01267  Uiso   1.00
C77    C     0.05568   0.53462   0.07461   0.01267  Uiso   1.00
C78    C     0.05860   0.53626   0.13498   0.01267  Uiso   1.00
C79    C     0.03299   0.56003   0.26293   0.01267  Uiso   1.00
C80    C     0.03230   0.55790   0.32302   0.01267  Uiso   1.00
C81    C     0.68285   0.45683   0.49105   0.01267  Uiso   1.00
C82    C     0.75135   0.41475   0.48309   0.01267  Uiso   1.00
C83    C     0.81903   0.45173   0.46483   0.01267  Uiso   1.00
C84    C     0.75080   0.33199   0.49330   0.01267  Uiso   1.00
C85    C     0.68588   0.29295   0.51415   0.01267  Uiso   1.00
C86    C     0.68561   0.21355   0.52422   0.01267  Uiso   1.00
C87    C     0.75054   0.17015   0.51283   0.01267  Uiso   1.00
C88    C     0.81615   0.20626   0.49096   0.01267  Uiso   1.00
C89    C     0.81707   0.28479   0.48195   0.01267  Uiso   1.00
C90    C     0.75068   0.08375   0.52211   0.01267  Uiso   1.00
C91    C     0.81687   0.04233   0.51084   0.01267  Uiso   1.00
C92    C     0.68162   0.04680   0.53749   0.01267  Uiso   1.00
C93    C     0.44071   0.47109   0.62536   0.01267  Uiso   1.00
C94    C     0.43893   0.46893   0.68604   0.01267  Uiso   1.00
C95    C     0.45978   0.44396   0.81456   0.01267  Uiso   1.00
C96    C     0.46101   0.44667   0.87384   0.01267  Uiso   1.00
C97    C     0.96538   0.44432   0.57461   0.01267  Uiso   1.00
C98    C     0.96374   0.44140   0.63498   0.01267  Uiso   1.00
C99    C     0.93997   0.46701   0.76293   0.01267  Uiso   1.00
C100   C     0.94210   0.46770   0.82302   0.01267  Uiso   1.00
C101   C     0.31715   0.54317   0.49105   0.01267  Uiso   1.00
C102   C     0.24865   0.58525   0.48309   0.01267  Uiso   1.00
C103   C     0.18097   0.54827   0.46483   0.01267  Uiso   1.00
C104   C     0.24920   0.66801   0.49330   0.01267  Uiso   1.00
C105   C     0.31412   0.70705   0.51415   0.01267  Uiso   1.00
C106   C     0.31439   0.78645   0.52422   0.01267  Uiso   1.00
C107   C     0.24946   0.82985   0.51283   0.01267  Uiso   1.00
C108   C     0.18385   0.79374   0.49096   0.01267  Uiso   1.00
C109   C     0.18293   0.71521   0.48195   0.01267  Uiso   1.00
C110   C     0.24932   0.91625   0.52211   0.01267  Uiso   1.00
C111   C     0.18313   0.95767   0.51084   0.01267  Uiso   1.00
C112   C     0.31838   0.95320   0.53749   0.01267  Uiso   1.00
C113   C     0.55929   0.52891   0.62536   0.01267  Uiso   1.00
C114   C     0.56107   0.53107   0.68604   0.01267  Uiso   1.00
C115   C     0.54022   0.55604   0.81456   0.01267  Uiso   1.00
C116   C     0.53899   0.55333   0.87384   0.01267  Uiso   1.00
C117   C     0.03462   0.55568   0.57461   0.01267  Uiso   1.00
C118   C     0.03626   0.55860   0.63498   0.01267  Uiso   1.00
C119   C     0.06003   0.53299   0.76293   0.01267  Uiso   1.00
C120   C     0.05790   0.53230   0.82302   0.01267  Uiso   1.00
C121   C     0.54317   0.68285   0.50895   0.01267  Uiso   1.00
C122   C     0.58525   0.75135   0.51691   0.01267  Uiso   1.00
C123   C     0.54827   0.81903   0.53517   0.01267  Uiso   1.00
C124   C     0.66801   0.75080   0.50670   0.01267  Uiso   1.00
C125   C     0.70705   0.68588   0.48585   0.01267  Uiso   1.00
C126   C     0.78645   0.68561   0.47578   0.01267  Uiso   1.00
C127   C     0.82985   0.75054   0.48717   0.01267  Uiso   1.00
C128   C     0.79374   0.81615   0.50904   0.01267  Uiso   1.00
C129   C     0.71521   0.81707   0.51805   0.01267  Uiso   1.00
C130   C     0.91625   0.75068   0.47789   0.01267  Uiso   1.00
C131   C     0.95767   0.81687   0.48916   0.01267  Uiso   1.00
C132   C     0.95320   0.68162   0.46251   0.01267  Uiso   1.00
C133   C     0.52891   0.44071   0.37464   0.01267  Uiso   1.00
C134   C     0.53107   0.43893   0.31396   0.01267  Uiso   1.00
C135   C     0.55604   0.45978   0.18544   0.01267  Uiso   1.00
C136   C     0.55333   0.46101   0.12616   0.01267  Uiso   1.00
C137   C     0.55568   0.96538   0.42539   0.01267  Uiso   1.00
C138   C     0.55860   0.96374   0.36502   0.01267  Uiso   1.00
C139   C     0.53299   0.93997   0.23707   0.01267  Uiso   1.00
C140   C     0.53230   0.94210   0.17698   0.01267  Uiso   1.00
C141   C     0.45683   0.31715   0.50895   0.01267  Uiso   1.00
C142   C     0.41475   0.24865   0.51691   0.01267  Uiso   1.00
C143   C     0.45173   0.18097   0.53517   0.01267  Uiso   1.00
C144   C     0.33199   0.24920   0.50670   0.01267  Uiso   1.00
C145   C     0.29295   0.31412   0.48585   0.01267  Uiso   1.00
C146   C     0.21355   0.31439   0.47578   0.01267  Uiso   1.00
C147   C     0.17015   0.24946   0.48717   0.01267  Uiso   1.00
C148   C     0.20626   0.18385   0.50904   0.01267  Uiso   1.00
C149   C     0.28479   0.18293   0.51805   0.01267  Uiso   1.00
C150   C     0.08375   0.24932   0.47789   0.01267  Uiso   1.00
C151   C     0.04233   0.18313   0.48916   0.01267  Uiso   1.00
C152   C     0.04680   0.31838   0.46251   0.01267  Uiso   1.00
C153   C     0.47109   0.55929   0.37464   0.01267  Uiso   1.00
C154   C     0.46893   0.56107   0.31396   0.01267  Uiso   1.00
C155   C     0.44396   0.54022   0.18544   0.01267  Uiso   1.00
C156   C     0.44667   0.53899   0.12616   0.01267  Uiso   1.00
C157   C     0.44432   0.03462   0.42539   0.01267  Uiso   1.00
C158   C     0.44140   0.03626   0.36502   0.01267  Uiso   1.00
C159   C     0.46701   0.06003   0.23707   0.01267  Uiso   1.00
C160   C     0.46770   0.05790   0.17698   0.01267  Uiso   1.00
C161   C     0.50000   0.00000   0.83308   0.01267  Uiso   1.00
C162   C     0.50000   0.00000   0.76901   0.01267  Uiso   1.00
C163   C     0.00000   0.50000   0.16692   0.01267  Uiso   1.00
C164   C     0.00000   0.50000   0.23099   0.01267  Uiso   1.00
C165   C     0.00000   0.50000   0.66692   0.01267  Uiso   1.00
C166   C     0.00000   0.50000   0.73099   0.01267  Uiso   1.00
C167   C     0.50000   0.00000   0.33308   0.01267  Uiso   1.00
C168   C     0.50000   0.00000   0.26901   0.01267  Uiso   1.00
C169   C     0.00000   0.00000   0.78238   0.01267  Uiso   1.00
C170   C     0.00000   0.00000   0.71787   0.01267  Uiso   1.00
C171   C     0.00000   0.00000   0.21762   0.01267  Uiso   1.00
C172   C     0.00000   0.00000   0.28213   0.01267  Uiso   1.00
C173   C     0.50000   0.50000   0.71762   0.01267  Uiso   1.00
C174   C     0.50000   0.50000   0.78213   0.01267  Uiso   1.00
C175   C     0.50000   0.50000   0.28238   0.01267  Uiso   1.00
C176   C     0.50000   0.50000   0.21787   0.01267  Uiso   1.00
N1     N     0.87685   0.98464   0.00123   0.01267  Uiso   1.00
N2     N     0.62214   0.97643   0.04989   0.01267  Uiso   1.00
N3     N     0.87833   0.52148   0.94930   0.01267  Uiso   1.00
N4     N     0.62315   0.51431   0.99929   0.01267  Uiso   1.00
N5     N     0.12315   0.01536   0.00123   0.01267  Uiso   1.00
N6     N     0.37786   0.02357   0.04989   0.01267  Uiso   1.00
N7     N     0.12167   0.47852   0.94930   0.01267  Uiso   1.00
N8     N     0.37685   0.48569   0.99929   0.01267  Uiso   1.00
N9     N     0.98464   0.12315   0.99877   0.01267  Uiso   1.00
N10    N     0.97643   0.37786   0.95011   0.01267  Uiso   1.00
N11    N     0.52148   0.12167   0.05070   0.01267  Uiso   1.00
N12    N     0.51431   0.37685   0.00071   0.01267  Uiso   1.00
N13    N     0.01536   0.87685   0.99877   0.01267  Uiso   1.00
N14    N     0.02357   0.62214   0.95011   0.01267  Uiso   1.00
N15    N     0.47852   0.87833   0.05070   0.01267  Uiso   1.00
N16    N     0.48569   0.62315   0.00071   0.01267  Uiso   1.00
N17    N     0.62315   0.48464   0.49877   0.01267  Uiso   1.00
N18    N     0.87786   0.47643   0.45011   0.01267  Uiso   1.00
N19    N     0.62167   0.02148   0.55070   0.01267  Uiso   1.00
N20    N     0.87685   0.01431   0.50071   0.01267  Uiso   1.00
N21    N     0.37685   0.51536   0.49877   0.01267  Uiso   1.00
N22    N     0.12214   0.52357   0.45011   0.01267  Uiso   1.00
N23    N     0.37833   0.97852   0.55070   0.01267  Uiso   1.00
N24    N     0.12315   0.98569   0.50071   0.01267  Uiso   1.00
N25    N     0.51536   0.62315   0.50123   0.01267  Uiso   1.00
N26    N     0.52357   0.87786   0.54989   0.01267  Uiso   1.00
N27    N     0.97852   0.62167   0.44930   0.01267  Uiso   1.00
N28    N     0.98569   0.87685   0.49929   0.01267  Uiso   1.00
N29    N     0.48464   0.37685   0.50123   0.01267  Uiso   1.00
N30    N     0.47643   0.12214   0.54989   0.01267  Uiso   1.00
N31    N     0.02148   0.37833   0.44930   0.01267  Uiso   1.00
N32    N     0.01431   0.12315   0.49929   0.01267  Uiso   1.00
N33    N     0.50000   0.00000   0.95595   0.01267  Uiso   1.00
N34    N     0.50000   0.00000   0.64632   0.01267  Uiso   1.00
N35    N     0.00000   0.50000   0.04405   0.01267  Uiso   1.00
N36    N     0.00000   0.50000   0.35368   0.01267  Uiso   1.00
N37    N     0.00000   0.50000   0.54405   0.01267  Uiso   1.00
N38    N     0.00000   0.50000   0.85368   0.01267  Uiso   1.00
N39    N     0.50000   0.00000   0.45595   0.01267  Uiso   1.00
N40    N     0.50000   0.00000   0.14632   0.01267  Uiso   1.00
N41    N     0.00000   0.00000   0.90473   0.01267  Uiso   1.00
N42    N     0.00000   0.00000   0.59600   0.01267  Uiso   1.00
N43    N     0.00000   0.00000   0.09527   0.01267  Uiso   1.00
N44    N     0.00000   0.00000   0.40400   0.01267  Uiso   1.00
N45    N     0.50000   0.50000   0.59527   0.01267  Uiso   1.00
N46    N     0.50000   0.50000   0.90400   0.01267  Uiso   1.00
N47    N     0.50000   0.50000   0.40473   0.01267  Uiso   1.00
N48    N     0.50000   0.50000   0.09600   0.01267  Uiso   1.00
