data_VARREL_clean
_audit_creation_date              2014-07-02
_audit_creation_method            'Materials Studio'
_symmetry_space_group_name_H-M    'P1'
_symmetry_Int_Tables_number       1
_symmetry_cell_setting            triclinic
loop_
_symmetry_equiv_pos_as_xyz
  x,y,z
_cell_length_a                    9.2720
_cell_length_b                    9.2720
_cell_length_c                    17.7160
_cell_angle_alpha                 90.0000
_cell_angle_beta                  90.0000
_cell_angle_gamma                 120.0000
loop_
_atom_site_label
_atom_site_type_symbol
_atom_site_fract_x
_atom_site_fract_y
_atom_site_fract_z
_atom_site_U_iso_or_equiv
_atom_site_adp_type
_atom_site_occupancy
La1    La    0.33333   0.66666   0.75000   0.01267  Uiso   1.00
La2    La    0.66667   0.33334   0.25000   0.01267  Uiso   1.00
Gd1    Gd    0.00000   0.00000   0.00000   0.01267  Uiso   1.00
Gd2    Gd    0.00000   0.00000   0.50000   0.01267  Uiso   1.00
H1     H     0.57350   0.59980   0.91810   0.01267  Uiso   1.00
H2     H     0.50950   0.67760   0.97650   0.01267  Uiso   1.00
H3     H     0.02630   0.42650   0.91810   0.01267  Uiso   1.00
H4     H     0.16810   0.49050   0.97650   0.01267  Uiso   1.00
H5     H     0.40020   0.97370   0.91810   0.01267  Uiso   1.00
H6     H     0.32240   0.83190   0.97650   0.01267  Uiso   1.00
H7     H     0.57350   0.59980   0.58190   0.01267  Uiso   1.00
H8     H     0.50950   0.67760   0.52350   0.01267  Uiso   1.00
H9     H     0.02630   0.42650   0.58190   0.01267  Uiso   1.00
H10    H     0.16810   0.49050   0.52350   0.01267  Uiso   1.00
H11    H     0.40020   0.97370   0.58190   0.01267  Uiso   1.00
H12    H     0.32240   0.83190   0.52350   0.01267  Uiso   1.00
H13    H     0.97370   0.40020   0.08190   0.01267  Uiso   1.00
H14    H     0.83190   0.32240   0.02350   0.01267  Uiso   1.00
H15    H     0.59980   0.57350   0.08190   0.01267  Uiso   1.00
H16    H     0.67760   0.50950   0.02350   0.01267  Uiso   1.00
H17    H     0.42650   0.02630   0.08190   0.01267  Uiso   1.00
H18    H     0.49050   0.16810   0.02350   0.01267  Uiso   1.00
H19    H     0.97370   0.40020   0.41810   0.01267  Uiso   1.00
H20    H     0.83190   0.32240   0.47650   0.01267  Uiso   1.00
H21    H     0.59980   0.57350   0.41810   0.01267  Uiso   1.00
H22    H     0.67760   0.50950   0.47650   0.01267  Uiso   1.00
H23    H     0.42650   0.02630   0.41810   0.01267  Uiso   1.00
H24    H     0.49050   0.16810   0.47650   0.01267  Uiso   1.00
C1     C     0.65720   0.84130   0.89530   0.01267  Uiso   1.00
C2     C     0.60320   0.69570   0.94780   0.01267  Uiso   1.00
C3     C     0.18410   0.34280   0.89530   0.01267  Uiso   1.00
C4     C     0.09250   0.39680   0.94780   0.01267  Uiso   1.00
C5     C     0.15870   0.81590   0.89530   0.01267  Uiso   1.00
C6     C     0.30430   0.90750   0.94780   0.01267  Uiso   1.00
C7     C     0.65720   0.84130   0.60470   0.01267  Uiso   1.00
C8     C     0.60320   0.69570   0.55220   0.01267  Uiso   1.00
C9     C     0.18410   0.34280   0.60470   0.01267  Uiso   1.00
C10    C     0.09250   0.39680   0.55220   0.01267  Uiso   1.00
C11    C     0.15870   0.81590   0.60470   0.01267  Uiso   1.00
C12    C     0.30430   0.90750   0.55220   0.01267  Uiso   1.00
C13    C     0.81590   0.15870   0.10470   0.01267  Uiso   1.00
C14    C     0.90750   0.30430   0.05220   0.01267  Uiso   1.00
C15    C     0.84130   0.65720   0.10470   0.01267  Uiso   1.00
C16    C     0.69570   0.60320   0.05220   0.01267  Uiso   1.00
C17    C     0.34280   0.18410   0.10470   0.01267  Uiso   1.00
C18    C     0.39680   0.09250   0.05220   0.01267  Uiso   1.00
C19    C     0.81590   0.15870   0.39530   0.01267  Uiso   1.00
C20    C     0.90750   0.30430   0.44780   0.01267  Uiso   1.00
C21    C     0.84130   0.65720   0.39530   0.01267  Uiso   1.00
C22    C     0.69570   0.60320   0.44780   0.01267  Uiso   1.00
C23    C     0.34280   0.18410   0.39530   0.01267  Uiso   1.00
C24    C     0.39680   0.09250   0.44780   0.01267  Uiso   1.00
O1     O     0.79550   0.96790   0.90713   0.01267  Uiso   1.00
O2     O     0.55900   0.82710   0.84415   0.01267  Uiso   1.00
O3     O     0.17240   0.20450   0.90713   0.01267  Uiso   1.00
O4     O     0.26810   0.44100   0.84415   0.01267  Uiso   1.00
O5     O     0.03210   0.82760   0.90713   0.01267  Uiso   1.00
O6     O     0.17290   0.73190   0.84415   0.01267  Uiso   1.00
O7     O     0.79550   0.96790   0.59287   0.01267  Uiso   1.00
O8     O     0.55900   0.82710   0.65585   0.01267  Uiso   1.00
O9     O     0.17240   0.20450   0.59287   0.01267  Uiso   1.00
O10    O     0.26810   0.44100   0.65585   0.01267  Uiso   1.00
O11    O     0.03210   0.82760   0.59287   0.01267  Uiso   1.00
O12    O     0.17290   0.73190   0.65585   0.01267  Uiso   1.00
O13    O     0.82760   0.03210   0.09287   0.01267  Uiso   1.00
O14    O     0.73190   0.17290   0.15585   0.01267  Uiso   1.00
O15    O     0.96790   0.79550   0.09287   0.01267  Uiso   1.00
O16    O     0.82710   0.55900   0.15585   0.01267  Uiso   1.00
O17    O     0.20450   0.17240   0.09287   0.01267  Uiso   1.00
O18    O     0.44100   0.26810   0.15585   0.01267  Uiso   1.00
O19    O     0.82760   0.03210   0.40713   0.01267  Uiso   1.00
O20    O     0.73190   0.17290   0.34415   0.01267  Uiso   1.00
O21    O     0.96790   0.79550   0.40713   0.01267  Uiso   1.00
O22    O     0.82710   0.55900   0.34415   0.01267  Uiso   1.00
O23    O     0.20450   0.17240   0.40713   0.01267  Uiso   1.00
O24    O     0.44100   0.26810   0.34415   0.01267  Uiso   1.00
O25    O     0.73170   0.73170   0.00000   0.01267  Uiso   1.00
O26    O     0.00000   0.26830   0.00000   0.01267  Uiso   1.00
O27    O     0.26830  -0.00000   0.00000   0.01267  Uiso   1.00
O28    O     0.73170   0.73170   0.50000   0.01267  Uiso   1.00
O29    O     0.00000   0.26830   0.50000   0.01267  Uiso   1.00
O30    O     0.26830  -0.00000   0.50000   0.01267  Uiso   1.00
