data_image0
_cell_length_a       11.561
_cell_length_b       20.816
_cell_length_c       23.676
_cell_angle_alpha    90
_cell_angle_beta     90
_cell_angle_gamma    90

_symmetry_space_group_name_H-M    "P 1"
_symmetry_int_tables_number       1

loop_
  _symmetry_equiv_pos_as_xyz
  'x, y, z'

loop_
  _atom_site_label
  _atom_site_occupancy
  _atom_site_fract_x
  _atom_site_fract_y
  _atom_site_fract_z
  _atom_site_thermal_displace_type
  _atom_site_B_iso_or_equiv
  _atom_site_type_symbol
  Eu1      1.0000 0.58077  0.96420  0.26840  Biso   1.000  Eu
  Eu2      1.0000 0.91725  0.97328  0.26576  Biso   1.000  Eu
  Eu3      1.0000 0.75634  0.87699  0.15193  Biso   1.000  Eu
  Eu4      1.0000 0.73532  0.06703  0.15705  Biso   1.000  Eu
  O1       1.0000 0.74090  0.03300  0.25630  Biso   1.000  O
  H1       1.0000 0.73820  0.06970  0.28210  Biso   1.000  H
  N1       1.0000 0.10090  0.18120  0.29400  Biso   1.000  N
  H2       1.0000 0.13080  0.21630  0.30980  Biso   1.000  H
  H3       1.0000 0.14700  0.16790  0.26620  Biso   1.000  H
  H4       1.0000 0.09470  0.15040  0.31990  Biso   1.000  H
  C1       1.0000 0.93130  0.13620  0.24450  Biso   1.000  C
  O2       1.0000 0.86220  0.97600  0.16930  Biso   1.000  O
  H5       1.0000 0.93010  0.97930  0.14470  Biso   1.000  H
  C2       1.0000 0.98410  0.19630  0.27060  Biso   1.000  C
  H6       1.0000 0.93470  0.20900  0.30230  Biso   1.000  H
  N2       1.0000 0.86090  0.91760  0.46870  Biso   1.000  N
  H7       1.0000 0.85980  0.91540  0.50620  Biso   1.000  H
  H8       1.0000 0.92310  0.93940  0.45760  Biso   1.000  H
  H9       1.0000 0.86320  0.87810  0.45440  Biso   1.000  H
  O3       1.0000 0.75240  0.90510  0.25130  Biso   1.000  O
  H10      1.0000 0.75630  0.86670  0.27520  Biso   1.000  H
  C3       1.0000 0.99210  0.25310  0.23080  Biso   1.000  C
  H11      1.0000 0.91600  0.26050  0.21490  Biso   1.000  H
  H12      1.0000 0.04300  0.24140  0.19990  Biso   1.000  H
  N3       1.0000 0.38130  0.75520  0.27870  Biso   1.000  N
  H13      1.0000 0.35060  0.71940  0.29280  Biso   1.000  H
  H14      1.0000 0.33990  0.76810  0.24910  Biso   1.000  H
  H15      1.0000 0.38100  0.78580  0.30490  Biso   1.000  H
  O4       1.0000 0.62400  0.96790  0.17060  Biso   1.000  O
  H16      1.0000 0.55440  0.96650  0.14700  Biso   1.000  H
  C4       1.0000 0.03520  0.31600  0.25580  Biso   1.000  C
  O5       1.0000 0.97760  0.08410  0.25750  Biso   1.000  O
  C5       1.0000 0.75400  0.95520  0.38390  Biso   1.000  C
  C6       1.0000 0.75690  0.95030  0.44890  Biso   1.000  C
  H17      1.0000 0.68890  0.92620  0.46170  Biso   1.000  H
  O6       1.0000 0.84860  0.14600  0.21200  Biso   1.000  O
  O7       1.0000 0.10040  0.31320  0.29730  Biso   1.000  O
  C7       1.0000 0.74920  0.01850  0.47130  Biso   1.000  C
  H18      1.0000 0.81340  0.04300  0.45620  Biso   1.000  H
  H19      1.0000 0.67840  0.03790  0.45730  Biso   1.000  H
  O8       1.0000 0.00720  0.36710  0.23240  Biso   1.000  O
  C8       1.0000 0.75080  0.02410  0.53500  Biso   1.000  C
  O9       1.0000 0.65730  0.95960  0.36200  Biso   1.000  O
  C9       1.0000 0.55320  0.80470  0.23720  Biso   1.000  C
  O10      1.0000 0.85090  0.95640  0.36020  Biso   1.000  O
  C10      1.0000 0.50200  0.74240  0.26060  Biso   1.000  C
  H20      1.0000 0.54620  0.73110  0.29450  Biso   1.000  H
  O11      1.0000 0.74380  0.07950  0.55560  Biso   1.000  O
  C11      1.0000 0.50720  0.68540  0.22100  Biso   1.000  C
  H21      1.0000 0.58580  0.68100  0.20730  Biso   1.000  H
  H22      1.0000 0.45810  0.69420  0.18860  Biso   1.000  H
  O12      1.0000 0.75480  0.97370  0.56290  Biso   1.000  O
  C12      1.0000 0.47000  0.62200  0.24700  Biso   1.000  C
  O13      1.0000 0.51240  0.85640  0.25560  Biso   1.000  O
  O14      1.0000 0.63250  0.79830  0.20140  Biso   1.000  O
  O15      1.0000 0.41400  0.62460  0.29150  Biso   1.000  O
  O16      1.0000 0.49620  0.57120  0.22100  Biso   1.000  O
  Eu5      1.0000 0.91923  0.03580  0.76840  Biso   1.000  Eu
  Eu6      1.0000 0.58275  0.02672  0.76576  Biso   1.000  Eu
  Eu7      1.0000 0.74366  0.12301  0.65193  Biso   1.000  Eu
  Eu8      1.0000 0.76468  0.93297  0.65705  Biso   1.000  Eu
  O17      1.0000 0.75910  0.96700  0.75630  Biso   1.000  O
  H23      1.0000 0.76180  0.93030  0.78210  Biso   1.000  H
  N4       1.0000 0.39910  0.81880  0.79400  Biso   1.000  N
  H24      1.0000 0.36920  0.78370  0.80980  Biso   1.000  H
  H25      1.0000 0.35300  0.83210  0.76620  Biso   1.000  H
  H26      1.0000 0.40530  0.84960  0.81990  Biso   1.000  H
  C13      1.0000 0.56870  0.86380  0.74450  Biso   1.000  C
  O18      1.0000 0.63780  0.02400  0.66930  Biso   1.000  O
  H27      1.0000 0.56990  0.02070  0.64470  Biso   1.000  H
  C14      1.0000 0.51590  0.80370  0.77060  Biso   1.000  C
  H28      1.0000 0.56530  0.79100  0.80230  Biso   1.000  H
  N5       1.0000 0.63910  0.08240  0.96870  Biso   1.000  N
  H29      1.0000 0.64020  0.08460  0.00620  Biso   1.000  H
  H30      1.0000 0.57690  0.06060  0.95760  Biso   1.000  H
  H31      1.0000 0.63680  0.12190  0.95440  Biso   1.000  H
  O19      1.0000 0.74760  0.09490  0.75130  Biso   1.000  O
  H32      1.0000 0.74370  0.13330  0.77520  Biso   1.000  H
  C15      1.0000 0.50790  0.74690  0.73080  Biso   1.000  C
  H33      1.0000 0.58400  0.73950  0.71490  Biso   1.000  H
  H34      1.0000 0.45700  0.75860  0.69990  Biso   1.000  H
  N6       1.0000 0.11870  0.24480  0.77870  Biso   1.000  N
  H35      1.0000 0.14940  0.28060  0.79280  Biso   1.000  H
  H36      1.0000 0.16010  0.23190  0.74910  Biso   1.000  H
  H37      1.0000 0.11900  0.21420  0.80490  Biso   1.000  H
  O20      1.0000 0.87600  0.03210  0.67060  Biso   1.000  O
  H38      1.0000 0.94560  0.03350  0.64700  Biso   1.000  H
  C16      1.0000 0.46480  0.68400  0.75580  Biso   1.000  C
  O21      1.0000 0.52240  0.91590  0.75750  Biso   1.000  O
  C17      1.0000 0.74600  0.04480  0.88390  Biso   1.000  C
  C18      1.0000 0.74310  0.04970  0.94890  Biso   1.000  C
  H39      1.0000 0.81110  0.07380  0.96170  Biso   1.000  H
  O22      1.0000 0.65140  0.85400  0.71200  Biso   1.000  O
  O23      1.0000 0.39960  0.68680  0.79730  Biso   1.000  O
  C19      1.0000 0.75080  0.98150  0.97130  Biso   1.000  C
  H40      1.0000 0.68660  0.95700  0.95620  Biso   1.000  H
  H41      1.0000 0.82160  0.96210  0.95730  Biso   1.000  H
  O24      1.0000 0.49280  0.63290  0.73240  Biso   1.000  O
  C20      1.0000 0.74920  0.97590  0.03500  Biso   1.000  C
  O25      1.0000 0.84270  0.04040  0.86200  Biso   1.000  O
  C21      1.0000 0.94680  0.19530  0.73720  Biso   1.000  C
  O26      1.0000 0.64910  0.04360  0.86020  Biso   1.000  O
  C22      1.0000 0.99800  0.25760  0.76060  Biso   1.000  C
  H42      1.0000 0.95380  0.26890  0.79450  Biso   1.000  H
  O27      1.0000 0.75620  0.92050  0.05560  Biso   1.000  O
  C23      1.0000 0.99280  0.31460  0.72100  Biso   1.000  C
  H43      1.0000 0.91420  0.31900  0.70730  Biso   1.000  H
  H44      1.0000 0.04190  0.30580  0.68860  Biso   1.000  H
  O28      1.0000 0.74520  0.02630  0.06290  Biso   1.000  O
  C24      1.0000 0.03000  0.37800  0.74700  Biso   1.000  C
  O29      1.0000 0.98760  0.14360  0.75560  Biso   1.000  O
  O30      1.0000 0.86750  0.20170  0.70140  Biso   1.000  O
  O31      1.0000 0.08600  0.37540  0.79150  Biso   1.000  O
  O32      1.0000 0.00380  0.42880  0.72100  Biso   1.000  O
  Eu9      1.0000 0.41923  0.46420  0.23160  Biso   1.000  Eu
  Eu10     1.0000 0.08275  0.47328  0.23424  Biso   1.000  Eu
  Eu11     1.0000 0.24366  0.37699  0.34807  Biso   1.000  Eu
  Eu12     1.0000 0.26468  0.56703  0.34295  Biso   1.000  Eu
  O33      1.0000 0.25910  0.53300  0.24370  Biso   1.000  O
  H45      1.0000 0.26180  0.56970  0.21790  Biso   1.000  H
  N7       1.0000 0.89910  0.68120  0.20600  Biso   1.000  N
  H46      1.0000 0.86920  0.71630  0.19020  Biso   1.000  H
  H47      1.0000 0.85300  0.66790  0.23380  Biso   1.000  H
  H48      1.0000 0.90530  0.65040  0.18010  Biso   1.000  H
  C25      1.0000 0.06870  0.63620  0.25550  Biso   1.000  C
  O34      1.0000 0.13780  0.47600  0.33070  Biso   1.000  O
  H49      1.0000 0.06990  0.47930  0.35530  Biso   1.000  H
  C26      1.0000 0.01590  0.69630  0.22940  Biso   1.000  C
  H50      1.0000 0.06530  0.70900  0.19770  Biso   1.000  H
  N8       1.0000 0.13910  0.41760  0.03130  Biso   1.000  N
  H51      1.0000 0.14020  0.41540  0.99380  Biso   1.000  H
  H52      1.0000 0.07690  0.43940  0.04240  Biso   1.000  H
  H53      1.0000 0.13680  0.37810  0.04560  Biso   1.000  H
  O35      1.0000 0.24760  0.40510  0.24870  Biso   1.000  O
  H54      1.0000 0.24370  0.36670  0.22480  Biso   1.000  H
  C27      1.0000 0.00790  0.75310  0.26920  Biso   1.000  C
  H55      1.0000 0.08400  0.76050  0.28510  Biso   1.000  H
  H56      1.0000 0.95700  0.74140  0.30010  Biso   1.000  H
  N9       1.0000 0.61870  0.25520  0.22130  Biso   1.000  N
  H57      1.0000 0.64940  0.21940  0.20720  Biso   1.000  H
  H58      1.0000 0.66010  0.26810  0.25090  Biso   1.000  H
  H59      1.0000 0.61900  0.28580  0.19510  Biso   1.000  H
  O36      1.0000 0.37600  0.46790  0.32940  Biso   1.000  O
  H60      1.0000 0.44560  0.46650  0.35300  Biso   1.000  H
  C28      1.0000 0.96480  0.81600  0.24420  Biso   1.000  C
  O37      1.0000 0.02240  0.58410  0.24250  Biso   1.000  O
  C29      1.0000 0.24600  0.45520  0.11610  Biso   1.000  C
  C30      1.0000 0.24310  0.45030  0.05110  Biso   1.000  C
  H61      1.0000 0.31110  0.42620  0.03830  Biso   1.000  H
  O38      1.0000 0.15140  0.64600  0.28800  Biso   1.000  O
  O39      1.0000 0.89960  0.81320  0.20270  Biso   1.000  O
  C31      1.0000 0.25080  0.51850  0.02870  Biso   1.000  C
  H62      1.0000 0.18660  0.54300  0.04380  Biso   1.000  H
  H63      1.0000 0.32160  0.53790  0.04270  Biso   1.000  H
  O40      1.0000 0.99280  0.86710  0.26760  Biso   1.000  O
  C32      1.0000 0.24920  0.52410  0.96500  Biso   1.000  C
  O41      1.0000 0.34270  0.45960  0.13800  Biso   1.000  O
  C33      1.0000 0.44680  0.30470  0.26280  Biso   1.000  C
  O42      1.0000 0.14910  0.45640  0.13980  Biso   1.000  O
  C34      1.0000 0.49800  0.24240  0.23940  Biso   1.000  C
  H64      1.0000 0.45380  0.23110  0.20550  Biso   1.000  H
  O43      1.0000 0.25620  0.57950  0.94440  Biso   1.000  O
  C35      1.0000 0.49280  0.18540  0.27900  Biso   1.000  C
  H65      1.0000 0.41420  0.18100  0.29270  Biso   1.000  H
  H66      1.0000 0.54190  0.19420  0.31140  Biso   1.000  H
  O44      1.0000 0.24520  0.47370  0.93710  Biso   1.000  O
  C36      1.0000 0.53000  0.12200  0.25300  Biso   1.000  C
  O45      1.0000 0.48760  0.35640  0.24440  Biso   1.000  O
  O46      1.0000 0.36750  0.29830  0.29860  Biso   1.000  O
  O47      1.0000 0.58600  0.12460  0.20850  Biso   1.000  O
  O48      1.0000 0.50380  0.07120  0.27900  Biso   1.000  O
  Eu13     1.0000 0.08077  0.53580  0.73160  Biso   1.000  Eu
  Eu14     1.0000 0.41725  0.52672  0.73424  Biso   1.000  Eu
  Eu15     1.0000 0.25634  0.62301  0.84807  Biso   1.000  Eu
  Eu16     1.0000 0.23532  0.43297  0.84295  Biso   1.000  Eu
  O49      1.0000 0.24090  0.46700  0.74370  Biso   1.000  O
  H67      1.0000 0.23820  0.43030  0.71790  Biso   1.000  H
  N10      1.0000 0.60090  0.31880  0.70600  Biso   1.000  N
  H68      1.0000 0.63080  0.28370  0.69020  Biso   1.000  H
  H69      1.0000 0.64700  0.33210  0.73380  Biso   1.000  H
  H70      1.0000 0.59470  0.34960  0.68010  Biso   1.000  H
  C37      1.0000 0.43130  0.36380  0.75550  Biso   1.000  C
  O50      1.0000 0.36220  0.52400  0.83070  Biso   1.000  O
  H71      1.0000 0.43010  0.52070  0.85530  Biso   1.000  H
  C38      1.0000 0.48410  0.30370  0.72940  Biso   1.000  C
  H72      1.0000 0.43470  0.29100  0.69770  Biso   1.000  H
  N11      1.0000 0.36090  0.58240  0.53130  Biso   1.000  N
  H73      1.0000 0.35980  0.58460  0.49380  Biso   1.000  H
  H74      1.0000 0.42310  0.56060  0.54240  Biso   1.000  H
  H75      1.0000 0.36320  0.62190  0.54560  Biso   1.000  H
  O51      1.0000 0.25240  0.59490  0.74870  Biso   1.000  O
  H76      1.0000 0.25630  0.63330  0.72480  Biso   1.000  H
  C39      1.0000 0.49210  0.24690  0.76920  Biso   1.000  C
  H77      1.0000 0.41600  0.23950  0.78510  Biso   1.000  H
  H78      1.0000 0.54300  0.25860  0.80010  Biso   1.000  H
  N12      1.0000 0.88130  0.74480  0.72130  Biso   1.000  N
  H79      1.0000 0.85060  0.78060  0.70720  Biso   1.000  H
  H80      1.0000 0.83990  0.73190  0.75090  Biso   1.000  H
  H81      1.0000 0.88100  0.71420  0.69510  Biso   1.000  H
  O52      1.0000 0.12400  0.53210  0.82940  Biso   1.000  O
  H82      1.0000 0.05440  0.53350  0.85300  Biso   1.000  H
  C40      1.0000 0.53520  0.18400  0.74420  Biso   1.000  C
  O53      1.0000 0.47760  0.41590  0.74250  Biso   1.000  O
  C41      1.0000 0.25400  0.54480  0.61610  Biso   1.000  C
  C42      1.0000 0.25690  0.54970  0.55110  Biso   1.000  C
  H83      1.0000 0.18890  0.57380  0.53830  Biso   1.000  H
  O54      1.0000 0.34860  0.35400  0.78800  Biso   1.000  O
  O55      1.0000 0.60040  0.18680  0.70270  Biso   1.000  O
  C43      1.0000 0.24920  0.48150  0.52870  Biso   1.000  C
  H84      1.0000 0.31340  0.45700  0.54380  Biso   1.000  H
  H85      1.0000 0.17840  0.46210  0.54270  Biso   1.000  H
  O56      1.0000 0.50720  0.13290  0.76760  Biso   1.000  O
  C44      1.0000 0.25080  0.47590  0.46500  Biso   1.000  C
  O57      1.0000 0.15730  0.54040  0.63800  Biso   1.000  O
  C45      1.0000 0.05320  0.69530  0.76280  Biso   1.000  C
  O58      1.0000 0.35090  0.54360  0.63980  Biso   1.000  O
  C46      1.0000 0.00200  0.75760  0.73940  Biso   1.000  C
  H86      1.0000 0.04620  0.76890  0.70550  Biso   1.000  H
  O59      1.0000 0.24380  0.42050  0.44440  Biso   1.000  O
  C47      1.0000 0.00720  0.81460  0.77900  Biso   1.000  C
  H87      1.0000 0.08580  0.81900  0.79270  Biso   1.000  H
  H88      1.0000 0.95810  0.80580  0.81140  Biso   1.000  H
  O60      1.0000 0.25480  0.52630  0.43710  Biso   1.000  O
  C48      1.0000 0.97000  0.87800  0.75300  Biso   1.000  C
  O61      1.0000 0.01240  0.64360  0.74440  Biso   1.000  O
  O62      1.0000 0.13250  0.70170  0.79860  Biso   1.000  O
  O63      1.0000 0.91400  0.87540  0.70850  Biso   1.000  O
  O64      1.0000 0.99620  0.92880  0.77900  Biso   1.000  O
