data_image0
_cell_length_a       11.5377
_cell_length_b       20.7238
_cell_length_c       23.5844
_cell_angle_alpha    90
_cell_angle_beta     90
_cell_angle_gamma    90

_symmetry_space_group_name_H-M    "P 1"
_symmetry_int_tables_number       1

loop_
  _symmetry_equiv_pos_as_xyz
  'x, y, z'

loop_
  _atom_site_label
  _atom_site_occupancy
  _atom_site_fract_x
  _atom_site_fract_y
  _atom_site_fract_z
  _atom_site_thermal_displace_type
  _atom_site_B_iso_or_equiv
  _atom_site_type_symbol
  Gd1      1.0000 0.58132  0.96430  0.26826  Biso   1.000  Gd
  C1       1.0000 0.75580  0.95550  0.38380  Biso   1.000  C
  N1       1.0000 0.86100  0.91770  0.46850  Biso   1.000  N
  H1       1.0000 0.85960  0.91510  0.50620  Biso   1.000  H
  H2       1.0000 0.92320  0.93990  0.45760  Biso   1.000  H
  H3       1.0000 0.86400  0.87820  0.45380  Biso   1.000  H
  Gd2      1.0000 0.91644  0.97318  0.26563  Biso   1.000  Gd
  C2       1.0000 0.75520  0.95080  0.44840  Biso   1.000  C
  H4       1.0000 0.68650  0.92690  0.46090  Biso   1.000  H
  N2       1.0000 0.38010  0.75440  0.27780  Biso   1.000  N
  H5       1.0000 0.34960  0.71830  0.29180  Biso   1.000  H
  H6       1.0000 0.33910  0.76720  0.24790  Biso   1.000  H
  H7       1.0000 0.37880  0.78510  0.30420  Biso   1.000  H
  Gd3      1.0000 0.75622  0.87716  0.15220  Biso   1.000  Gd
  C3       1.0000 0.75110  0.01920  0.47140  Biso   1.000  C
  H8       1.0000 0.81800  0.04250  0.45730  Biso   1.000  H
  H9       1.0000 0.68250  0.04030  0.45650  Biso   1.000  H
  N3       1.0000 0.89680  0.67980  0.20560  Biso   1.000  N
  H10      1.0000 0.86660  0.71470  0.18930  Biso   1.000  H
  H11      1.0000 0.85050  0.66670  0.23360  Biso   1.000  H
  H12      1.0000 0.90360  0.64850  0.18000  Biso   1.000  H
  Gd4      1.0000 0.73558  0.06678  0.15727  Biso   1.000  Gd
  C4       1.0000 0.74920  0.02460  0.53560  Biso   1.000  C
  C5       1.0000 0.55450  0.80440  0.23640  Biso   1.000  C
  C6       1.0000 0.50260  0.74200  0.26020  Biso   1.000  C
  H13      1.0000 0.54650  0.73060  0.29430  Biso   1.000  H
  C7       1.0000 0.50870  0.68600  0.22080  Biso   1.000  C
  H14      1.0000 0.58810  0.68140  0.20790  Biso   1.000  H
  H15      1.0000 0.46130  0.69540  0.18780  Biso   1.000  H
  C8       1.0000 0.46940  0.62180  0.24590  Biso   1.000  C
  C9       1.0000 0.06700  0.63630  0.25750  Biso   1.000  C
  C10      1.0000 0.01620  0.69610  0.22970  Biso   1.000  C
  H16      1.0000 0.06660  0.70800  0.19790  Biso   1.000  H
  C11      1.0000 0.00880  0.75380  0.26940  Biso   1.000  C
  H17      1.0000 0.95830  0.74260  0.30070  Biso   1.000  H
  H18      1.0000 0.08530  0.76170  0.28490  Biso   1.000  H
  C12      1.0000 0.96520  0.81580  0.24350  Biso   1.000  C
  O1       1.0000 0.75360  0.90511  0.25095  Biso   1.000  O
  H19      1.0000 0.75760  0.86650  0.27490  Biso   1.000  H
  O2       1.0000 0.74340  0.03340  0.25634  Biso   1.000  O
  H20      1.0000 0.74120  0.07030  0.28230  Biso   1.000  H
  O3       1.0000 0.86180  0.97540  0.16925  Biso   1.000  O
  H21      1.0000 0.92970  0.97860  0.14450  Biso   1.000  H
  O4       1.0000 0.62580  0.96850  0.17074  Biso   1.000  O
  H22      1.0000 0.55610  0.96720  0.14700  Biso   1.000  H
  O5       1.0000 0.85310  0.95760  0.35980  Biso   1.000  O
  O6       1.0000 0.65920  0.95890  0.36080  Biso   1.000  O
  O7       1.0000 0.74470  0.07990  0.55682  Biso   1.000  O
  O8       1.0000 0.75420  0.97280  0.56317  Biso   1.000  O
  O9       1.0000 0.51340  0.85680  0.25590  Biso   1.000  O
  O10      1.0000 0.63300  0.79850  0.20170  Biso   1.000  O
  O11      1.0000 0.41240  0.62430  0.29220  Biso   1.000  O
  O12      1.0000 0.49620  0.57140  0.22090  Biso   1.000  O
  O13      1.0000 0.02320  0.58330  0.24300  Biso   1.000  O
  O14      1.0000 0.14980  0.64450  0.28870  Biso   1.000  O
  O15      1.0000 0.99410  0.86710  0.26680  Biso   1.000  O
  O16      1.0000 0.89750  0.81120  0.20170  Biso   1.000  O
  Gd5      1.0000 0.91868  0.03570  0.76826  Biso   1.000  Gd
  C13      1.0000 0.74420  0.04450  0.88380  Biso   1.000  C
  N4       1.0000 0.63900  0.08230  0.96850  Biso   1.000  N
  H23      1.0000 0.64040  0.08490  0.00620  Biso   1.000  H
  H24      1.0000 0.57680  0.06010  0.95760  Biso   1.000  H
  H25      1.0000 0.63600  0.12180  0.95380  Biso   1.000  H
  Gd6      1.0000 0.58356  0.02682  0.76563  Biso   1.000  Gd
  C14      1.0000 0.74480  0.04920  0.94840  Biso   1.000  C
  H26      1.0000 0.81350  0.07310  0.96090  Biso   1.000  H
  N5       1.0000 0.11990  0.24560  0.77780  Biso   1.000  N
  H27      1.0000 0.15040  0.28170  0.79180  Biso   1.000  H
  H28      1.0000 0.16090  0.23280  0.74790  Biso   1.000  H
  H29      1.0000 0.12120  0.21490  0.80420  Biso   1.000  H
  Gd7      1.0000 0.74378  0.12284  0.65220  Biso   1.000  Gd
  C15      1.0000 0.74890  0.98080  0.97140  Biso   1.000  C
  H30      1.0000 0.68200  0.95750  0.95730  Biso   1.000  H
  H31      1.0000 0.81750  0.95970  0.95650  Biso   1.000  H
  N6       1.0000 0.60320  0.32020  0.70560  Biso   1.000  N
  H32      1.0000 0.63340  0.28530  0.68930  Biso   1.000  H
  H33      1.0000 0.64950  0.33330  0.73360  Biso   1.000  H
  H34      1.0000 0.59640  0.35150  0.68000  Biso   1.000  H
  Gd8      1.0000 0.76442  0.93322  0.65727  Biso   1.000  Gd
  C16      1.0000 0.75080  0.97540  0.03560  Biso   1.000  C
  C17      1.0000 0.94550  0.19560  0.73640  Biso   1.000  C
  C18      1.0000 0.99740  0.25800  0.76020  Biso   1.000  C
  H35      1.0000 0.95350  0.26940  0.79430  Biso   1.000  H
  C19      1.0000 0.99130  0.31400  0.72080  Biso   1.000  C
  H36      1.0000 0.91190  0.31860  0.70790  Biso   1.000  H
  H37      1.0000 0.03870  0.30460  0.68780  Biso   1.000  H
  C20      1.0000 0.03060  0.37820  0.74590  Biso   1.000  C
  C21      1.0000 0.43300  0.36370  0.75750  Biso   1.000  C
  C22      1.0000 0.48380  0.30390  0.72970  Biso   1.000  C
  H38      1.0000 0.43340  0.29200  0.69790  Biso   1.000  H
  C23      1.0000 0.49120  0.24620  0.76940  Biso   1.000  C
  H39      1.0000 0.54170  0.25740  0.80070  Biso   1.000  H
  H40      1.0000 0.41470  0.23830  0.78490  Biso   1.000  H
  C24      1.0000 0.53480  0.18420  0.74350  Biso   1.000  C
  O17      1.0000 0.74640  0.09489  0.75095  Biso   1.000  O
  H41      1.0000 0.74240  0.13350  0.77490  Biso   1.000  H
  O18      1.0000 0.75660  0.96660  0.75634  Biso   1.000  O
  H42      1.0000 0.75880  0.92970  0.78230  Biso   1.000  H
  O19      1.0000 0.63820  0.02460  0.66925  Biso   1.000  O
  H43      1.0000 0.57030  0.02140  0.64450  Biso   1.000  H
  O20      1.0000 0.87420  0.03150  0.67074  Biso   1.000  O
  H44      1.0000 0.94390  0.03280  0.64700  Biso   1.000  H
  O21      1.0000 0.64690  0.04240  0.85980  Biso   1.000  O
  O22      1.0000 0.84080  0.04110  0.86080  Biso   1.000  O
  O23      1.0000 0.75530  0.92010  0.05682  Biso   1.000  O
  O24      1.0000 0.74580  0.02720  0.06317  Biso   1.000  O
  O25      1.0000 0.98660  0.14320  0.75590  Biso   1.000  O
  O26      1.0000 0.86700  0.20150  0.70170  Biso   1.000  O
  O27      1.0000 0.08760  0.37570  0.79220  Biso   1.000  O
  O28      1.0000 0.00380  0.42860  0.72090  Biso   1.000  O
  O29      1.0000 0.47680  0.41670  0.74300  Biso   1.000  O
  O30      1.0000 0.35020  0.35550  0.78870  Biso   1.000  O
  O31      1.0000 0.50590  0.13290  0.76680  Biso   1.000  O
  O32      1.0000 0.60250  0.18880  0.70170  Biso   1.000  O
  Gd9      1.0000 0.41868  0.46430  0.23174  Biso   1.000  Gd
  C25      1.0000 0.24420  0.45550  0.11620  Biso   1.000  C
  N7       1.0000 0.13900  0.41770  0.03150  Biso   1.000  N
  H45      1.0000 0.14040  0.41510  0.99380  Biso   1.000  H
  H46      1.0000 0.07680  0.43990  0.04240  Biso   1.000  H
  H47      1.0000 0.13600  0.37820  0.04620  Biso   1.000  H
  Gd10     1.0000 0.08356  0.47318  0.23437  Biso   1.000  Gd
  C26      1.0000 0.24480  0.45080  0.05160  Biso   1.000  C
  H48      1.0000 0.31350  0.42690  0.03910  Biso   1.000  H
  N8       1.0000 0.61990  0.25440  0.22220  Biso   1.000  N
  H49      1.0000 0.65040  0.21830  0.20820  Biso   1.000  H
  H50      1.0000 0.66090  0.26720  0.25210  Biso   1.000  H
  H51      1.0000 0.62120  0.28510  0.19580  Biso   1.000  H
  Gd11     1.0000 0.24378  0.37716  0.34780  Biso   1.000  Gd
  C27      1.0000 0.24890  0.51920  0.02860  Biso   1.000  C
  H52      1.0000 0.18200  0.54250  0.04270  Biso   1.000  H
  H53      1.0000 0.31750  0.54030  0.04350  Biso   1.000  H
  N9       1.0000 0.10320  0.17980  0.29440  Biso   1.000  N
  H54      1.0000 0.13340  0.21470  0.31070  Biso   1.000  H
  H55      1.0000 0.14950  0.16670  0.26640  Biso   1.000  H
  H56      1.0000 0.09640  0.14850  0.32000  Biso   1.000  H
  Gd12     1.0000 0.26442  0.56678  0.34273  Biso   1.000  Gd
  C28      1.0000 0.25080  0.52460  0.96440  Biso   1.000  C
  C29      1.0000 0.44550  0.30440  0.26360  Biso   1.000  C
  C30      1.0000 0.49740  0.24200  0.23980  Biso   1.000  C
  H57      1.0000 0.45350  0.23060  0.20570  Biso   1.000  H
  C31      1.0000 0.49130  0.18600  0.27920  Biso   1.000  C
  H58      1.0000 0.41190  0.18140  0.29210  Biso   1.000  H
  H59      1.0000 0.53870  0.19540  0.31220  Biso   1.000  H
  C32      1.0000 0.53060  0.12180  0.25410  Biso   1.000  C
  C33      1.0000 0.93300  0.13630  0.24250  Biso   1.000  C
  C34      1.0000 0.98380  0.19610  0.27030  Biso   1.000  C
  H60      1.0000 0.93340  0.20800  0.30210  Biso   1.000  H
  C35      1.0000 0.99120  0.25380  0.23060  Biso   1.000  C
  H61      1.0000 0.04170  0.24260  0.19930  Biso   1.000  H
  H62      1.0000 0.91470  0.26170  0.21510  Biso   1.000  H
  C36      1.0000 0.03480  0.31580  0.25650  Biso   1.000  C
  O33      1.0000 0.24640  0.40511  0.24905  Biso   1.000  O
  H63      1.0000 0.24240  0.36650  0.22510  Biso   1.000  H
  O34      1.0000 0.25660  0.53340  0.24366  Biso   1.000  O
  H64      1.0000 0.25880  0.57030  0.21770  Biso   1.000  H
  O35      1.0000 0.13820  0.47540  0.33075  Biso   1.000  O
  H65      1.0000 0.07030  0.47860  0.35550  Biso   1.000  H
  O36      1.0000 0.37420  0.46850  0.32926  Biso   1.000  O
  H66      1.0000 0.44390  0.46720  0.35300  Biso   1.000  H
  O37      1.0000 0.14690  0.45760  0.14020  Biso   1.000  O
  O38      1.0000 0.34080  0.45890  0.13920  Biso   1.000  O
  O39      1.0000 0.25530  0.57990  0.94318  Biso   1.000  O
  O40      1.0000 0.24580  0.47280  0.93683  Biso   1.000  O
  O41      1.0000 0.48660  0.35680  0.24410  Biso   1.000  O
  O42      1.0000 0.36700  0.29850  0.29830  Biso   1.000  O
  O43      1.0000 0.58760  0.12430  0.20780  Biso   1.000  O
  O44      1.0000 0.50380  0.07140  0.27910  Biso   1.000  O
  O45      1.0000 0.97680  0.08330  0.25700  Biso   1.000  O
  O46      1.0000 0.85020  0.14450  0.21130  Biso   1.000  O
  O47      1.0000 0.00590  0.36710  0.23320  Biso   1.000  O
  O48      1.0000 0.10250  0.31120  0.29830  Biso   1.000  O
  Gd13     1.0000 0.08132  0.53570  0.73174  Biso   1.000  Gd
  C37      1.0000 0.25580  0.54450  0.61620  Biso   1.000  C
  N10      1.0000 0.36100  0.58230  0.53150  Biso   1.000  N
  H67      1.0000 0.35960  0.58490  0.49380  Biso   1.000  H
  H68      1.0000 0.42320  0.56010  0.54240  Biso   1.000  H
  H69      1.0000 0.36400  0.62180  0.54620  Biso   1.000  H
  Gd14     1.0000 0.41644  0.52682  0.73437  Biso   1.000  Gd
  C38      1.0000 0.25520  0.54920  0.55160  Biso   1.000  C
  H70      1.0000 0.18650  0.57310  0.53910  Biso   1.000  H
  N11      1.0000 0.88010  0.74560  0.72220  Biso   1.000  N
  H71      1.0000 0.84960  0.78170  0.70820  Biso   1.000  H
  H72      1.0000 0.83910  0.73280  0.75210  Biso   1.000  H
  H73      1.0000 0.87880  0.71490  0.69580  Biso   1.000  H
  Gd15     1.0000 0.25622  0.62284  0.84780  Biso   1.000  Gd
  C39      1.0000 0.25110  0.48080  0.52860  Biso   1.000  C
  H74      1.0000 0.31800  0.45750  0.54270  Biso   1.000  H
  H75      1.0000 0.18250  0.45970  0.54350  Biso   1.000  H
  N12      1.0000 0.39680  0.82020  0.79440  Biso   1.000  N
  H76      1.0000 0.36660  0.78530  0.81070  Biso   1.000  H
  H77      1.0000 0.35050  0.83330  0.76640  Biso   1.000  H
  H78      1.0000 0.40360  0.85150  0.82000  Biso   1.000  H
  Gd16     1.0000 0.23558  0.43322  0.84273  Biso   1.000  Gd
  C40      1.0000 0.24920  0.47540  0.46440  Biso   1.000  C
  C41      1.0000 0.05450  0.69560  0.76360  Biso   1.000  C
  C42      1.0000 0.00260  0.75800  0.73980  Biso   1.000  C
  H79      1.0000 0.04650  0.76940  0.70570  Biso   1.000  H
  C43      1.0000 0.00870  0.81400  0.77920  Biso   1.000  C
  H80      1.0000 0.08810  0.81860  0.79210  Biso   1.000  H
  H81      1.0000 0.96130  0.80460  0.81220  Biso   1.000  H
  C44      1.0000 0.96940  0.87820  0.75410  Biso   1.000  C
  C45      1.0000 0.56700  0.86370  0.74250  Biso   1.000  C
  C46      1.0000 0.51620  0.80390  0.77030  Biso   1.000  C
  H82      1.0000 0.56660  0.79200  0.80210  Biso   1.000  H
  C47      1.0000 0.50880  0.74620  0.73060  Biso   1.000  C
  H83      1.0000 0.45830  0.75740  0.69930  Biso   1.000  H
  H84      1.0000 0.58530  0.73830  0.71510  Biso   1.000  H
  C48      1.0000 0.46520  0.68420  0.75650  Biso   1.000  C
  O49      1.0000 0.25360  0.59489  0.74905  Biso   1.000  O
  H85      1.0000 0.25760  0.63350  0.72510  Biso   1.000  H
  O50      1.0000 0.24340  0.46660  0.74366  Biso   1.000  O
  H86      1.0000 0.24120  0.42970  0.71770  Biso   1.000  H
  O51      1.0000 0.36180  0.52460  0.83075  Biso   1.000  O
  H87      1.0000 0.42970  0.52140  0.85550  Biso   1.000  H
  O52      1.0000 0.12580  0.53150  0.82926  Biso   1.000  O
  H88      1.0000 0.05610  0.53280  0.85300  Biso   1.000  H
  O53      1.0000 0.35310  0.54240  0.64020  Biso   1.000  O
  O54      1.0000 0.15920  0.54110  0.63920  Biso   1.000  O
  O55      1.0000 0.24470  0.42010  0.44318  Biso   1.000  O
  O56      1.0000 0.25420  0.52720  0.43683  Biso   1.000  O
  O57      1.0000 0.01340  0.64320  0.74410  Biso   1.000  O
  O58      1.0000 0.13300  0.70150  0.79830  Biso   1.000  O
  O59      1.0000 0.91240  0.87570  0.70780  Biso   1.000  O
  O60      1.0000 0.99620  0.92860  0.77910  Biso   1.000  O
  O61      1.0000 0.52320  0.91670  0.75700  Biso   1.000  O
  O62      1.0000 0.64980  0.85550  0.71130  Biso   1.000  O
  O63      1.0000 0.49410  0.63290  0.73320  Biso   1.000  O
  O64      1.0000 0.39750  0.68880  0.79830  Biso   1.000  O
