data_VARWIW_charged
_audit_creation_date              2014-07-02
_audit_creation_method            'Materials Studio'
_symmetry_space_group_name_H-M    'P1'
_symmetry_Int_Tables_number       1
_symmetry_cell_setting            triclinic
loop_
_symmetry_equiv_pos_as_xyz
  x,y,z
_cell_length_a                    11.5610
_cell_length_b                    20.8211
_cell_length_c                    23.6909
_cell_angle_alpha                 90.0000
_cell_angle_beta                  90.0000
_cell_angle_gamma                 90.0000
loop_
_atom_site_label
_atom_site_type_symbol
_atom_site_fract_x
_atom_site_fract_y
_atom_site_fract_z
_atom_site_U_iso_or_equiv
_atom_site_adp_type
_atom_site_occupancy
Sm1    Sm    0.91987   0.03601   0.23120   0.01267  Uiso   1.00
Sm2    Sm    0.58224   0.02651   0.23433   0.01267  Uiso   1.00
Sm3    Sm    0.74386   0.12314   0.34838   0.01267  Uiso   1.00
Sm4    Sm    0.76542   0.93266   0.34309   0.01267  Uiso   1.00
Sm5    Sm    0.58013   0.96399   0.73120   0.01267  Uiso   1.00
Sm6    Sm    0.91776   0.97349   0.73433   0.01267  Uiso   1.00
Sm7    Sm    0.75614   0.87686   0.84838   0.01267  Uiso   1.00
Sm8    Sm    0.73458   0.06734   0.84309   0.01267  Uiso   1.00
Sm9    Sm    0.08013   0.53601   0.26880   0.01267  Uiso   1.00
Sm10   Sm    0.41776   0.52651   0.26567   0.01267  Uiso   1.00
Sm11   Sm    0.25614   0.62314   0.15162   0.01267  Uiso   1.00
Sm12   Sm    0.23458   0.43266   0.15691   0.01267  Uiso   1.00
Sm13   Sm    0.41987   0.46399   0.76880   0.01267  Uiso   1.00
Sm14   Sm    0.08224   0.47349   0.76567   0.01267  Uiso   1.00
Sm15   Sm    0.24386   0.37686   0.65162   0.01267  Uiso   1.00
Sm16   Sm    0.26542   0.56734   0.65691   0.01267  Uiso   1.00
H1     H     0.59580   0.35250   0.31770   0.01267  Uiso   1.00
H2     H     0.62880   0.28530   0.31330   0.01267  Uiso   1.00
H3     H     0.64990   0.32880   0.26640   0.01267  Uiso   1.00
H4     H     0.43430   0.29130   0.30220   0.01267  Uiso   1.00
H5     H     0.15130   0.28190   0.20910   0.01267  Uiso   1.00
H6     H     0.16080   0.23370   0.25320   0.01267  Uiso   1.00
H7     H     0.12310   0.21530   0.19700   0.01267  Uiso   1.00
H8     H     0.54110   0.25760   0.19950   0.01267  Uiso   1.00
H9     H     0.41430   0.23880   0.21540   0.01267  Uiso   1.00
H10    H     0.86230   0.91620   0.49360   0.01267  Uiso   1.00
H11    H     0.92420   0.94210   0.54190   0.01267  Uiso   1.00
H12    H     0.86840   0.87970   0.54580   0.01267  Uiso   1.00
H13    H     0.95380   0.26950   0.20550   0.01267  Uiso   1.00
H14    H     0.91230   0.31850   0.29310   0.01267  Uiso   1.00
H15    H     0.03980   0.30530   0.31200   0.01267  Uiso   1.00
H16    H     0.68740   0.92620   0.53830   0.01267  Uiso   1.00
H17    H     0.81690   0.04220   0.54320   0.01267  Uiso   1.00
H18    H     0.68160   0.03950   0.54330   0.01267  Uiso   1.00
H19    H     0.74290   0.13340   0.22530   0.01267  Uiso   1.00
H20    H     0.76040   0.92970   0.21770   0.01267  Uiso   1.00
H21    H     0.57030   0.02090   0.35600   0.01267  Uiso   1.00
H22    H     0.94480   0.03320   0.35320   0.01267  Uiso   1.00
H23    H     0.90420   0.64750   0.81770   0.01267  Uiso   1.00
H24    H     0.87120   0.71470   0.81330   0.01267  Uiso   1.00
H25    H     0.85010   0.67120   0.76640   0.01267  Uiso   1.00
H26    H     0.06570   0.70870   0.80220   0.01267  Uiso   1.00
H27    H     0.34870   0.71810   0.70910   0.01267  Uiso   1.00
H28    H     0.33920   0.76630   0.75320   0.01267  Uiso   1.00
H29    H     0.37690   0.78470   0.69700   0.01267  Uiso   1.00
H30    H     0.95890   0.74240   0.69950   0.01267  Uiso   1.00
H31    H     0.08570   0.76120   0.71540   0.01267  Uiso   1.00
H32    H     0.63770   0.08380   0.99360   0.01267  Uiso   1.00
H33    H     0.57580   0.05790   0.04190   0.01267  Uiso   1.00
H34    H     0.63160   0.12030   0.04580   0.01267  Uiso   1.00
H35    H     0.54620   0.73050   0.70550   0.01267  Uiso   1.00
H36    H     0.58770   0.68150   0.79310   0.01267  Uiso   1.00
H37    H     0.46020   0.69470   0.81200   0.01267  Uiso   1.00
H38    H     0.81260   0.07380   0.03830   0.01267  Uiso   1.00
H39    H     0.68310   0.95780   0.04320   0.01267  Uiso   1.00
H40    H     0.81840   0.96050   0.04330   0.01267  Uiso   1.00
H41    H     0.75710   0.86660   0.72530   0.01267  Uiso   1.00
H42    H     0.73960   0.07030   0.71770   0.01267  Uiso   1.00
H43    H     0.92970   0.97910   0.85600   0.01267  Uiso   1.00
H44    H     0.55520   0.96680   0.85320   0.01267  Uiso   1.00
H45    H     0.40420   0.85250   0.18230   0.01267  Uiso   1.00
H46    H     0.37120   0.78530   0.18670   0.01267  Uiso   1.00
H47    H     0.35010   0.82880   0.23360   0.01267  Uiso   1.00
H48    H     0.56570   0.79130   0.19780   0.01267  Uiso   1.00
H49    H     0.84870   0.78190   0.29090   0.01267  Uiso   1.00
H50    H     0.83920   0.73370   0.24680   0.01267  Uiso   1.00
H51    H     0.87690   0.71530   0.30300   0.01267  Uiso   1.00
H52    H     0.45890   0.75760   0.30050   0.01267  Uiso   1.00
H53    H     0.58570   0.73880   0.28460   0.01267  Uiso   1.00
H54    H     0.13770   0.41620   0.00640   0.01267  Uiso   1.00
H55    H     0.07580   0.44210   0.95810   0.01267  Uiso   1.00
H56    H     0.13160   0.37970   0.95420   0.01267  Uiso   1.00
H57    H     0.04620   0.76950   0.29450   0.01267  Uiso   1.00
H58    H     0.08770   0.81850   0.20690   0.01267  Uiso   1.00
H59    H     0.96020   0.80530   0.18800   0.01267  Uiso   1.00
H60    H     0.31260   0.42620   0.96170   0.01267  Uiso   1.00
H61    H     0.18310   0.54220   0.95680   0.01267  Uiso   1.00
H62    H     0.31840   0.53950   0.95670   0.01267  Uiso   1.00
H63    H     0.25710   0.63340   0.27470   0.01267  Uiso   1.00
H64    H     0.23960   0.42970   0.28230   0.01267  Uiso   1.00
H65    H     0.42970   0.52090   0.14400   0.01267  Uiso   1.00
H66    H     0.05520   0.53320   0.14680   0.01267  Uiso   1.00
H67    H     0.09580   0.14750   0.68230   0.01267  Uiso   1.00
H68    H     0.12880   0.21470   0.68670   0.01267  Uiso   1.00
H69    H     0.14990   0.17120   0.73360   0.01267  Uiso   1.00
H70    H     0.93430   0.20870   0.69780   0.01267  Uiso   1.00
H71    H     0.65130   0.21810   0.79090   0.01267  Uiso   1.00
H72    H     0.66080   0.26630   0.74680   0.01267  Uiso   1.00
H73    H     0.62310   0.28470   0.80300   0.01267  Uiso   1.00
H74    H     0.04110   0.24240   0.80050   0.01267  Uiso   1.00
H75    H     0.91430   0.26120   0.78460   0.01267  Uiso   1.00
H76    H     0.36230   0.58380   0.50640   0.01267  Uiso   1.00
H77    H     0.42420   0.55790   0.45810   0.01267  Uiso   1.00
H78    H     0.36840   0.62030   0.45420   0.01267  Uiso   1.00
H79    H     0.45380   0.23050   0.79450   0.01267  Uiso   1.00
H80    H     0.41230   0.18150   0.70690   0.01267  Uiso   1.00
H81    H     0.53980   0.19470   0.68800   0.01267  Uiso   1.00
H82    H     0.18740   0.57380   0.46170   0.01267  Uiso   1.00
H83    H     0.31690   0.45780   0.45680   0.01267  Uiso   1.00
H84    H     0.18160   0.46050   0.45670   0.01267  Uiso   1.00
H85    H     0.24290   0.36660   0.77470   0.01267  Uiso   1.00
H86    H     0.26040   0.57030   0.78230   0.01267  Uiso   1.00
H87    H     0.07030   0.47910   0.64400   0.01267  Uiso   1.00
H88    H     0.44480   0.46680   0.64680   0.01267  Uiso   1.00
C1     C     0.43230   0.36320   0.24290   0.01267  Uiso   1.00
C2     C     0.48440   0.30330   0.27060   0.01267  Uiso   1.00
C3     C     0.49090   0.24630   0.23080   0.01267  Uiso   1.00
C4     C     0.53390   0.18450   0.25610   0.01267  Uiso   1.00
C5     C     0.94630   0.19590   0.26360   0.01267  Uiso   1.00
C6     C     0.99720   0.25820   0.23960   0.01267  Uiso   1.00
C7     C     0.99110   0.31430   0.27960   0.01267  Uiso   1.00
C8     C     0.02890   0.37810   0.25350   0.01267  Uiso   1.00
C9     C     0.75680   0.95430   0.61580   0.01267  Uiso   1.00
C10    C     0.75520   0.95040   0.55113   0.01267  Uiso   1.00
C11    C     0.75070   0.01880   0.52870   0.01267  Uiso   1.00
C12    C     0.75020   0.02420   0.46512   0.01267  Uiso   1.00
C13    C     0.06770   0.63680   0.74290   0.01267  Uiso   1.00
C14    C     0.01560   0.69670   0.77060   0.01267  Uiso   1.00
C15    C     0.00910   0.75370   0.73080   0.01267  Uiso   1.00
C16    C     0.96610   0.81550   0.75610   0.01267  Uiso   1.00
C17    C     0.55370   0.80410   0.76360   0.01267  Uiso   1.00
C18    C     0.50280   0.74180   0.73960   0.01267  Uiso   1.00
C19    C     0.50890   0.68570   0.77960   0.01267  Uiso   1.00
C20    C     0.47110   0.62190   0.75350   0.01267  Uiso   1.00
C21    C     0.74320   0.04570   0.11580   0.01267  Uiso   1.00
C22    C     0.74480   0.04960   0.05113   0.01267  Uiso   1.00
C23    C     0.74930   0.98120   0.02870   0.01267  Uiso   1.00
C24    C     0.74980   0.97580   0.96512   0.01267  Uiso   1.00
C25    C     0.56770   0.86320   0.25710   0.01267  Uiso   1.00
C26    C     0.51560   0.80330   0.22940   0.01267  Uiso   1.00
C27    C     0.50910   0.74630   0.26920   0.01267  Uiso   1.00
C28    C     0.46610   0.68450   0.24390   0.01267  Uiso   1.00
C29    C     0.05370   0.69590   0.23640   0.01267  Uiso   1.00
C30    C     0.00280   0.75820   0.26040   0.01267  Uiso   1.00
C31    C     0.00890   0.81430   0.22040   0.01267  Uiso   1.00
C32    C     0.97110   0.87810   0.24650   0.01267  Uiso   1.00
C33    C     0.24320   0.45430   0.88420   0.01267  Uiso   1.00
C34    C     0.24480   0.45040   0.94887   0.01267  Uiso   1.00
C35    C     0.24930   0.51880   0.97130   0.01267  Uiso   1.00
C36    C     0.24980   0.52420   0.03488   0.01267  Uiso   1.00
C37    C     0.93230   0.13680   0.75710   0.01267  Uiso   1.00
C38    C     0.98440   0.19670   0.72940   0.01267  Uiso   1.00
C39    C     0.99090   0.25370   0.76920   0.01267  Uiso   1.00
C40    C     0.03390   0.31550   0.74390   0.01267  Uiso   1.00
C41    C     0.44630   0.30410   0.73640   0.01267  Uiso   1.00
C42    C     0.49720   0.24180   0.76040   0.01267  Uiso   1.00
C43    C     0.49110   0.18570   0.72040   0.01267  Uiso   1.00
C44    C     0.52890   0.12190   0.74650   0.01267  Uiso   1.00
C45    C     0.25680   0.54570   0.38420   0.01267  Uiso   1.00
C46    C     0.25520   0.54960   0.44887   0.01267  Uiso   1.00
C47    C     0.25070   0.48120   0.47130   0.01267  Uiso   1.00
C48    C     0.25020   0.47580   0.53488   0.01267  Uiso   1.00
N1     N     0.60170   0.31910   0.29440   0.01267  Uiso   1.00
N2     N     0.12070   0.24600   0.22300   0.01267  Uiso   1.00
N3     N     0.86340   0.91890   0.53110   0.01267  Uiso   1.00
N4     N     0.89830   0.68090   0.79440   0.01267  Uiso   1.00
N5     N     0.37930   0.75400   0.72300   0.01267  Uiso   1.00
N6     N     0.63660   0.08110   0.03110   0.01267  Uiso   1.00
N7     N     0.39830   0.81910   0.20560   0.01267  Uiso   1.00
N8     N     0.87930   0.74600   0.27700   0.01267  Uiso   1.00
N9     N     0.13660   0.41890   0.96890   0.01267  Uiso   1.00
N10    N     0.10170   0.18090   0.70560   0.01267  Uiso   1.00
N11    N     0.62070   0.25400   0.77700   0.01267  Uiso   1.00
N12    N     0.36340   0.58110   0.46890   0.01267  Uiso   1.00
O1     O     0.74710   0.09498   0.24907   0.01267  Uiso   1.00
O2     O     0.75790   0.96646   0.24358   0.01267  Uiso   1.00
O3     O     0.63800   0.02414   0.33126   0.01267  Uiso   1.00
O4     O     0.87520   0.03179   0.32964   0.01267  Uiso   1.00
O5     O     0.47900   0.41593   0.25530   0.01267  Uiso   1.00
O6     O     0.34910   0.35460   0.21126   0.01267  Uiso   1.00
O7     O     0.60010   0.18820   0.29845   0.01267  Uiso   1.00
O8     O     0.50410   0.13310   0.23310   0.01267  Uiso   1.00
O9     O     0.98760   0.14400   0.24480   0.01267  Uiso   1.00
O10    O     0.86770   0.20190   0.29830   0.01267  Uiso   1.00
O11    O     0.00120   0.42830   0.27950   0.01267  Uiso   1.00
O12    O     0.08510   0.37610   0.20820   0.01267  Uiso   1.00
O13    O     0.85420   0.95570   0.63979   0.01267  Uiso   1.00
O14    O     0.66030   0.95850   0.63851   0.01267  Uiso   1.00
O15    O     0.75430   0.97327   0.43761   0.01267  Uiso   1.00
O16    O     0.74410   0.07957   0.44453   0.01267  Uiso   1.00
O17    O     0.11440   0.03240   0.28000   0.01267  Uiso   1.00
O18    O     0.07560   0.05260   0.15750   0.01267  Uiso   1.00
O19    O     0.39960   0.02770   0.29340   0.01267  Uiso   1.00
O20    O     0.41520   0.01440   0.16950   0.01267  Uiso   1.00
O21    O     0.93370   0.14300   0.40130   0.01267  Uiso   1.00
O22    O     0.73300   0.22910   0.39690   0.01267  Uiso   1.00
O23    O     0.55120   0.13500   0.39970   0.01267  Uiso   1.00
O24    O     0.57520   0.90390   0.39300   0.01267  Uiso   1.00
O25    O     0.78660   0.82250   0.38700   0.01267  Uiso   1.00
O26    O     0.95480   0.91790   0.40300   0.01267  Uiso   1.00
O27    O     0.75290   0.90502   0.74907   0.01267  Uiso   1.00
O28    O     0.74210   0.03354   0.74358   0.01267  Uiso   1.00
O29    O     0.86200   0.97586   0.83126   0.01267  Uiso   1.00
O30    O     0.62480   0.96821   0.82964   0.01267  Uiso   1.00
O31    O     0.02100   0.58407   0.75530   0.01267  Uiso   1.00
O32    O     0.15090   0.64540   0.71126   0.01267  Uiso   1.00
O33    O     0.89990   0.81180   0.79845   0.01267  Uiso   1.00
O34    O     0.99590   0.86690   0.73310   0.01267  Uiso   1.00
O35    O     0.51240   0.85600   0.74480   0.01267  Uiso   1.00
O36    O     0.63230   0.79810   0.79830   0.01267  Uiso   1.00
O37    O     0.49880   0.57170   0.77950   0.01267  Uiso   1.00
O38    O     0.41490   0.62390   0.70820   0.01267  Uiso   1.00
O39    O     0.64580   0.04430   0.13979   0.01267  Uiso   1.00
O40    O     0.83970   0.04150   0.13851   0.01267  Uiso   1.00
O41    O     0.74570   0.02673   0.93761   0.01267  Uiso   1.00
O42    O     0.75590   0.92043   0.94453   0.01267  Uiso   1.00
O43    O     0.38560   0.96760   0.78000   0.01267  Uiso   1.00
O44    O     0.42440   0.94740   0.65750   0.01267  Uiso   1.00
O45    O     0.10040   0.97230   0.79340   0.01267  Uiso   1.00
O46    O     0.08480   0.98560   0.66950   0.01267  Uiso   1.00
O47    O     0.56630   0.85700   0.90130   0.01267  Uiso   1.00
O48    O     0.76700   0.77090   0.89690   0.01267  Uiso   1.00
O49    O     0.94880   0.86500   0.89970   0.01267  Uiso   1.00
O50    O     0.92480   0.09610   0.89300   0.01267  Uiso   1.00
O51    O     0.71340   0.17750   0.88700   0.01267  Uiso   1.00
O52    O     0.54520   0.08210   0.90300   0.01267  Uiso   1.00
O53    O     0.25290   0.59498   0.25093   0.01267  Uiso   1.00
O54    O     0.24210   0.46646   0.25642   0.01267  Uiso   1.00
O55    O     0.36200   0.52414   0.16874   0.01267  Uiso   1.00
O56    O     0.12480   0.53179   0.17036   0.01267  Uiso   1.00
O57    O     0.52100   0.91593   0.24470   0.01267  Uiso   1.00
O58    O     0.65090   0.85460   0.28874   0.01267  Uiso   1.00
O59    O     0.39990   0.68820   0.20155   0.01267  Uiso   1.00
O60    O     0.49590   0.63310   0.26690   0.01267  Uiso   1.00
O61    O     0.01240   0.64400   0.25520   0.01267  Uiso   1.00
O62    O     0.13230   0.70190   0.20170   0.01267  Uiso   1.00
O63    O     0.99880   0.92830   0.22050   0.01267  Uiso   1.00
O64    O     0.91490   0.87610   0.29180   0.01267  Uiso   1.00
O65    O     0.14580   0.45570   0.86021   0.01267  Uiso   1.00
O66    O     0.33970   0.45850   0.86149   0.01267  Uiso   1.00
O67    O     0.24570   0.47327   0.06239   0.01267  Uiso   1.00
O68    O     0.25590   0.57957   0.05547   0.01267  Uiso   1.00
O69    O     0.88560   0.53240   0.22000   0.01267  Uiso   1.00
O70    O     0.92440   0.55260   0.34250   0.01267  Uiso   1.00
O71    O     0.60040   0.52770   0.20660   0.01267  Uiso   1.00
O72    O     0.58480   0.51440   0.33050   0.01267  Uiso   1.00
O73    O     0.06630   0.64300   0.09870   0.01267  Uiso   1.00
O74    O     0.26700   0.72910   0.10310   0.01267  Uiso   1.00
O75    O     0.44880   0.63500   0.10030   0.01267  Uiso   1.00
O76    O     0.42480   0.40390   0.10700   0.01267  Uiso   1.00
O77    O     0.21340   0.32250   0.11300   0.01267  Uiso   1.00
O78    O     0.04520   0.41790   0.09700   0.01267  Uiso   1.00
O79    O     0.24710   0.40502   0.75093   0.01267  Uiso   1.00
O80    O     0.25790   0.53354   0.75642   0.01267  Uiso   1.00
O81    O     0.13800   0.47586   0.66874   0.01267  Uiso   1.00
O82    O     0.37520   0.46821   0.67036   0.01267  Uiso   1.00
O83    O     0.97900   0.08407   0.74470   0.01267  Uiso   1.00
O84    O     0.84910   0.14540   0.78874   0.01267  Uiso   1.00
O85    O     0.10010   0.31180   0.70155   0.01267  Uiso   1.00
O86    O     0.00410   0.36690   0.76690   0.01267  Uiso   1.00
O87    O     0.48760   0.35600   0.75520   0.01267  Uiso   1.00
O88    O     0.36770   0.29810   0.70170   0.01267  Uiso   1.00
O89    O     0.50120   0.07170   0.72050   0.01267  Uiso   1.00
O90    O     0.58510   0.12390   0.79180   0.01267  Uiso   1.00
O91    O     0.35420   0.54430   0.36021   0.01267  Uiso   1.00
O92    O     0.16030   0.54150   0.36149   0.01267  Uiso   1.00
O93    O     0.25430   0.52673   0.56239   0.01267  Uiso   1.00
O94    O     0.24410   0.42043   0.55547   0.01267  Uiso   1.00
O95    O     0.61440   0.46760   0.72000   0.01267  Uiso   1.00
O96    O     0.57560   0.44740   0.84250   0.01267  Uiso   1.00
O97    O     0.89960   0.47230   0.70660   0.01267  Uiso   1.00
O98    O     0.91520   0.48560   0.83050   0.01267  Uiso   1.00
O99    O     0.43370   0.35700   0.59870   0.01267  Uiso   1.00
O100   O     0.23300   0.27090   0.60310   0.01267  Uiso   1.00
O101   O     0.05120   0.36500   0.60030   0.01267  Uiso   1.00
O102   O     0.07520   0.59610   0.60700   0.01267  Uiso   1.00
O103   O     0.28660   0.67750   0.61300   0.01267  Uiso   1.00
O104   O     0.45480   0.58210   0.59700   0.01267  Uiso   1.00
Cl1    Cl    0.74610   0.37088   0.15533   0.01267  Uiso   1.00
O105   O     0.75160   0.43800   0.14970   0.01267  Uiso   1.00
O106   O     0.78320   0.36910   0.21290   0.01267  Uiso   1.00
O107   O     0.63840   0.34680   0.14200   0.01267  Uiso   1.00
O108   O     0.83020   0.34470   0.11930   0.01267  Uiso   1.00
Cl2    Cl    0.24693   0.18073   0.36127   0.01267  Uiso   1.00
O109   O     0.24720   0.11380   0.35500   0.01267  Uiso   1.00
O110   O     0.14040   0.21090   0.36420   0.01267  Uiso   1.00
O111   O     0.26880   0.20600   0.30700   0.01267  Uiso   1.00
O112   O     0.33450   0.21170   0.39130   0.01267  Uiso   1.00
Cl3    Cl    0.98860   0.21298   0.04986   0.01267  Uiso   1.00
O113   O     0.01730   0.18630   0.10200   0.01267  Uiso   1.00
O114   O     0.01620   0.27890   0.05050   0.01267  Uiso   1.00
O115   O     0.04340   0.18660   0.00180   0.01267  Uiso   1.00
O116   O     0.86800   0.20340   0.04430   0.01267  Uiso   1.00
Cl4    Cl    0.40540   0.01396   0.49766   0.01267  Uiso   1.00
O117   O     0.34280   0.02500   0.54840   0.01267  Uiso   1.00
O118   O     0.31950   0.00730   0.45790   0.01267  Uiso   1.00
O119   O     0.47690   0.06660   0.48870   0.01267  Uiso   1.00
O120   O     0.47650   0.96180   0.50790   0.01267  Uiso   1.00
Cl5    Cl    0.47120   0.85195   0.05244   0.01267  Uiso   1.00
O121   O     0.51390   0.87650   0.10500   0.01267  Uiso   1.00
O122   O     0.35490   0.87650   0.05990   0.01267  Uiso   1.00
O123   O     0.47520   0.78400   0.06290   0.01267  Uiso   1.00
O124   O     0.51050   0.89720   0.01040   0.01267  Uiso   1.00
Cl6    Cl    0.75390   0.62912   0.65533   0.01267  Uiso   1.00
O125   O     0.74840   0.56200   0.64970   0.01267  Uiso   1.00
O126   O     0.71680   0.63090   0.71290   0.01267  Uiso   1.00
O127   O     0.86160   0.65320   0.64200   0.01267  Uiso   1.00
O128   O     0.66980   0.65530   0.61930   0.01267  Uiso   1.00
Cl7    Cl    0.25307   0.81927   0.86127   0.01267  Uiso   1.00
O129   O     0.25280   0.88620   0.85500   0.01267  Uiso   1.00
O130   O     0.35960   0.78910   0.86420   0.01267  Uiso   1.00
O131   O     0.23120   0.79400   0.80700   0.01267  Uiso   1.00
O132   O     0.16550   0.78830   0.89130   0.01267  Uiso   1.00
Cl8    Cl    0.51140   0.78702   0.54986   0.01267  Uiso   1.00
O133   O     0.48270   0.81370   0.60200   0.01267  Uiso   1.00
O134   O     0.48380   0.72110   0.55050   0.01267  Uiso   1.00
O135   O     0.45660   0.81340   0.50180   0.01267  Uiso   1.00
O136   O     0.63200   0.79660   0.54430   0.01267  Uiso   1.00
Cl9    Cl    0.09460   0.98604   0.99766   0.01267  Uiso   1.00
O137   O     0.15720   0.97500   0.04840   0.01267  Uiso   1.00
O138   O     0.18050   0.99270   0.95790   0.01267  Uiso   1.00
O139   O     0.02310   0.93340   0.98870   0.01267  Uiso   1.00
O140   O     0.02350   0.03820   0.00790   0.01267  Uiso   1.00
Cl10   Cl    0.02880   0.14805   0.55244   0.01267  Uiso   1.00
O141   O     0.98610   0.12350   0.60500   0.01267  Uiso   1.00
O142   O     0.14510   0.12350   0.55990   0.01267  Uiso   1.00
O143   O     0.02480   0.21600   0.56290   0.01267  Uiso   1.00
O144   O     0.98950   0.10280   0.51040   0.01267  Uiso   1.00
Cl11   Cl    0.25390   0.87088   0.34467   0.01267  Uiso   1.00
O145   O     0.24840   0.93800   0.35030   0.01267  Uiso   1.00
O146   O     0.21680   0.86910   0.28710   0.01267  Uiso   1.00
O147   O     0.36160   0.84680   0.35800   0.01267  Uiso   1.00
O148   O     0.16980   0.84470   0.38070   0.01267  Uiso   1.00
Cl12   Cl    0.75307   0.68073   0.13873   0.01267  Uiso   1.00
O149   O     0.75280   0.61380   0.14500   0.01267  Uiso   1.00
O150   O     0.85960   0.71090   0.13580   0.01267  Uiso   1.00
O151   O     0.73120   0.70600   0.19300   0.01267  Uiso   1.00
O152   O     0.66550   0.71170   0.10870   0.01267  Uiso   1.00
Cl13   Cl    0.01140   0.71298   0.45014   0.01267  Uiso   1.00
O153   O     0.98270   0.68630   0.39800   0.01267  Uiso   1.00
O154   O     0.98380   0.77890   0.44950   0.01267  Uiso   1.00
O155   O     0.95660   0.68660   0.49820   0.01267  Uiso   1.00
O156   O     0.13200   0.70340   0.45570   0.01267  Uiso   1.00
Cl14   Cl    0.59460   0.51396   0.00234   0.01267  Uiso   1.00
O157   O     0.65720   0.52500   0.95160   0.01267  Uiso   1.00
O158   O     0.68050   0.50730   0.04210   0.01267  Uiso   1.00
O159   O     0.52310   0.56660   0.01130   0.01267  Uiso   1.00
O160   O     0.52350   0.46180   0.99210   0.01267  Uiso   1.00
Cl15   Cl    0.52880   0.35195   0.44756   0.01267  Uiso   1.00
O161   O     0.48610   0.37650   0.39500   0.01267  Uiso   1.00
O162   O     0.64510   0.37650   0.44010   0.01267  Uiso   1.00
O163   O     0.52480   0.28400   0.43710   0.01267  Uiso   1.00
O164   O     0.48950   0.39720   0.48960   0.01267  Uiso   1.00
Cl16   Cl    0.24610   0.12912   0.84467   0.01267  Uiso   1.00
O165   O     0.25160   0.06200   0.85030   0.01267  Uiso   1.00
O166   O     0.28320   0.13090   0.78710   0.01267  Uiso   1.00
O167   O     0.13840   0.15320   0.85800   0.01267  Uiso   1.00
O168   O     0.33020   0.15530   0.88070   0.01267  Uiso   1.00
Cl17   Cl    0.74693   0.31927   0.63873   0.01267  Uiso   1.00
O169   O     0.74720   0.38620   0.64500   0.01267  Uiso   1.00
O170   O     0.64040   0.28910   0.63580   0.01267  Uiso   1.00
O171   O     0.76880   0.29400   0.69300   0.01267  Uiso   1.00
O172   O     0.83450   0.28830   0.60870   0.01267  Uiso   1.00
Cl18   Cl    0.48860   0.28702   0.95014   0.01267  Uiso   1.00
O173   O     0.51730   0.31370   0.89800   0.01267  Uiso   1.00
O174   O     0.51620   0.22110   0.94950   0.01267  Uiso   1.00
O175   O     0.54340   0.31340   0.99820   0.01267  Uiso   1.00
O176   O     0.36800   0.29660   0.95570   0.01267  Uiso   1.00
Cl19   Cl    0.90540   0.48604   0.50234   0.01267  Uiso   1.00
O177   O     0.84280   0.47500   0.45160   0.01267  Uiso   1.00
O178   O     0.81950   0.49270   0.54210   0.01267  Uiso   1.00
O179   O     0.97690   0.43340   0.51130   0.01267  Uiso   1.00
O180   O     0.97650   0.53820   0.49210   0.01267  Uiso   1.00
Cl20   Cl    0.97120   0.64805   0.94756   0.01267  Uiso   1.00
O181   O     0.01390   0.62350   0.89500   0.01267  Uiso   1.00
O182   O     0.85490   0.62350   0.94010   0.01267  Uiso   1.00
O183   O     0.97520   0.71600   0.93710   0.01267  Uiso   1.00
O184   O     0.01050   0.60280   0.98960   0.01267  Uiso   1.00
