data_image0
_cell_length_a       6.052
_cell_length_b       10.4994
_cell_length_c       13.4547
_cell_angle_alpha    71.63
_cell_angle_beta     89.254
_cell_angle_gamma    89.101

_symmetry_space_group_name_H-M    "P 1"
_symmetry_int_tables_number       1

loop_
  _symmetry_equiv_pos_as_xyz
  'x, y, z'

loop_
  _atom_site_label
  _atom_site_occupancy
  _atom_site_fract_x
  _atom_site_fract_y
  _atom_site_fract_z
  _atom_site_thermal_displace_type
  _atom_site_B_iso_or_equiv
  _atom_site_type_symbol
  Eu1      1.0000 0.25043  0.65949  0.70707  Biso   1.000  Eu
  N1       1.0000 0.08020  0.88500  0.57600  Biso   1.000  N
  N2       1.0000 0.43330  0.55600  0.89660  Biso   1.000  N
  N3       1.0000 0.09140  0.57300  0.55900  Biso   1.000  N
  O1       1.0000 0.45080  0.76870  0.54640  Biso   1.000  O
  O2       1.0000 0.06530  0.70190  0.85140  Biso   1.000  O
  O3       1.0000 0.85170  0.64170  0.69950  Biso   1.000  O
  O4       1.0000 0.55860  0.52760  0.67630  Biso   1.000  O
  C1       1.0000 0.18650  0.93930  0.48520  Biso   1.000  C
  C2       1.0000 0.89360  0.94610  0.59030  Biso   1.000  C
  C3       1.0000 0.31740  0.57440  0.97590  Biso   1.000  C
  C4       1.0000 0.61560  0.48120  0.92090  Biso   1.000  C
  C5       1.0000 0.88350  0.52930  0.57460  Biso   1.000  C
  C6       1.0000 0.20820  0.54370  0.48410  Biso   1.000  C
  C7       1.0000 0.39860  0.86910  0.47070  Biso   1.000  C
  C8       1.0000 0.11000  0.65980  0.94720  Biso   1.000  C
  C9       1.0000 0.75280  0.56940  0.65710  Biso   1.000  C
  H1       1.0000 0.81460  0.91130  0.65250  Biso   1.000  H
  H2       1.0000 0.70050  0.46560  0.86770  Biso   1.000  H
  H3       1.0000 0.35330  0.57270  0.47100  Biso   1.000  H
  O5       1.0000 0.50510  0.91430  0.38820  Biso   1.000  O
  O6       1.0000 0.99890  0.68200  0.01730  Biso   1.000  O
  Eu2      1.0000 0.74957  0.34051  0.29293  Biso   1.000  Eu
  N4       1.0000 0.91980  0.11500  0.42400  Biso   1.000  N
  N5       1.0000 0.56670  0.44400  0.10340  Biso   1.000  N
  N6       1.0000 0.90860  0.42700  0.44100  Biso   1.000  N
  O7       1.0000 0.54920  0.23130  0.45360  Biso   1.000  O
  O8       1.0000 0.93470  0.29810  0.14860  Biso   1.000  O
  O9       1.0000 0.14830  0.35830  0.30050  Biso   1.000  O
  O10      1.0000 0.44140  0.47240  0.32370  Biso   1.000  O
  C10      1.0000 0.81350  0.06070  0.51480  Biso   1.000  C
  C11      1.0000 0.10640  0.05390  0.40970  Biso   1.000  C
  C12      1.0000 0.68260  0.42560  0.02410  Biso   1.000  C
  C13      1.0000 0.38440  0.51880  0.07910  Biso   1.000  C
  C14      1.0000 0.11650  0.47070  0.42540  Biso   1.000  C
  C15      1.0000 0.79180  0.45630  0.51590  Biso   1.000  C
  C16      1.0000 0.60140  0.13090  0.52930  Biso   1.000  C
  C17      1.0000 0.89000  0.34020  0.05280  Biso   1.000  C
  C18      1.0000 0.24720  0.43060  0.34290  Biso   1.000  C
  H4       1.0000 0.18540  0.08870  0.34750  Biso   1.000  H
  H5       1.0000 0.29950  0.53440  0.13230  Biso   1.000  H
  H6       1.0000 0.64670  0.42730  0.52900  Biso   1.000  H
  O11      1.0000 0.49490  0.08570  0.61180  Biso   1.000  O
  O12      1.0000 0.00110  0.31800  0.98270  Biso   1.000  O
