data_image0
_cell_length_a       6.099
_cell_length_b       10.501
_cell_length_c       13.688
_cell_angle_alpha    72.607
_cell_angle_beta     88.789
_cell_angle_gamma    88.98

_symmetry_space_group_name_H-M    "P 1"
_symmetry_int_tables_number       1

loop_
  _symmetry_equiv_pos_as_xyz
  'x, y, z'

loop_
  _atom_site_label
  _atom_site_occupancy
  _atom_site_fract_x
  _atom_site_fract_y
  _atom_site_fract_z
  _atom_site_thermal_displace_type
  _atom_site_B_iso_or_equiv
  _atom_site_type_symbol
  Ce1      1.0000 0.74860  0.33898  0.29069  Biso   1.000  Ce
  C1       1.0000 0.60070  0.13130  0.52690  Biso   1.000  C
  C2       1.0000 0.10890  0.05170  0.41160  Biso   1.000  C
  H1       1.0000 0.18940  0.08530  0.35110  Biso   1.000  H
  O1       1.0000 0.54580  0.22840  0.45290  Biso   1.000  O
  O2       1.0000 0.49740  0.08940  0.60970  Biso   1.000  O
  O3       1.0000 0.93760  0.30240  0.14160  Biso   1.000  O
  O4       1.0000 0.00150  0.32110  0.97780  Biso   1.000  O
  N1       1.0000 0.56560  0.44370  0.10050  Biso   1.000  N
  N2       1.0000 0.92140  0.11190  0.42490  Biso   1.000  N
  C3       1.0000 0.81330  0.06030  0.51360  Biso   1.000  C
  C4       1.0000 0.68260  0.42620  0.02230  Biso   1.000  C
  C5       1.0000 0.89080  0.34300  0.04810  Biso   1.000  C
  C6       1.0000 0.38260  0.51770  0.07830  Biso   1.000  C
  H2       1.0000 0.29710  0.53190  0.13120  Biso   1.000  H
  O5       1.0000 0.43900  0.47740  0.32510  Biso   1.000  O
  O6       1.0000 0.15540  0.35890  0.30110  Biso   1.000  O
  C7       1.0000 0.24750  0.43260  0.34330  Biso   1.000  C
  C8       1.0000 0.11660  0.47100  0.42570  Biso   1.000  C
  N3       1.0000 0.91020  0.42730  0.44130  Biso   1.000  N
  C9       1.0000 0.79460  0.45580  0.51560  Biso   1.000  C
  H3       1.0000 0.65100  0.42620  0.52860  Biso   1.000  H
  Ce2      1.0000 0.25140  0.66102  0.70931  Biso   1.000  Ce
  C10      1.0000 0.39930  0.86870  0.47310  Biso   1.000  C
  C11      1.0000 0.89110  0.94830  0.58840  Biso   1.000  C
  H4       1.0000 0.81060  0.91470  0.64890  Biso   1.000  H
  O7       1.0000 0.45420  0.77160  0.54710  Biso   1.000  O
  O8       1.0000 0.50260  0.91060  0.39030  Biso   1.000  O
  O9       1.0000 0.06240  0.69760  0.85840  Biso   1.000  O
  O10      1.0000 0.99850  0.67890  0.02220  Biso   1.000  O
  N4       1.0000 0.43440  0.55630  0.89950  Biso   1.000  N
  N5       1.0000 0.07860  0.88810  0.57510  Biso   1.000  N
  C12      1.0000 0.18670  0.93970  0.48640  Biso   1.000  C
  C13      1.0000 0.31740  0.57380  0.97770  Biso   1.000  C
  C14      1.0000 0.10920  0.65700  0.95190  Biso   1.000  C
  C15      1.0000 0.61740  0.48230  0.92170  Biso   1.000  C
  H5       1.0000 0.70290  0.46810  0.86880  Biso   1.000  H
  O11      1.0000 0.56100  0.52260  0.67490  Biso   1.000  O
  O12      1.0000 0.84460  0.64110  0.69890  Biso   1.000  O
  C16      1.0000 0.75250  0.56740  0.65670  Biso   1.000  C
  C17      1.0000 0.88340  0.52900  0.57430  Biso   1.000  C
  N6       1.0000 0.08980  0.57270  0.55870  Biso   1.000  N
  C18      1.0000 0.20540  0.54420  0.48440  Biso   1.000  C
  H6       1.0000 0.34900  0.57380  0.47140  Biso   1.000  H
