data_image0
_cell_length_a       6.0327
_cell_length_b       12.7752
_cell_length_c       13.1775
_cell_angle_alpha    118.99
_cell_angle_beta     90.575
_cell_angle_gamma    91.67

_symmetry_space_group_name_H-M    "P 1"
_symmetry_int_tables_number       1

loop_
  _symmetry_equiv_pos_as_xyz
  'x, y, z'

loop_
  _atom_site_label
  _atom_site_occupancy
  _atom_site_fract_x
  _atom_site_fract_y
  _atom_site_fract_z
  _atom_site_thermal_displace_type
  _atom_site_B_iso_or_equiv
  _atom_site_type_symbol
  Er1      1.0000 0.27633  0.16011  0.32198  Biso   1.000  Er
  N1       1.0000 0.41400  0.07300  0.10910  Biso   1.000  N
  N2       1.0000 0.07680  0.04790  0.43110  Biso   1.000  N
  N3       1.0000 0.43050  0.37950  0.44500  Biso   1.000  N
  O1       1.0000 0.66310  0.16550  0.29730  Biso   1.000  O
  O2       1.0000 0.44900  0.17900  0.48550  Biso   1.000  O
  O3       1.0000 0.19190  0.28500  0.24810  Biso   1.000  O
  O4       1.0000 0.96050  0.06790  0.20340  Biso   1.000  O
  C1       1.0000 0.62450  0.03970  0.09660  Biso   1.000  C
  C2       1.0000 0.29010  0.03460  0.01090  Biso   1.000  C
  C3       1.0000 0.18790  0.06590  0.52670  Biso   1.000  C
  C4       1.0000 0.88930  0.98140  0.40450  Biso   1.000  C
  C5       1.0000 0.38500  0.45070  0.40010  Biso   1.000  C
  C6       1.0000 0.54430  0.42980  0.54510  Biso   1.000  C
  C7       1.0000 0.76130  0.09420  0.20730  Biso   1.000  C
  C8       1.0000 0.40180  0.13970  0.55380  Biso   1.000  C
  C9       1.0000 0.24960  0.39360  0.28780  Biso   1.000  C
  H1       1.0000 0.14470  0.05850  0.01560  Biso   1.000  H
  H2       1.0000 0.80790  0.96630  0.33810  Biso   1.000  H
  H3       1.0000 0.57770  0.38340  0.57960  Biso   1.000  H
  O5       1.0000 0.51920  0.15590  0.63870  Biso   1.000  O
  O6       1.0000 0.20260  0.45660  0.24330  Biso   1.000  O
  Er2      1.0000 0.72367  0.83989  0.67802  Biso   1.000  Er
  N4       1.0000 0.58600  0.92700  0.89090  Biso   1.000  N
  N5       1.0000 0.92320  0.95210  0.56890  Biso   1.000  N
  N6       1.0000 0.56950  0.62050  0.55500  Biso   1.000  N
  O7       1.0000 0.33690  0.83450  0.70270  Biso   1.000  O
  O8       1.0000 0.55100  0.82100  0.51450  Biso   1.000  O
  O9       1.0000 0.80810  0.71500  0.75190  Biso   1.000  O
  O10      1.0000 0.03950  0.93210  0.79660  Biso   1.000  O
  C10      1.0000 0.37550  0.96030  0.90340  Biso   1.000  C
  C11      1.0000 0.70990  0.96540  0.98910  Biso   1.000  C
  C12      1.0000 0.81210  0.93410  0.47330  Biso   1.000  C
  C13      1.0000 0.11070  0.01860  0.59550  Biso   1.000  C
  C14      1.0000 0.61500  0.54930  0.59990  Biso   1.000  C
  C15      1.0000 0.45570  0.57020  0.45490  Biso   1.000  C
  C16      1.0000 0.23870  0.90580  0.79270  Biso   1.000  C
  C17      1.0000 0.59820  0.86030  0.44620  Biso   1.000  C
  C18      1.0000 0.75040  0.60640  0.71220  Biso   1.000  C
  H4       1.0000 0.85530  0.94150  0.98440  Biso   1.000  H
  H5       1.0000 0.19210  0.03370  0.66190  Biso   1.000  H
  H6       1.0000 0.42230  0.61660  0.42040  Biso   1.000  H
  O11      1.0000 0.48080  0.84410  0.36130  Biso   1.000  O
  O12      1.0000 0.79740  0.54340  0.75670  Biso   1.000  O
