data_image0
_cell_length_a       6.0736
_cell_length_b       10.4912
_cell_length_c       13.579
_cell_angle_alpha    72.133
_cell_angle_beta     89.023
_cell_angle_gamma    89.009

_symmetry_space_group_name_H-M    "P 1"
_symmetry_int_tables_number       1

loop_
  _symmetry_equiv_pos_as_xyz
  'x, y, z'

loop_
  _atom_site_label
  _atom_site_occupancy
  _atom_site_fract_x
  _atom_site_fract_y
  _atom_site_fract_z
  _atom_site_thermal_displace_type
  _atom_site_B_iso_or_equiv
  _atom_site_type_symbol
  Nd1      1.0000 0.25094  0.66019  0.70838  Biso   1.000  Nd
  N1       1.0000 0.07840  0.88640  0.57540  Biso   1.000  N
  N2       1.0000 0.43370  0.55680  0.89790  Biso   1.000  N
  N3       1.0000 0.09020  0.57260  0.55910  Biso   1.000  N
  O1       1.0000 0.45410  0.77030  0.54700  Biso   1.000  O
  O2       1.0000 0.06360  0.69950  0.85530  Biso   1.000  O
  O3       1.0000 0.84820  0.64130  0.69930  Biso   1.000  O
  O4       1.0000 0.55980  0.52420  0.67580  Biso   1.000  O
  C1       1.0000 0.18710  0.93930  0.48620  Biso   1.000  C
  C2       1.0000 0.89160  0.94720  0.58930  Biso   1.000  C
  C3       1.0000 0.31670  0.57420  0.97700  Biso   1.000  C
  C4       1.0000 0.61700  0.48180  0.92130  Biso   1.000  C
  C5       1.0000 0.88410  0.52900  0.57440  Biso   1.000  C
  C6       1.0000 0.20650  0.54390  0.48440  Biso   1.000  C
  C7       1.0000 0.39970  0.86900  0.47230  Biso   1.000  C
  C8       1.0000 0.10980  0.65800  0.94980  Biso   1.000  C
  C9       1.0000 0.75400  0.56810  0.65710  Biso   1.000  C
  H1       1.0000 0.81190  0.91330  0.65060  Biso   1.000  H
  H2       1.0000 0.70190  0.46680  0.86820  Biso   1.000  H
  H3       1.0000 0.35080  0.57310  0.47140  Biso   1.000  H
  O5       1.0000 0.50390  0.91230  0.38970  Biso   1.000  O
  O6       1.0000 0.99880  0.68050  0.02010  Biso   1.000  O
  Nd2      1.0000 0.74906  0.33981  0.29162  Biso   1.000  Nd
  N4       1.0000 0.92160  0.11360  0.42460  Biso   1.000  N
  N5       1.0000 0.56630  0.44320  0.10210  Biso   1.000  N
  N6       1.0000 0.90980  0.42740  0.44090  Biso   1.000  N
  O7       1.0000 0.54590  0.22970  0.45300  Biso   1.000  O
  O8       1.0000 0.93640  0.30050  0.14470  Biso   1.000  O
  O9       1.0000 0.15180  0.35870  0.30070  Biso   1.000  O
  O10      1.0000 0.44020  0.47580  0.32420  Biso   1.000  O
  C10      1.0000 0.81290  0.06070  0.51380  Biso   1.000  C
  C11      1.0000 0.10840  0.05280  0.41070  Biso   1.000  C
  C12      1.0000 0.68330  0.42580  0.02300  Biso   1.000  C
  C13      1.0000 0.38300  0.51820  0.07870  Biso   1.000  C
  C14      1.0000 0.11590  0.47100  0.42560  Biso   1.000  C
  C15      1.0000 0.79350  0.45610  0.51560  Biso   1.000  C
  C16      1.0000 0.60030  0.13100  0.52770  Biso   1.000  C
  C17      1.0000 0.89020  0.34200  0.05020  Biso   1.000  C
  C18      1.0000 0.24600  0.43190  0.34290  Biso   1.000  C
  H4       1.0000 0.18810  0.08670  0.34940  Biso   1.000  H
  H5       1.0000 0.29810  0.53320  0.13180  Biso   1.000  H
  H6       1.0000 0.64920  0.42690  0.52860  Biso   1.000  H
  O11      1.0000 0.49610  0.08770  0.61030  Biso   1.000  O
  O12      1.0000 0.00120  0.31950  0.97990  Biso   1.000  O
