data_image0
_cell_length_a       15.6729
_cell_length_b       23.599
_cell_length_c       18.2174
_cell_angle_alpha    90
_cell_angle_beta     105.446
_cell_angle_gamma    90

_symmetry_space_group_name_H-M    "P 1"
_symmetry_int_tables_number       1

loop_
  _symmetry_equiv_pos_as_xyz
  'x, y, z'

loop_
  _atom_site_label
  _atom_site_occupancy
  _atom_site_fract_x
  _atom_site_fract_y
  _atom_site_fract_z
  _atom_site_thermal_displace_type
  _atom_site_B_iso_or_equiv
  _atom_site_type_symbol
  In1      1.0000 0.29002  0.51379  0.86563  Biso   1.000  In
  In2      1.0000 0.19078  0.53038  0.65546  Biso   1.000  In
  O1       1.0000 0.42870  0.51523  0.88810  Biso   1.000  O
  H1       1.0000 0.45670  0.52230  0.84990  Biso   1.000  H
  O2       1.0000 0.27440  0.49181  0.75143  Biso   1.000  O
  H2       1.0000 0.30830  0.46160  0.74240  Biso   1.000  H
  O3       1.0000 0.09040  0.55866  0.56365  Biso   1.000  O
  H3       1.0000 0.08570  0.59690  0.55090  Biso   1.000  H
  O4       1.0000 0.28650  0.54365  0.97610  Biso   1.000  O
  O5       1.0000 0.42590  0.56429  0.04010  Biso   1.000  O
  O6       1.0000 0.28140  0.89653  0.33910  Biso   1.000  O
  O7       1.0000 0.17990  0.89870  0.22700  Biso   1.000  O
  O8       1.0000 0.00990  0.54520  0.40070  Biso   1.000  O
  O9       1.0000 0.91660  0.50525  0.30020  Biso   1.000  O
  O10      1.0000 0.20510  0.45299  0.59730  Biso   1.000  O
  O11      1.0000 0.10730  0.44578  0.48500  Biso   1.000  O
  O12      1.0000 0.77930  0.38710  0.48230  Biso   1.000  O
  O13      1.0000 0.70450  0.42910  0.37720  Biso   1.000  O
  O14      1.0000 0.40810  0.06698  0.50830  Biso   1.000  O
  O15      1.0000 0.29690  0.07435  0.40230  Biso   1.000  O
  C1       1.0000 0.34290  0.56790  0.02860  Biso   1.000  C
  C2       1.0000 0.31170  0.60320  0.08290  Biso   1.000  C
  H4       1.0000 0.35290  0.62490  0.11790  Biso   1.000  H
  C3       1.0000 0.22820  0.60550  0.08420  Biso   1.000  C
  H5       1.0000 0.18620  0.58730  0.04550  Biso   1.000  H
  C4       1.0000 0.19780  0.63560  0.14430  Biso   1.000  C
  C5       1.0000 0.20180  0.69440  0.15210  Biso   1.000  C
  C6       1.0000 0.18040  0.71970  0.21480  Biso   1.000  C
  C7       1.0000 0.14970  0.68690  0.26610  Biso   1.000  C
  C8       1.0000 0.14030  0.62810  0.25440  Biso   1.000  C
  C9       1.0000 0.16400  0.60200  0.19370  Biso   1.000  C
  C10      1.0000 0.23290  0.73130  0.09680  Biso   1.000  C
  H6       1.0000 0.23110  0.77030  0.11110  Biso   1.000  H
  H7       1.0000 0.29240  0.72110  0.09750  Biso   1.000  H
  H8       1.0000 0.19490  0.72580  0.04640  Biso   1.000  H
  C11      1.0000 0.12320  0.71220  0.33290  Biso   1.000  C
  H9       1.0000 0.10410  0.68260  0.36110  Biso   1.000  H
  H10      1.0000 0.17290  0.73160  0.36550  Biso   1.000  H
  H11      1.0000 0.07560  0.73860  0.31470  Biso   1.000  H
  C12      1.0000 0.15990  0.53840  0.18300  Biso   1.000  C
  H12      1.0000 0.17860  0.52870  0.13850  Biso   1.000  H
  H13      1.0000 0.19810  0.52050  0.22680  Biso   1.000  H
  H14      1.0000 0.10020  0.52570  0.17680  Biso   1.000  H
  C13      1.0000 0.18700  0.78160  0.22210  Biso   1.000  C
  H15      1.0000 0.15570  0.80250  0.18030  Biso   1.000  H
  C14      1.0000 0.23180  0.81070  0.28070  Biso   1.000  C
  H16      1.0000 0.26510  0.79140  0.32330  Biso   1.000  H
  C15      1.0000 0.23150  0.87320  0.28170  Biso   1.000  C
  C16      1.0000 0.09870  0.59550  0.30490  Biso   1.000  C
  H17      1.0000 0.12560  0.59570  0.35700  Biso   1.000  H
  C17      1.0000 0.02520  0.56610  0.27940  Biso   1.000  C
  H18      1.0000 0.99990  0.56390  0.22720  Biso   1.000  H
  C18      1.0000 0.98150  0.53660  0.33120  Biso   1.000  C
  C19      1.0000 0.17920  0.43450  0.53170  Biso   1.000  C
  C20      1.0000 0.23730  0.39290  0.50630  Biso   1.000  C
  H19      1.0000 0.21630  0.37480  0.45970  Biso   1.000  H
  C21      1.0000 0.31670  0.38140  0.54790  Biso   1.000  C
  H20      1.0000 0.33470  0.40000  0.59450  Biso   1.000  H
  C22      1.0000 0.38190  0.34180  0.52930  Biso   1.000  C
  C23      1.0000 0.45790  0.36400  0.51490  Biso   1.000  C
  C24      1.0000 0.52420  0.32710  0.50520  Biso   1.000  C
  C25      1.0000 0.51240  0.26890  0.50650  Biso   1.000  C
  C26      1.0000 0.43320  0.24710  0.51590  Biso   1.000  C
  C27      1.0000 0.36950  0.28340  0.53080  Biso   1.000  C
  C28      1.0000 0.46700  0.42830  0.51070  Biso   1.000  C
  H21      1.0000 0.52240  0.43740  0.50050  Biso   1.000  H
  H22      1.0000 0.41930  0.44300  0.47060  Biso   1.000  H
  H23      1.0000 0.46490  0.44490  0.55830  Biso   1.000  H
  C29      1.0000 0.58050  0.22880  0.49060  Biso   1.000  C
  H24      1.0000 0.56160  0.19040  0.49390  Biso   1.000  H
  H25      1.0000 0.58690  0.23570  0.44040  Biso   1.000  H
  H26      1.0000 0.63630  0.23480  0.52740  Biso   1.000  H
  C30      1.0000 0.29070  0.25930  0.55340  Biso   1.000  C
  H27      1.0000 0.29240  0.21860  0.55140  Biso   1.000  H
  H28      1.0000 0.29270  0.27110  0.60420  Biso   1.000  H
  H29      1.0000 0.23710  0.27270  0.51890  Biso   1.000  H
  C31      1.0000 0.61020  0.34890  0.49620  Biso   1.000  C
  H30      1.0000 0.66060  0.33960  0.53440  Biso   1.000  H
  C32      1.0000 0.62150  0.37860  0.44230  Biso   1.000  C
  H31      1.0000 0.57150  0.38870  0.40410  Biso   1.000  H
  C33      1.0000 0.71030  0.39940  0.43460  Biso   1.000  C
  C34      1.0000 0.42020  0.18480  0.51140  Biso   1.000  C
  H32      1.0000 0.46300  0.16300  0.54450  Biso   1.000  H
  C35      1.0000 0.35510  0.15770  0.46560  Biso   1.000  C
  H33      1.0000 0.30780  0.17840  0.43610  Biso   1.000  H
  C36      1.0000 0.35320  0.09460  0.45870  Biso   1.000  C
  In3      1.0000 0.70998  0.01379  0.63437  Biso   1.000  In
  In4      1.0000 0.80922  0.03038  0.84454  Biso   1.000  In
  O16      1.0000 0.57130  0.01523  0.61190  Biso   1.000  O
  H34      1.0000 0.54330  0.02230  0.65010  Biso   1.000  H
  O17      1.0000 0.72560  0.99181  0.74857  Biso   1.000  O
  H35      1.0000 0.69170  0.96160  0.75760  Biso   1.000  H
  O18      1.0000 0.90960  0.05866  0.93635  Biso   1.000  O
  H36      1.0000 0.91430  0.09690  0.94910  Biso   1.000  H
  O19      1.0000 0.71350  0.04365  0.52390  Biso   1.000  O
  O20      1.0000 0.57410  0.06429  0.45990  Biso   1.000  O
  O21      1.0000 0.71860  0.39653  0.16090  Biso   1.000  O
  O22      1.0000 0.82010  0.39870  0.27300  Biso   1.000  O
  O23      1.0000 0.99010  0.04520  0.09930  Biso   1.000  O
  O24      1.0000 0.08340  0.00525  0.19980  Biso   1.000  O
  O25      1.0000 0.79490  0.95299  0.90270  Biso   1.000  O
  O26      1.0000 0.89270  0.94578  0.01500  Biso   1.000  O
  O27      1.0000 0.22070  0.88710  0.01770  Biso   1.000  O
  O28      1.0000 0.29550  0.92910  0.12280  Biso   1.000  O
  O29      1.0000 0.59190  0.56698  0.99170  Biso   1.000  O
  O30      1.0000 0.70310  0.57435  0.09770  Biso   1.000  O
  C37      1.0000 0.65710  0.06790  0.47140  Biso   1.000  C
  C38      1.0000 0.68830  0.10320  0.41710  Biso   1.000  C
  H37      1.0000 0.64710  0.12490  0.38210  Biso   1.000  H
  C39      1.0000 0.77180  0.10550  0.41580  Biso   1.000  C
  H38      1.0000 0.81380  0.08730  0.45450  Biso   1.000  H
  C40      1.0000 0.80220  0.13560  0.35570  Biso   1.000  C
  C41      1.0000 0.79820  0.19440  0.34790  Biso   1.000  C
  C42      1.0000 0.81960  0.21970  0.28520  Biso   1.000  C
  C43      1.0000 0.85030  0.18690  0.23390  Biso   1.000  C
  C44      1.0000 0.85970  0.12810  0.24560  Biso   1.000  C
  C45      1.0000 0.83600  0.10200  0.30630  Biso   1.000  C
  C46      1.0000 0.76710  0.23130  0.40320  Biso   1.000  C
  H39      1.0000 0.76890  0.27030  0.38890  Biso   1.000  H
  H40      1.0000 0.70760  0.22110  0.40250  Biso   1.000  H
  H41      1.0000 0.80510  0.22580  0.45360  Biso   1.000  H
  C47      1.0000 0.87680  0.21220  0.16710  Biso   1.000  C
  H42      1.0000 0.89590  0.18260  0.13890  Biso   1.000  H
  H43      1.0000 0.82710  0.23160  0.13450  Biso   1.000  H
  H44      1.0000 0.92440  0.23860  0.18530  Biso   1.000  H
  C48      1.0000 0.84010  0.03840  0.31700  Biso   1.000  C
  H45      1.0000 0.82140  0.02870  0.36150  Biso   1.000  H
  H46      1.0000 0.80190  0.02050  0.27320  Biso   1.000  H
  H47      1.0000 0.89980  0.02570  0.32320  Biso   1.000  H
  C49      1.0000 0.81300  0.28160  0.27790  Biso   1.000  C
  H48      1.0000 0.84430  0.30250  0.31970  Biso   1.000  H
  C50      1.0000 0.76820  0.31070  0.21930  Biso   1.000  C
  H49      1.0000 0.73490  0.29140  0.17670  Biso   1.000  H
  C51      1.0000 0.76850  0.37320  0.21830  Biso   1.000  C
  C52      1.0000 0.90130  0.09550  0.19510  Biso   1.000  C
  H50      1.0000 0.87440  0.09570  0.14300  Biso   1.000  H
  C53      1.0000 0.97480  0.06610  0.22060  Biso   1.000  C
  H51      1.0000 0.00010  0.06390  0.27280  Biso   1.000  H
  C54      1.0000 0.01850  0.03660  0.16880  Biso   1.000  C
  C55      1.0000 0.82080  0.93450  0.96830  Biso   1.000  C
  C56      1.0000 0.76270  0.89290  0.99370  Biso   1.000  C
  H52      1.0000 0.78370  0.87480  0.04030  Biso   1.000  H
  C57      1.0000 0.68330  0.88140  0.95210  Biso   1.000  C
  H53      1.0000 0.66530  0.90000  0.90550  Biso   1.000  H
  C58      1.0000 0.61810  0.84180  0.97070  Biso   1.000  C
  C59      1.0000 0.54210  0.86400  0.98510  Biso   1.000  C
  C60      1.0000 0.47580  0.82710  0.99480  Biso   1.000  C
  C61      1.0000 0.48760  0.76890  0.99350  Biso   1.000  C
  C62      1.0000 0.56680  0.74710  0.98410  Biso   1.000  C
  C63      1.0000 0.63050  0.78340  0.96920  Biso   1.000  C
  C64      1.0000 0.53300  0.92830  0.98930  Biso   1.000  C
  H54      1.0000 0.47760  0.93740  0.99950  Biso   1.000  H
  H55      1.0000 0.58070  0.94300  0.02940  Biso   1.000  H
  H56      1.0000 0.53510  0.94490  0.94170  Biso   1.000  H
  C65      1.0000 0.41950  0.72880  0.00940  Biso   1.000  C
  H57      1.0000 0.43840  0.69040  0.00610  Biso   1.000  H
  H58      1.0000 0.41310  0.73570  0.05960  Biso   1.000  H
  H59      1.0000 0.36370  0.73480  0.97260  Biso   1.000  H
  C66      1.0000 0.70930  0.75930  0.94660  Biso   1.000  C
  H60      1.0000 0.70760  0.71860  0.94860  Biso   1.000  H
  H61      1.0000 0.70730  0.77110  0.89580  Biso   1.000  H
  H62      1.0000 0.76290  0.77270  0.98110  Biso   1.000  H
  C67      1.0000 0.38980  0.84890  0.00380  Biso   1.000  C
  H63      1.0000 0.33940  0.83960  0.96560  Biso   1.000  H
  C68      1.0000 0.37850  0.87860  0.05770  Biso   1.000  C
  H64      1.0000 0.42850  0.88870  0.09590  Biso   1.000  H
  C69      1.0000 0.28970  0.89940  0.06540  Biso   1.000  C
  C70      1.0000 0.57980  0.68480  0.98860  Biso   1.000  C
  H65      1.0000 0.53700  0.66300  0.95550  Biso   1.000  H
  C71      1.0000 0.64490  0.65770  0.03440  Biso   1.000  C
  H66      1.0000 0.69220  0.67840  0.06390  Biso   1.000  H
  C72      1.0000 0.64680  0.59460  0.04130  Biso   1.000  C
  In5      1.0000 0.70998  0.48621  0.13437  Biso   1.000  In
  In6      1.0000 0.80922  0.46962  0.34454  Biso   1.000  In
  O31      1.0000 0.57130  0.48477  0.11190  Biso   1.000  O
  H67      1.0000 0.54330  0.47770  0.15010  Biso   1.000  H
  O32      1.0000 0.72560  0.50819  0.24857  Biso   1.000  O
  H68      1.0000 0.69170  0.53840  0.25760  Biso   1.000  H
  O33      1.0000 0.90960  0.44134  0.43635  Biso   1.000  O
  H69      1.0000 0.91430  0.40310  0.44910  Biso   1.000  H
  O34      1.0000 0.71350  0.45635  0.02390  Biso   1.000  O
  O35      1.0000 0.57410  0.43571  0.95990  Biso   1.000  O
  O36      1.0000 0.71860  0.10347  0.66090  Biso   1.000  O
  O37      1.0000 0.82010  0.10130  0.77300  Biso   1.000  O
  O38      1.0000 0.99010  0.45480  0.59930  Biso   1.000  O
  O39      1.0000 0.08340  0.49475  0.69980  Biso   1.000  O
  O40      1.0000 0.79490  0.54701  0.40270  Biso   1.000  O
  O41      1.0000 0.89270  0.55422  0.51500  Biso   1.000  O
  O42      1.0000 0.22070  0.61290  0.51770  Biso   1.000  O
  O43      1.0000 0.29550  0.57090  0.62280  Biso   1.000  O
  O44      1.0000 0.59190  0.93302  0.49170  Biso   1.000  O
  O45      1.0000 0.70310  0.92565  0.59770  Biso   1.000  O
  C73      1.0000 0.65710  0.43210  0.97140  Biso   1.000  C
  C74      1.0000 0.68830  0.39680  0.91710  Biso   1.000  C
  H70      1.0000 0.64710  0.37510  0.88210  Biso   1.000  H
  C75      1.0000 0.77180  0.39450  0.91580  Biso   1.000  C
  H71      1.0000 0.81380  0.41270  0.95450  Biso   1.000  H
  C76      1.0000 0.80220  0.36440  0.85570  Biso   1.000  C
  C77      1.0000 0.79820  0.30560  0.84790  Biso   1.000  C
  C78      1.0000 0.81960  0.28030  0.78520  Biso   1.000  C
  C79      1.0000 0.85030  0.31310  0.73390  Biso   1.000  C
  C80      1.0000 0.85970  0.37190  0.74560  Biso   1.000  C
  C81      1.0000 0.83600  0.39800  0.80630  Biso   1.000  C
  C82      1.0000 0.76710  0.26870  0.90320  Biso   1.000  C
  H72      1.0000 0.76890  0.22970  0.88890  Biso   1.000  H
  H73      1.0000 0.70760  0.27890  0.90250  Biso   1.000  H
  H74      1.0000 0.80510  0.27420  0.95360  Biso   1.000  H
  C83      1.0000 0.87680  0.28780  0.66710  Biso   1.000  C
  H75      1.0000 0.89590  0.31740  0.63890  Biso   1.000  H
  H76      1.0000 0.82710  0.26840  0.63450  Biso   1.000  H
  H77      1.0000 0.92440  0.26140  0.68530  Biso   1.000  H
  C84      1.0000 0.84010  0.46160  0.81700  Biso   1.000  C
  H78      1.0000 0.82140  0.47130  0.86150  Biso   1.000  H
  H79      1.0000 0.80190  0.47950  0.77320  Biso   1.000  H
  H80      1.0000 0.89980  0.47430  0.82320  Biso   1.000  H
  C85      1.0000 0.81300  0.21840  0.77790  Biso   1.000  C
  H81      1.0000 0.84430  0.19750  0.81970  Biso   1.000  H
  C86      1.0000 0.76820  0.18930  0.71930  Biso   1.000  C
  H82      1.0000 0.73490  0.20860  0.67670  Biso   1.000  H
  C87      1.0000 0.76850  0.12680  0.71830  Biso   1.000  C
  C88      1.0000 0.90130  0.40450  0.69510  Biso   1.000  C
  H83      1.0000 0.87440  0.40430  0.64300  Biso   1.000  H
  C89      1.0000 0.97480  0.43390  0.72060  Biso   1.000  C
  H84      1.0000 0.00010  0.43610  0.77280  Biso   1.000  H
  C90      1.0000 0.01850  0.46340  0.66880  Biso   1.000  C
  C91      1.0000 0.82080  0.56550  0.46830  Biso   1.000  C
  C92      1.0000 0.76270  0.60710  0.49370  Biso   1.000  C
  H85      1.0000 0.78370  0.62520  0.54030  Biso   1.000  H
  C93      1.0000 0.68330  0.61860  0.45210  Biso   1.000  C
  H86      1.0000 0.66530  0.60000  0.40550  Biso   1.000  H
  C94      1.0000 0.61810  0.65820  0.47070  Biso   1.000  C
  C95      1.0000 0.54210  0.63600  0.48510  Biso   1.000  C
  C96      1.0000 0.47580  0.67290  0.49480  Biso   1.000  C
  C97      1.0000 0.48760  0.73110  0.49350  Biso   1.000  C
  C98      1.0000 0.56680  0.75290  0.48410  Biso   1.000  C
  C99      1.0000 0.63050  0.71660  0.46920  Biso   1.000  C
  C100     1.0000 0.53300  0.57170  0.48930  Biso   1.000  C
  H87      1.0000 0.47760  0.56260  0.49950  Biso   1.000  H
  H88      1.0000 0.58070  0.55700  0.52940  Biso   1.000  H
  H89      1.0000 0.53510  0.55510  0.44170  Biso   1.000  H
  C101     1.0000 0.41950  0.77120  0.50940  Biso   1.000  C
  H90      1.0000 0.43840  0.80960  0.50610  Biso   1.000  H
  H91      1.0000 0.41310  0.76430  0.55960  Biso   1.000  H
  H92      1.0000 0.36370  0.76520  0.47260  Biso   1.000  H
  C102     1.0000 0.70930  0.74070  0.44660  Biso   1.000  C
  H93      1.0000 0.70760  0.78140  0.44860  Biso   1.000  H
  H94      1.0000 0.70730  0.72890  0.39580  Biso   1.000  H
  H95      1.0000 0.76290  0.72730  0.48110  Biso   1.000  H
  C103     1.0000 0.38980  0.65110  0.50380  Biso   1.000  C
  H96      1.0000 0.33940  0.66040  0.46560  Biso   1.000  H
  C104     1.0000 0.37850  0.62140  0.55770  Biso   1.000  C
  H97      1.0000 0.42850  0.61130  0.59590  Biso   1.000  H
  C105     1.0000 0.28970  0.60060  0.56540  Biso   1.000  C
  C106     1.0000 0.57980  0.81520  0.48860  Biso   1.000  C
  H98      1.0000 0.53700  0.83700  0.45550  Biso   1.000  H
  C107     1.0000 0.64490  0.84230  0.53440  Biso   1.000  C
  H99      1.0000 0.69220  0.82160  0.56390  Biso   1.000  H
  C108     1.0000 0.64680  0.90540  0.54130  Biso   1.000  C
  In7      1.0000 0.29002  0.98621  0.36563  Biso   1.000  In
  In8      1.0000 0.19078  0.96962  0.15546  Biso   1.000  In
  O46      1.0000 0.42870  0.98477  0.38810  Biso   1.000  O
  H100     1.0000 0.45670  0.97770  0.34990  Biso   1.000  H
  O47      1.0000 0.27440  0.00819  0.25143  Biso   1.000  O
  H101     1.0000 0.30830  0.03840  0.24240  Biso   1.000  H
  O48      1.0000 0.09040  0.94134  0.06365  Biso   1.000  O
  H102     1.0000 0.08570  0.90310  0.05090  Biso   1.000  H
  O49      1.0000 0.28650  0.95635  0.47610  Biso   1.000  O
  O50      1.0000 0.42590  0.93571  0.54010  Biso   1.000  O
  O51      1.0000 0.28140  0.60347  0.83910  Biso   1.000  O
  O52      1.0000 0.17990  0.60130  0.72700  Biso   1.000  O
  O53      1.0000 0.00990  0.95480  0.90070  Biso   1.000  O
  O54      1.0000 0.91660  0.99475  0.80020  Biso   1.000  O
  O55      1.0000 0.20510  0.04701  0.09730  Biso   1.000  O
  O56      1.0000 0.10730  0.05422  0.98500  Biso   1.000  O
  O57      1.0000 0.77930  0.11290  0.98230  Biso   1.000  O
  O58      1.0000 0.70450  0.07090  0.87720  Biso   1.000  O
  O59      1.0000 0.40810  0.43302  0.00830  Biso   1.000  O
  O60      1.0000 0.29690  0.42565  0.90230  Biso   1.000  O
  C109     1.0000 0.34290  0.93210  0.52860  Biso   1.000  C
  C110     1.0000 0.31170  0.89680  0.58290  Biso   1.000  C
  H103     1.0000 0.35290  0.87510  0.61790  Biso   1.000  H
  C111     1.0000 0.22820  0.89450  0.58420  Biso   1.000  C
  H104     1.0000 0.18620  0.91270  0.54550  Biso   1.000  H
  C112     1.0000 0.19780  0.86440  0.64430  Biso   1.000  C
  C113     1.0000 0.20180  0.80560  0.65210  Biso   1.000  C
  C114     1.0000 0.18040  0.78030  0.71480  Biso   1.000  C
  C115     1.0000 0.14970  0.81310  0.76610  Biso   1.000  C
  C116     1.0000 0.14030  0.87190  0.75440  Biso   1.000  C
  C117     1.0000 0.16400  0.89800  0.69370  Biso   1.000  C
  C118     1.0000 0.23290  0.76870  0.59680  Biso   1.000  C
  H105     1.0000 0.23110  0.72970  0.61110  Biso   1.000  H
  H106     1.0000 0.29240  0.77890  0.59750  Biso   1.000  H
  H107     1.0000 0.19490  0.77420  0.54640  Biso   1.000  H
  C119     1.0000 0.12320  0.78780  0.83290  Biso   1.000  C
  H108     1.0000 0.10410  0.81740  0.86110  Biso   1.000  H
  H109     1.0000 0.17290  0.76840  0.86550  Biso   1.000  H
  H110     1.0000 0.07560  0.76140  0.81470  Biso   1.000  H
  C120     1.0000 0.15990  0.96160  0.68300  Biso   1.000  C
  H111     1.0000 0.17860  0.97130  0.63850  Biso   1.000  H
  H112     1.0000 0.19810  0.97950  0.72680  Biso   1.000  H
  H113     1.0000 0.10020  0.97430  0.67680  Biso   1.000  H
  C121     1.0000 0.18700  0.71840  0.72210  Biso   1.000  C
  H114     1.0000 0.15570  0.69750  0.68030  Biso   1.000  H
  C122     1.0000 0.23180  0.68930  0.78070  Biso   1.000  C
  H115     1.0000 0.26510  0.70860  0.82330  Biso   1.000  H
  C123     1.0000 0.23150  0.62680  0.78170  Biso   1.000  C
  C124     1.0000 0.09870  0.90450  0.80490  Biso   1.000  C
  H116     1.0000 0.12560  0.90430  0.85700  Biso   1.000  H
  C125     1.0000 0.02520  0.93390  0.77940  Biso   1.000  C
  H117     1.0000 0.99990  0.93610  0.72720  Biso   1.000  H
  C126     1.0000 0.98150  0.96340  0.83120  Biso   1.000  C
  C127     1.0000 0.17920  0.06550  0.03170  Biso   1.000  C
  C128     1.0000 0.23730  0.10710  0.00630  Biso   1.000  C
  H118     1.0000 0.21630  0.12520  0.95970  Biso   1.000  H
  C129     1.0000 0.31670  0.11860  0.04790  Biso   1.000  C
  H119     1.0000 0.33470  0.10000  0.09450  Biso   1.000  H
  C130     1.0000 0.38190  0.15820  0.02930  Biso   1.000  C
  C131     1.0000 0.45790  0.13600  0.01490  Biso   1.000  C
  C132     1.0000 0.52420  0.17290  0.00520  Biso   1.000  C
  C133     1.0000 0.51240  0.23110  0.00650  Biso   1.000  C
  C134     1.0000 0.43320  0.25290  0.01590  Biso   1.000  C
  C135     1.0000 0.36950  0.21660  0.03080  Biso   1.000  C
  C136     1.0000 0.46700  0.07170  0.01070  Biso   1.000  C
  H120     1.0000 0.52240  0.06260  0.00050  Biso   1.000  H
  H121     1.0000 0.41930  0.05700  0.97060  Biso   1.000  H
  H122     1.0000 0.46490  0.05510  0.05830  Biso   1.000  H
  C137     1.0000 0.58050  0.27120  0.99060  Biso   1.000  C
  H123     1.0000 0.56160  0.30960  0.99390  Biso   1.000  H
  H124     1.0000 0.58690  0.26430  0.94040  Biso   1.000  H
  H125     1.0000 0.63630  0.26520  0.02740  Biso   1.000  H
  C138     1.0000 0.29070  0.24070  0.05340  Biso   1.000  C
  H126     1.0000 0.29240  0.28140  0.05140  Biso   1.000  H
  H127     1.0000 0.29270  0.22890  0.10420  Biso   1.000  H
  H128     1.0000 0.23710  0.22730  0.01890  Biso   1.000  H
  C139     1.0000 0.61020  0.15110  0.99620  Biso   1.000  C
  H129     1.0000 0.66060  0.16040  0.03440  Biso   1.000  H
  C140     1.0000 0.62150  0.12140  0.94230  Biso   1.000  C
  H130     1.0000 0.57150  0.11130  0.90410  Biso   1.000  H
  C141     1.0000 0.71030  0.10060  0.93460  Biso   1.000  C
  C142     1.0000 0.42020  0.31520  0.01140  Biso   1.000  C
  H131     1.0000 0.46300  0.33700  0.04450  Biso   1.000  H
  C143     1.0000 0.35510  0.34230  0.96560  Biso   1.000  C
  H132     1.0000 0.30780  0.32160  0.93610  Biso   1.000  H
  C144     1.0000 0.35320  0.40540  0.95870  Biso   1.000  C
  In9      1.0000 0.50000  0.50000  0.00000  Biso   1.000  In
  In10     1.0000 0.50000  0.00000  0.50000  Biso   1.000  In
  In11     1.0000 0.00000  0.50000  0.50000  Biso   1.000  In
  In12     1.0000 0.00000  0.00000  0.00000  Biso   1.000  In
