data_image0
_cell_length_a       12.711
_cell_length_b       24.3
_cell_length_c       15.085
_cell_angle_alpha    90
_cell_angle_beta     92.506
_cell_angle_gamma    90

_symmetry_space_group_name_H-M    "P 1"
_symmetry_int_tables_number       1

loop_
  _symmetry_equiv_pos_as_xyz
  'x, y, z'

loop_
  _atom_site_label
  _atom_site_occupancy
  _atom_site_fract_x
  _atom_site_fract_y
  _atom_site_fract_z
  _atom_site_thermal_displace_type
  _atom_site_B_iso_or_equiv
  _atom_site_type_symbol
  Cd1      1.0000 0.96281  0.13416  0.55485  Biso   1.000  Cd
  Cd2      1.0000 0.49703  0.13971  0.27898  Biso   1.000  Cd
  Cd3      1.0000 0.95838  0.12973  0.82682  Biso   1.000  Cd
  Cd4      1.0000 0.51027  0.13387  0.00664  Biso   1.000  Cd
  N1       1.0000 0.91250  0.56670  0.18570  Biso   1.000  N
  O1       1.0000 0.07380  0.20195  0.80270  Biso   1.000  O
  N2       1.0000 0.17050  0.69578  0.44590  Biso   1.000  N
  N3       1.0000 0.38140  0.07087  0.02280  Biso   1.000  N
  O2       1.0000 0.39830  0.20482  0.04130  Biso   1.000  O
  N4       1.0000 0.36550  0.70008  0.71200  Biso   1.000  N
  N5       1.0000 0.09610  0.07233  0.55820  Biso   1.000  N
  N6       1.0000 0.64570  0.19427  0.02990  Biso   1.000  N
  N7       1.0000 0.17200  0.69283  0.18490  Biso   1.000  N
  O3       1.0000 0.50950  0.12218  0.44649  Biso   1.000  O
  C1       1.0000 0.99720  0.12382  0.04570  Biso   1.000  C
  N8       1.0000 0.24800  0.77648  0.42680  Biso   1.000  N
  O4       1.0000 0.00840  0.14700  0.97306  Biso   1.000  O
  O5       1.0000 0.42000  0.19211  0.39390  Biso   1.000  O
  C2       1.0000 0.75480  0.32439  0.09970  Biso   1.000  C
  C3       1.0000 0.36480  0.21617  0.11590  Biso   1.000  C
  C4       1.0000 0.37140  0.75267  0.69060  Biso   1.000  C
  H1       1.0000 0.43440  0.77190  0.68720  Biso   1.000  H
  C5       1.0000 0.44980  0.16210  0.45630  Biso   1.000  C
  C6       1.0000 0.27140  0.68930  0.21960  Biso   1.000  C
  H2       1.0000 0.30100  0.65810  0.24610  Biso   1.000  H
  C7       1.0000 0.47170  0.13630  0.78920  Biso   1.000  C
  N9       1.0000 0.24890  0.77375  0.16970  Biso   1.000  N
  O6       1.0000 0.95170  0.11277  0.38837  Biso   1.000  O
  C8       1.0000 0.79970  0.43236  0.14780  Biso   1.000  C
  O7       1.0000 0.04320  0.18320  0.44290  Biso   1.000  O
  C9       1.0000 0.00770  0.13830  0.21260  Biso   1.000  C
  H3       1.0000 0.95950  0.11000  0.21950  Biso   1.000  H
  C10      1.0000 0.42230  0.16188  0.70660  Biso   1.000  C
  C11      1.0000 0.15390  0.22237  0.19360  Biso   1.000  C
  O8       1.0000 0.06010  0.19602  0.65340  Biso   1.000  O
  C12      1.0000 0.63800  0.24656  0.05100  Biso   1.000  C
  H4       1.0000 0.57480  0.26580  0.05030  Biso   1.000  H
  N10      1.0000 0.29420  0.99565  0.31490  Biso   1.000  N
  C13      1.0000 0.38470  0.02399  0.31140  Biso   1.000  C
  H5       1.0000 0.45020  0.00990  0.32950  Biso   1.000  H
  C14      1.0000 0.01050  0.15297  0.37850  Biso   1.000  C
  C15      1.0000 0.25080  0.83079  0.64820  Biso   1.000  C
  C16      1.0000 0.30140  0.22759  0.63960  Biso   1.000  C
  O9       1.0000 0.45550  0.15765  0.86302  Biso   1.000  O
  C17      1.0000 0.74820  0.18230  0.03970  Biso   1.000  C
  H6       1.0000 0.77670  0.14770  0.02980  Biso   1.000  H
  C18      1.0000 0.26070  0.83186  0.39910  Biso   1.000  C
  C19      1.0000 0.39380  0.02004  0.05150  Biso   1.000  C
  H7       1.0000 0.45940  0.00390  0.06270  Biso   1.000  H
  N11      1.0000 0.37040  0.07375  0.27970  Biso   1.000  N
  N12      1.0000 0.30350  0.99398  0.06270  Biso   1.000  N
  C20      1.0000 0.45850  0.14890  0.62260  Biso   1.000  C
  H8       1.0000 0.51100  0.12260  0.61640  Biso   1.000  H
  C21      1.0000 0.09300  0.21717  0.72530  Biso   1.000  C
  O10      1.0000 0.94860  0.07848  0.05510  Biso   1.000  O
  C22      1.0000 0.11480  0.19416  0.11950  Biso   1.000  C
  H9       1.0000 0.13750  0.20350  0.06370  Biso   1.000  H
  O11      1.0000 0.38780  0.19398  0.18730  Biso   1.000  O
  O12      1.0000 0.22450  0.26506  0.18930  Biso   1.000  O
  O13      1.0000 0.22460  0.26780  0.64384  Biso   1.000  O
  N13      1.0000 0.27570  0.77536  0.67420  Biso   1.000  N
  C23      1.0000 0.28360  0.94048  0.34380  Biso   1.000  C
  N14      1.0000 0.73320  0.26928  0.07410  Biso   1.000  N
  C24      1.0000 0.04610  0.16745  0.28710  Biso   1.000  C
  C25      1.0000 0.17520  0.86740  0.39950  Biso   1.000  C
  H10      1.0000 0.11070  0.85500  0.41830  Biso   1.000  H
  C26      1.0000 0.26480  0.83030  0.14480  Biso   1.000  C
  C27      1.0000 0.29080  0.26616  0.11560  Biso   1.000  C
  H11      1.0000 0.24730  0.26650  0.06040  Biso   1.000  H
  C28      1.0000 0.09180  0.02103  0.58380  Biso   1.000  C
  H12      1.0000 0.03180  0.00500  0.60560  Biso   1.000  H
  C29      1.0000 0.36930  0.90570  0.34770  Biso   1.000  C
  H13      1.0000 0.43470  0.91850  0.33170  Biso   1.000  H
  C30      1.0000 0.85450  0.34460  0.09680  Biso   1.000  C
  H14      1.0000 0.90760  0.32200  0.07710  Biso   1.000  H
  O14      1.0000 0.52860  0.09388  0.78020  Biso   1.000  O
  C31      1.0000 0.09370  0.32014  0.71450  Biso   1.000  C
  H15      1.0000 0.13870  0.35180  0.71160  Biso   1.000  H
  H16      1.0000 0.05200  0.32280  0.76580  Biso   1.000  H
  H17      1.0000 0.04830  0.31860  0.66200  Biso   1.000  H
  C32      1.0000 0.69900  0.41243  0.14930  Biso   1.000  C
  H18      1.0000 0.64480  0.43560  0.16520  Biso   1.000  H
  C33      1.0000 0.16070  0.26829  0.72080  Biso   1.000  C
  H19      1.0000 0.20690  0.27030  0.77440  Biso   1.000  H
  C34      1.0000 0.18630  0.92200  0.37160  Biso   1.000  C
  H20      1.0000 0.12910  0.94590  0.37150  Biso   1.000  H
  N15      1.0000 0.18260  0.99392  0.57550  Biso   1.000  N
  N16      1.0000 0.82250  0.48826  0.17230  Biso   1.000  N
  C35      1.0000 0.11860  0.20959  0.27760  Biso   1.000  C
  H21      1.0000 0.14370  0.22930  0.32700  Biso   1.000  H
  C36      1.0000 0.29090  0.93863  0.09220  Biso   1.000  C
  C37      1.0000 0.34320  0.20004  0.71460  Biso   1.000  C
  H22      1.0000 0.31740  0.20750  0.77010  Biso   1.000  H
  C38      1.0000 0.04070  0.15127  0.12780  Biso   1.000  C
  C39      1.0000 0.27570  0.69150  0.47290  Biso   1.000  C
  H23      1.0000 0.30800  0.65980  0.49560  Biso   1.000  H
  C40      1.0000 0.41420  0.17620  0.54820  Biso   1.000  C
  C41      1.0000 0.20650  0.93886  0.60020  Biso   1.000  C
  C42      1.0000 0.33030  0.86520  0.62180  Biso   1.000  C
  H24      1.0000 0.39860  0.85190  0.61890  Biso   1.000  H
  C43      1.0000 0.67720  0.35910  0.12770  Biso   1.000  C
  H25      1.0000 0.60890  0.34580  0.13190  Biso   1.000  H
  C44      1.0000 0.21620  0.03020  0.28130  Biso   1.000  C
  H26      1.0000 0.14450  0.02260  0.27460  Biso   1.000  H
  C45      1.0000 0.32270  0.73857  0.21000  Biso   1.000  C
  H27      1.0000 0.39220  0.74670  0.22690  Biso   1.000  H
  C46      1.0000 0.91470  0.51464  0.15970  Biso   1.000  C
  H28      1.0000 0.97290  0.49810  0.13570  Biso   1.000  H
  C47      1.0000 0.33670  0.21560  0.55720  Biso   1.000  C
  H29      1.0000 0.30870  0.23390  0.50740  Biso   1.000  H
  C48      1.0000 0.19450  0.92090  0.11680  Biso   1.000  C
  H30      1.0000 0.13790  0.94520  0.11670  Biso   1.000  H
  C49      1.0000 0.15780  0.74671  0.41880  Biso   1.000  C
  H31      1.0000 0.09400  0.76090  0.39650  Biso   1.000  H
  C50      1.0000 0.36200  0.84880  0.12250  Biso   1.000  C
  H32      1.0000 0.41970  0.82520  0.12580  Biso   1.000  H
  C51      1.0000 0.26560  0.07750  0.25990  Biso   1.000  C
  H33      1.0000 0.23220  0.10820  0.23510  Biso   1.000  H
  C52      1.0000 0.32450  0.74040  0.46110  Biso   1.000  C
  H34      1.0000 0.39520  0.74830  0.47340  Biso   1.000  H
  C53      1.0000 0.27290  0.07770  0.01210  Biso   1.000  C
  H35      1.0000 0.23860  0.10930  0.99130  Biso   1.000  H
  C54      1.0000 0.22570  0.03060  0.03720  Biso   1.000  C
  H36      1.0000 0.15350  0.02410  0.03710  Biso   1.000  H
  C55      1.0000 0.75900  0.52540  0.20940  Biso   1.000  C
  H37      1.0000 0.69070  0.51920  0.22680  Biso   1.000  H
  C56      1.0000 0.20270  0.73350  0.68390  Biso   1.000  C
  H38      1.0000 0.12980  0.73620  0.67730  Biso   1.000  H
  C57      1.0000 0.25990  0.68760  0.70520  Biso   1.000  C
  H39      1.0000 0.23160  0.65280  0.71390  Biso   1.000  H
  C58      1.0000 0.35820  0.85130  0.37550  Biso   1.000  C
  H40      1.0000 0.41640  0.82800  0.37820  Biso   1.000  H
  C59      1.0000 0.19300  0.07920  0.53030  Biso   1.000  C
  H41      1.0000 0.21870  0.11180  0.50730  Biso   1.000  H
  C60      1.0000 0.18130  0.86580  0.14210  Biso   1.000  C
  H42      1.0000 0.11520  0.85340  0.15720  Biso   1.000  H
  C61      1.0000 0.35530  0.31850  0.12220  Biso   1.000  C
  H43      1.0000 0.30900  0.34970  0.12180  Biso   1.000  H
  H44      1.0000 0.40000  0.32070  0.07270  Biso   1.000  H
  H45      1.0000 0.39780  0.31820  0.17640  Biso   1.000  H
  C62      1.0000 0.30880  0.91930  0.59970  Biso   1.000  C
  H46      1.0000 0.36320  0.94260  0.58450  Biso   1.000  H
  C63      1.0000 0.12790  0.90400  0.62310  Biso   1.000  C
  H47      1.0000 0.05870  0.91650  0.62220  Biso   1.000  H
  C64      1.0000 0.37390  0.90236  0.09540  Biso   1.000  C
  H48      1.0000 0.43970  0.91430  0.07880  Biso   1.000  H
  C65      1.0000 0.24930  0.03160  0.54020  Biso   1.000  C
  H49      1.0000 0.31880  0.02590  0.52580  Biso   1.000  H
  C66      1.0000 0.81260  0.57330  0.21690  Biso   1.000  C
  H50      1.0000 0.78620  0.60590  0.23950  Biso   1.000  H
  C67      1.0000 0.15040  0.85000  0.64790  Biso   1.000  C
  H51      1.0000 0.09630  0.82690  0.66440  Biso   1.000  H
  C68      1.0000 0.87840  0.39720  0.12210  Biso   1.000  C
  H52      1.0000 0.94770  0.40950  0.12200  Biso   1.000  H
  C69      1.0000 0.80560  0.22720  0.06610  Biso   1.000  C
  H53      1.0000 0.87820  0.22920  0.07660  Biso   1.000  H
  C70      1.0000 0.15980  0.74479  0.15450  Biso   1.000  C
  H54      1.0000 0.09850  0.75860  0.12700  Biso   1.000  H
  Cd5      1.0000 0.03719  0.63416  0.44515  Biso   1.000  Cd
  Cd6      1.0000 0.50297  0.63971  0.72102  Biso   1.000  Cd
  Cd7      1.0000 0.04162  0.62973  0.17318  Biso   1.000  Cd
  Cd8      1.0000 0.48973  0.63387  0.99336  Biso   1.000  Cd
  N17      1.0000 0.08750  0.06670  0.81430  Biso   1.000  N
  O15      1.0000 0.92620  0.70195  0.19730  Biso   1.000  O
  N18      1.0000 0.82950  0.19578  0.55410  Biso   1.000  N
  N19      1.0000 0.61860  0.57087  0.97720  Biso   1.000  N
  O16      1.0000 0.60170  0.70482  0.95870  Biso   1.000  O
  N20      1.0000 0.63450  0.20008  0.28800  Biso   1.000  N
  N21      1.0000 0.90390  0.57233  0.44180  Biso   1.000  N
  N22      1.0000 0.35430  0.69427  0.97010  Biso   1.000  N
  N23      1.0000 0.82800  0.19283  0.81510  Biso   1.000  N
  O17      1.0000 0.49050  0.62218  0.55351  Biso   1.000  O
  C71      1.0000 0.00280  0.62382  0.95430  Biso   1.000  C
  N24      1.0000 0.75200  0.27648  0.57320  Biso   1.000  N
  O18      1.0000 0.99160  0.64700  0.02694  Biso   1.000  O
  O19      1.0000 0.58000  0.69211  0.60610  Biso   1.000  O
  C72      1.0000 0.24520  0.82439  0.90030  Biso   1.000  C
  C73      1.0000 0.63520  0.71617  0.88410  Biso   1.000  C
  C74      1.0000 0.62860  0.25267  0.30940  Biso   1.000  C
  H55      1.0000 0.56560  0.27190  0.31280  Biso   1.000  H
  C75      1.0000 0.55020  0.66210  0.54370  Biso   1.000  C
  C76      1.0000 0.72860  0.18930  0.78040  Biso   1.000  C
  H56      1.0000 0.69900  0.15810  0.75390  Biso   1.000  H
  C77      1.0000 0.52830  0.63630  0.21080  Biso   1.000  C
  N25      1.0000 0.75110  0.27375  0.83030  Biso   1.000  N
  O20      1.0000 0.04830  0.61277  0.61163  Biso   1.000  O
  C78      1.0000 0.20030  0.93236  0.85220  Biso   1.000  C
  O21      1.0000 0.95680  0.68320  0.55710  Biso   1.000  O
  C79      1.0000 0.99230  0.63830  0.78740  Biso   1.000  C
  H57      1.0000 0.04050  0.61000  0.78050  Biso   1.000  H
  C80      1.0000 0.57770  0.66188  0.29340  Biso   1.000  C
  C81      1.0000 0.84610  0.72237  0.80640  Biso   1.000  C
  O22      1.0000 0.93990  0.69602  0.34660  Biso   1.000  O
  C82      1.0000 0.36200  0.74656  0.94900  Biso   1.000  C
  H58      1.0000 0.42520  0.76580  0.94970  Biso   1.000  H
  N26      1.0000 0.70580  0.49565  0.68510  Biso   1.000  N
  C83      1.0000 0.61530  0.52399  0.68860  Biso   1.000  C
  H59      1.0000 0.54980  0.50990  0.67050  Biso   1.000  H
  C84      1.0000 0.98950  0.65297  0.62150  Biso   1.000  C
  C85      1.0000 0.74920  0.33079  0.35180  Biso   1.000  C
  C86      1.0000 0.69860  0.72759  0.36040  Biso   1.000  C
  O23      1.0000 0.54450  0.65765  0.13698  Biso   1.000  O
  C87      1.0000 0.25180  0.68230  0.96030  Biso   1.000  C
  H60      1.0000 0.22330  0.64770  0.97020  Biso   1.000  H
  C88      1.0000 0.73930  0.33186  0.60090  Biso   1.000  C
  C89      1.0000 0.60620  0.52004  0.94850  Biso   1.000  C
  H61      1.0000 0.54060  0.50390  0.93730  Biso   1.000  H
  N27      1.0000 0.62960  0.57375  0.72030  Biso   1.000  N
  N28      1.0000 0.69650  0.49398  0.93730  Biso   1.000  N
  C90      1.0000 0.54150  0.64890  0.37740  Biso   1.000  C
  H62      1.0000 0.48900  0.62260  0.38360  Biso   1.000  H
  C91      1.0000 0.90700  0.71717  0.27470  Biso   1.000  C
  O24      1.0000 0.05140  0.57848  0.94490  Biso   1.000  O
  C92      1.0000 0.88520  0.69416  0.88050  Biso   1.000  C
  H63      1.0000 0.86250  0.70350  0.93630  Biso   1.000  H
  O25      1.0000 0.61220  0.69398  0.81270  Biso   1.000  O
  O26      1.0000 0.77550  0.76506  0.81070  Biso   1.000  O
  O27      1.0000 0.77540  0.76780  0.35616  Biso   1.000  O
  N29      1.0000 0.72430  0.27536  0.32580  Biso   1.000  N
  C93      1.0000 0.71640  0.44048  0.65620  Biso   1.000  C
  N30      1.0000 0.26680  0.76928  0.92590  Biso   1.000  N
  C94      1.0000 0.95390  0.66745  0.71290  Biso   1.000  C
  C95      1.0000 0.82480  0.36740  0.60050  Biso   1.000  C
  H64      1.0000 0.88930  0.35500  0.58170  Biso   1.000  H
  C96      1.0000 0.73520  0.33030  0.85520  Biso   1.000  C
  C97      1.0000 0.70920  0.76616  0.88440  Biso   1.000  C
  H65      1.0000 0.75270  0.76650  0.93960  Biso   1.000  H
  C98      1.0000 0.90820  0.52103  0.41620  Biso   1.000  C
  H66      1.0000 0.96820  0.50500  0.39440  Biso   1.000  H
  C99      1.0000 0.63070  0.40570  0.65230  Biso   1.000  C
  H67      1.0000 0.56530  0.41850  0.66830  Biso   1.000  H
  C100     1.0000 0.14550  0.84460  0.90320  Biso   1.000  C
  H68      1.0000 0.09240  0.82200  0.92290  Biso   1.000  H
  O28      1.0000 0.47140  0.59388  0.21980  Biso   1.000  O
  C101     1.0000 0.90630  0.82014  0.28550  Biso   1.000  C
  H69      1.0000 0.86130  0.85180  0.28840  Biso   1.000  H
  H70      1.0000 0.94800  0.82280  0.23420  Biso   1.000  H
  H71      1.0000 0.95170  0.81860  0.33800  Biso   1.000  H
  C102     1.0000 0.30100  0.91243  0.85070  Biso   1.000  C
  H72      1.0000 0.35520  0.93560  0.83480  Biso   1.000  H
  C103     1.0000 0.83930  0.76829  0.27920  Biso   1.000  C
  H73      1.0000 0.79310  0.77030  0.22560  Biso   1.000  H
  C104     1.0000 0.81370  0.42200  0.62840  Biso   1.000  C
  H74      1.0000 0.87090  0.44590  0.62850  Biso   1.000  H
  N31      1.0000 0.81740  0.49392  0.42450  Biso   1.000  N
  N32      1.0000 0.17750  0.98826  0.82770  Biso   1.000  N
  C105     1.0000 0.88140  0.70959  0.72240  Biso   1.000  C
  H75      1.0000 0.85630  0.72930  0.67300  Biso   1.000  H
  C106     1.0000 0.70910  0.43863  0.90780  Biso   1.000  C
  C107     1.0000 0.65680  0.70004  0.28540  Biso   1.000  C
  H76      1.0000 0.68260  0.70750  0.22990  Biso   1.000  H
  C108     1.0000 0.95930  0.65127  0.87220  Biso   1.000  C
  C109     1.0000 0.72430  0.19150  0.52710  Biso   1.000  C
  H77      1.0000 0.69200  0.15980  0.50440  Biso   1.000  H
  C110     1.0000 0.58580  0.67620  0.45180  Biso   1.000  C
  C111     1.0000 0.79350  0.43886  0.39980  Biso   1.000  C
  C112     1.0000 0.66970  0.36520  0.37820  Biso   1.000  C
  H78      1.0000 0.60140  0.35190  0.38110  Biso   1.000  H
  C113     1.0000 0.32280  0.85910  0.87230  Biso   1.000  C
  H79      1.0000 0.39110  0.84580  0.86810  Biso   1.000  H
  C114     1.0000 0.78380  0.53020  0.71870  Biso   1.000  C
  H80      1.0000 0.85550  0.52260  0.72540  Biso   1.000  H
  C115     1.0000 0.67730  0.23857  0.79000  Biso   1.000  C
  H81      1.0000 0.60780  0.24670  0.77310  Biso   1.000  H
  C116     1.0000 0.08530  0.01464  0.84030  Biso   1.000  C
  H82      1.0000 0.02710  0.99810  0.86430  Biso   1.000  H
  C117     1.0000 0.66330  0.71560  0.44280  Biso   1.000  C
  H83      1.0000 0.69130  0.73390  0.49260  Biso   1.000  H
  C118     1.0000 0.80550  0.42090  0.88320  Biso   1.000  C
  H84      1.0000 0.86210  0.44520  0.88330  Biso   1.000  H
  C119     1.0000 0.84220  0.24671  0.58120  Biso   1.000  C
  H85      1.0000 0.90600  0.26090  0.60350  Biso   1.000  H
  C120     1.0000 0.63800  0.34880  0.87750  Biso   1.000  C
  H86      1.0000 0.58030  0.32520  0.87420  Biso   1.000  H
  C121     1.0000 0.73440  0.57750  0.74010  Biso   1.000  C
  H87      1.0000 0.76780  0.60820  0.76490  Biso   1.000  H
  C122     1.0000 0.67550  0.24040  0.53890  Biso   1.000  C
  H88      1.0000 0.60480  0.24830  0.52660  Biso   1.000  H
  C123     1.0000 0.72710  0.57770  0.98790  Biso   1.000  C
  H89      1.0000 0.76140  0.60930  0.00870  Biso   1.000  H
  C124     1.0000 0.77430  0.53060  0.96280  Biso   1.000  C
  H90      1.0000 0.84650  0.52410  0.96290  Biso   1.000  H
  C125     1.0000 0.24100  0.02540  0.79060  Biso   1.000  C
  H91      1.0000 0.30930  0.01920  0.77320  Biso   1.000  H
  C126     1.0000 0.79730  0.23350  0.31610  Biso   1.000  C
  H92      1.0000 0.87020  0.23620  0.32270  Biso   1.000  H
  C127     1.0000 0.74010  0.18760  0.29480  Biso   1.000  C
  H93      1.0000 0.76840  0.15280  0.28610  Biso   1.000  H
  C128     1.0000 0.64180  0.35130  0.62450  Biso   1.000  C
  H94      1.0000 0.58360  0.32800  0.62180  Biso   1.000  H
  C129     1.0000 0.80700  0.57920  0.46970  Biso   1.000  C
  H95      1.0000 0.78130  0.61180  0.49270  Biso   1.000  H
  C130     1.0000 0.81870  0.36580  0.85790  Biso   1.000  C
  H96      1.0000 0.88480  0.35340  0.84280  Biso   1.000  H
  C131     1.0000 0.64470  0.81850  0.87780  Biso   1.000  C
  H97      1.0000 0.69100  0.84970  0.87820  Biso   1.000  H
  H98      1.0000 0.60000  0.82070  0.92730  Biso   1.000  H
  H99      1.0000 0.60220  0.81820  0.82360  Biso   1.000  H
  C132     1.0000 0.69120  0.41930  0.40030  Biso   1.000  C
  H100     1.0000 0.63680  0.44260  0.41550  Biso   1.000  H
  C133     1.0000 0.87210  0.40400  0.37690  Biso   1.000  C
  H101     1.0000 0.94130  0.41650  0.37780  Biso   1.000  H
  C134     1.0000 0.62610  0.40236  0.90460  Biso   1.000  C
  H102     1.0000 0.56030  0.41430  0.92120  Biso   1.000  H
  C135     1.0000 0.75070  0.53160  0.45980  Biso   1.000  C
  H103     1.0000 0.68120  0.52590  0.47420  Biso   1.000  H
  C136     1.0000 0.18740  0.07330  0.78310  Biso   1.000  C
  H104     1.0000 0.21380  0.10590  0.76050  Biso   1.000  H
  C137     1.0000 0.84960  0.35000  0.35210  Biso   1.000  C
  H105     1.0000 0.90370  0.32690  0.33560  Biso   1.000  H
  C138     1.0000 0.12160  0.89720  0.87790  Biso   1.000  C
  H106     1.0000 0.05230  0.90950  0.87800  Biso   1.000  H
  C139     1.0000 0.19440  0.72720  0.93390  Biso   1.000  C
  H107     1.0000 0.12180  0.72920  0.92340  Biso   1.000  H
  C140     1.0000 0.84020  0.24479  0.84550  Biso   1.000  C
  H108     1.0000 0.90150  0.25860  0.87300  Biso   1.000  H
