data_image0
_cell_length_a       12.705
_cell_length_b       24.2253
_cell_length_c       15.0542
_cell_angle_alpha    90
_cell_angle_beta     92.802
_cell_angle_gamma    90

_symmetry_space_group_name_H-M    "P 1"
_symmetry_int_tables_number       1

loop_
  _symmetry_equiv_pos_as_xyz
  'x, y, z'

loop_
  _atom_site_label
  _atom_site_occupancy
  _atom_site_fract_x
  _atom_site_fract_y
  _atom_site_fract_z
  _atom_site_thermal_displace_type
  _atom_site_B_iso_or_equiv
  _atom_site_type_symbol
  Cd1      1.0000 0.96270  0.90468  0.05426  Biso   1.000  Cd
  Cd2      1.0000 0.95768  0.90977  0.32649  Biso   1.000  Cd
  Cd3      1.0000 0.49720  0.89917  0.78125  Biso   1.000  Cd
  Cd4      1.0000 0.51146  0.90574  0.50890  Biso   1.000  Cd
  N1       1.0000 0.08540  0.97270  0.31420  Biso   1.000  N
  N2       1.0000 0.63500  0.83880  0.78970  Biso   1.000  N
  O1       1.0000 0.07290  0.83700  0.30270  Biso   1.000  O
  N3       1.0000 0.17080  0.34360  0.94490  Biso   1.000  N
  N4       1.0000 0.61840  0.46910  0.47490  Biso   1.000  N
  O2       1.0000 0.40010  0.83470  0.54290  Biso   1.000  O
  N5       1.0000 0.35360  0.34580  0.46880  Biso   1.000  N
  O3       1.0000 0.04210  0.85540  0.94260  Biso   1.000  O
  O4       1.0000 0.00870  0.89220  0.47350  Biso   1.000  O
  N6       1.0000 0.90370  0.46590  0.94290  Biso   1.000  N
  N7       1.0000 0.36910  0.96480  0.78090  Biso   1.000  N
  N8       1.0000 0.82530  0.84650  0.31510  Biso   1.000  N
  N9       1.0000 0.24800  0.26290  0.92620  Biso   1.000  N
  O5       1.0000 0.42160  0.84600  0.89570  Biso   1.000  O
  C1       1.0000 0.30270  0.81150  0.14200  Biso   1.000  C
  C2       1.0000 0.99770  0.91610  0.54550  Biso   1.000  C
  N10      1.0000 0.81810  0.54450  0.92460  Biso   1.000  N
  O6       1.0000 0.50900  0.91760  0.94930  Biso   1.000  O
  C3       1.0000 0.90780  0.51700  0.91840  Biso   1.000  C
  H1       1.0000 0.96850  0.53310  0.89810  Biso   1.000  H
  C4       1.0000 0.47020  0.90370  0.29120  Biso   1.000  C
  C5       1.0000 0.72630  0.85050  0.28000  Biso   1.000  C
  H2       1.0000 0.69620  0.88180  0.25360  Biso   1.000  H
  O7       1.0000 0.22540  0.77100  0.14610  Biso   1.000  O
  C6       1.0000 0.11430  0.84470  0.61940  Biso   1.000  C
  H3       1.0000 0.13670  0.83530  0.56350  Biso   1.000  H
  C7       1.0000 0.73490  0.71050  0.35540  Biso   1.000  C
  C8       1.0000 0.25090  0.35630  0.46070  Biso   1.000  C
  H4       1.0000 0.22140  0.39060  0.47240  Biso   1.000  H
  C9       1.0000 0.81730  0.67420  0.35770  Biso   1.000  C
  H5       1.0000 0.88340  0.68610  0.34200  Biso   1.000  H
  C10      1.0000 0.27460  0.34740  0.97130  Biso   1.000  C
  H6       1.0000 0.30700  0.37920  0.99390  Biso   1.000  H
  N11      1.0000 0.17610  0.05100  0.32800  Biso   1.000  N
  C11      1.0000 0.66940  0.67380  0.87700  Biso   1.000  C
  H7       1.0000 0.60050  0.68680  0.87590  Biso   1.000  H
  C12      1.0000 0.04640  0.87060  0.78520  Biso   1.000  C
  C13      1.0000 0.45240  0.87700  0.95970  Biso   1.000  C
  O8       1.0000 0.52780  0.94570  0.28210  Biso   1.000  O
  C14      1.0000 0.15320  0.81660  0.69310  Biso   1.000  C
  C15      1.0000 0.00860  0.90110  0.71160  Biso   1.000  C
  H8       1.0000 0.96200  0.93020  0.71880  Biso   1.000  H
  C16      1.0000 0.19940  0.10670  0.35250  Biso   1.000  C
  C17      1.0000 0.17700  0.17190  0.89910  Biso   1.000  C
  H9       1.0000 0.11300  0.18500  0.91800  Biso   1.000  H
  C18      1.0000 0.60700  0.51980  0.44630  Biso   1.000  C
  H10      1.0000 0.54150  0.53600  0.43410  Biso   1.000  H
  C19      1.0000 0.16060  0.77050  0.22240  Biso   1.000  C
  H11      1.0000 0.20590  0.76810  0.27680  Biso   1.000  H
  C20      1.0000 0.19480  0.31240  0.43410  Biso   1.000  C
  H12      1.0000 0.12210  0.31050  0.42370  Biso   1.000  H
  C21      1.0000 0.08440  0.02450  0.34040  Biso   1.000  C
  H13      1.0000 0.02660  0.04110  0.36480  Biso   1.000  H
  N12      1.0000 0.72380  0.76330  0.82680  Biso   1.000  N
  O9       1.0000 0.95120  0.96140  0.55460  Biso   1.000  O
  C22      1.0000 0.72450  0.46190  0.48670  Biso   1.000  C
  H14      1.0000 0.75850  0.43020  0.50780  Biso   1.000  H
  C23      1.0000 0.36620  0.82330  0.61730  Biso   1.000  C
  C24      1.0000 0.38440  0.01440  0.81320  Biso   1.000  C
  H15      1.0000 0.44990  0.02810  0.83270  Biso   1.000  H
  C25      1.0000 0.79490  0.59980  0.90150  Biso   1.000  C
  C26      1.0000 0.80340  0.61940  0.38320  Biso   1.000  C
  H16      1.0000 0.86000  0.59510  0.38300  Biso   1.000  H
  C27      1.0000 0.41460  0.86210  0.05110  Biso   1.000  C
  C28      1.0000 0.29080  0.77270  0.61670  Biso   1.000  C
  H17      1.0000 0.24730  0.77260  0.56110  Biso   1.000  H
  C29      1.0000 0.32250  0.18100  0.37170  Biso   1.000  C
  H18      1.0000 0.39030  0.19460  0.36600  Biso   1.000  H
  O10      1.0000 0.95190  0.92600  0.88750  Biso   1.000  O
  C30      1.0000 0.01010  0.88550  0.87730  Biso   1.000  C
  C31      1.0000 0.14310  0.19540  0.40200  Biso   1.000  C
  H19      1.0000 0.08950  0.21850  0.41980  Biso   1.000  H
  O11      1.0000 0.22470  0.77299  0.68910  Biso   1.000  O
  N13      1.0000 0.29440  0.04320  0.81480  Biso   1.000  N
  O12      1.0000 0.45450  0.88160  0.36510  Biso   1.000  O
  N14      1.0000 0.74770  0.76580  0.33110  Biso   1.000  N
  C32      1.0000 0.70900  0.60110  0.40810  Biso   1.000  C
  N15      1.0000 0.26580  0.27040  0.42500  Biso   1.000  N
  N16      1.0000 0.69510  0.54520  0.43650  Biso   1.000  N
  C33      1.0000 0.28250  0.09860  0.84340  Biso   1.000  C
  C34      1.0000 0.34420  0.83930  0.21690  Biso   1.000  C
  H20      1.0000 0.31900  0.83160  0.27250  Biso   1.000  H
  C35      1.0000 0.09330  0.71960  0.21430  Biso   1.000  C
  H21      1.0000 0.13760  0.68760  0.21240  Biso   1.000  H
  H22      1.0000 0.04930  0.72160  0.16070  Biso   1.000  H
  H23      1.0000 0.04990  0.71720  0.26460  Biso   1.000  H
  C36      1.0000 0.21820  0.00780  0.78080  Biso   1.000  C
  H24      1.0000 0.14670  0.01540  0.77240  Biso   1.000  H
  C37      1.0000 0.23830  0.01430  0.28890  Biso   1.000  C
  H25      1.0000 0.30560  0.02080  0.26960  Biso   1.000  H
  C38      1.0000 0.11830  0.82910  0.77760  Biso   1.000  C
  H26      1.0000 0.14340  0.80960  0.82740  Biso   1.000  H
  C39      1.0000 0.35610  0.18810  0.87370  Biso   1.000  C
  H27      1.0000 0.41350  0.21200  0.87450  Biso   1.000  H
  C40      1.0000 0.04120  0.88760  0.62760  Biso   1.000  C
  O13      1.0000 0.38740  0.84520  0.68960  Biso   1.000  O
  C41      1.0000 0.42260  0.87810  0.20860  Biso   1.000  C
  C42      1.0000 0.45760  0.89020  0.12520  Biso   1.000  C
  H28      1.0000 0.50930  0.91680  0.11860  Biso   1.000  H
  C43      1.0000 0.62880  0.78560  0.81020  Biso   1.000  C
  H29      1.0000 0.56580  0.76620  0.81280  Biso   1.000  H
  C44      1.0000 0.63880  0.69220  0.37980  Biso   1.000  C
  H30      1.0000 0.58200  0.71640  0.38080  Biso   1.000  H
  C45      1.0000 0.30040  0.12710  0.35220  Biso   1.000  C
  H31      1.0000 0.35500  0.10360  0.33840  Biso   1.000  H
  C46      1.0000 0.77180  0.50950  0.46220  Biso   1.000  C
  H32      1.0000 0.84400  0.51620  0.46310  Biso   1.000  H
  C47      1.0000 0.85040  0.68890  0.85120  Biso   1.000  C
  H33      1.0000 0.90450  0.71180  0.83390  Biso   1.000  H
  C48      1.0000 0.33550  0.82350  0.05940  Biso   1.000  C
  H34      1.0000 0.30520  0.80610  0.00940  Biso   1.000  H
  C49      1.0000 0.67680  0.80060  0.28990  Biso   1.000  C
  H35      1.0000 0.60770  0.79210  0.27170  Biso   1.000  H
  C50      1.0000 0.35970  0.29400  0.44710  Biso   1.000  C
  H36      1.0000 0.42320  0.27480  0.44670  Biso   1.000  H
  C51      1.0000 0.26080  0.20650  0.89850  Biso   1.000  C
  C52      1.0000 0.79710  0.80500  0.81810  Biso   1.000  C
  H37      1.0000 0.86980  0.80190  0.82660  Biso   1.000  H
  C53      1.0000 0.80840  0.45900  0.97060  Biso   1.000  C
  H38      1.0000 0.78280  0.42630  0.99350  Biso   1.000  H
  C54      1.0000 0.36750  0.13400  0.84730  Biso   1.000  C
  H39      1.0000 0.43320  0.12130  0.83190  Biso   1.000  H
  C55      1.0000 0.18520  0.11730  0.87210  Biso   1.000  C
  H40      1.0000 0.12750  0.09370  0.87290  Biso   1.000  H
  C56      1.0000 0.35420  0.72050  0.62260  Biso   1.000  C
  H41      1.0000 0.30750  0.68930  0.62100  Biso   1.000  H
  H42      1.0000 0.39630  0.72020  0.67730  Biso   1.000  H
  H43      1.0000 0.39930  0.71860  0.57340  Biso   1.000  H
  C57      1.0000 0.74160  0.85160  0.79480  Biso   1.000  C
  H44      1.0000 0.77040  0.88610  0.78420  Biso   1.000  H
  C58      1.0000 0.69210  0.62010  0.90340  Biso   1.000  C
  H45      1.0000 0.63850  0.59750  0.92250  Biso   1.000  H
  C59      1.0000 0.74990  0.70790  0.85230  Biso   1.000  C
  C60      1.0000 0.15720  0.29270  0.91850  Biso   1.000  C
  H46      1.0000 0.09300  0.27850  0.89690  Biso   1.000  H
  C61      1.0000 0.24360  0.21510  0.40000  Biso   1.000  C
  C62      1.0000 0.87070  0.63440  0.87650  Biso   1.000  C
  H47      1.0000 0.93960  0.62150  0.87620  Biso   1.000  H
  C63      1.0000 0.75280  0.50620  0.96130  Biso   1.000  C
  H48      1.0000 0.68360  0.51190  0.97670  Biso   1.000  H
  C64      1.0000 0.62650  0.63670  0.40330  Biso   1.000  C
  H49      1.0000 0.55990  0.62390  0.41600  Biso   1.000  H
  C65      1.0000 0.12110  0.14300  0.37860  Biso   1.000  C
  H50      1.0000 0.05200  0.13050  0.37980  Biso   1.000  H
  C66      1.0000 0.26540  0.96110  0.76210  Biso   1.000  C
  H51      1.0000 0.23130  0.92990  0.73900  Biso   1.000  H
  C67      1.0000 0.83690  0.79630  0.34680  Biso   1.000  C
  H52      1.0000 0.89800  0.78310  0.37610  Biso   1.000  H
  C68      1.0000 0.18460  0.96600  0.28280  Biso   1.000  C
  H53      1.0000 0.21080  0.93320  0.26080  Biso   1.000  H
  C69      1.0000 0.32320  0.29940  0.96050  Biso   1.000  C
  H54      1.0000 0.39400  0.29190  0.97350  Biso   1.000  H
  O14      1.0000 0.06160  0.84290  0.15400  Biso   1.000  O
  C70      1.0000 0.09210  0.82200  0.22590  Biso   1.000  C
  Cd5      1.0000 0.03730  0.40468  0.94574  Biso   1.000  Cd
  Cd6      1.0000 0.04232  0.40977  0.67351  Biso   1.000  Cd
  Cd7      1.0000 0.50280  0.39917  0.21875  Biso   1.000  Cd
  Cd8      1.0000 0.48854  0.40574  0.49110  Biso   1.000  Cd
  N17      1.0000 0.91460  0.47270  0.68580  Biso   1.000  N
  N18      1.0000 0.36500  0.33880  0.21030  Biso   1.000  N
  O15      1.0000 0.92710  0.33700  0.69730  Biso   1.000  O
  N19      1.0000 0.82920  0.84360  0.05510  Biso   1.000  N
  N20      1.0000 0.38160  0.96910  0.52510  Biso   1.000  N
  O16      1.0000 0.59990  0.33470  0.45710  Biso   1.000  O
  N21      1.0000 0.64640  0.84580  0.53120  Biso   1.000  N
  O17      1.0000 0.95790  0.35540  0.05740  Biso   1.000  O
  O18      1.0000 0.99130  0.39220  0.52650  Biso   1.000  O
  N22      1.0000 0.09630  0.96590  0.05710  Biso   1.000  N
  N23      1.0000 0.63090  0.46480  0.21910  Biso   1.000  N
  N24      1.0000 0.17470  0.34650  0.68490  Biso   1.000  N
  N25      1.0000 0.75200  0.76290  0.07380  Biso   1.000  N
  O19      1.0000 0.57840  0.34600  0.10430  Biso   1.000  O
  C71      1.0000 0.69730  0.31150  0.85800  Biso   1.000  C
  C72      1.0000 0.00230  0.41610  0.45450  Biso   1.000  C
  N26      1.0000 0.18190  0.04450  0.07540  Biso   1.000  N
  O20      1.0000 0.49100  0.41760  0.05070  Biso   1.000  O
  C73      1.0000 0.09220  0.01700  0.08160  Biso   1.000  C
  H55      1.0000 0.03150  0.03310  0.10190  Biso   1.000  H
  C74      1.0000 0.52980  0.40370  0.70880  Biso   1.000  C
  C75      1.0000 0.27370  0.35050  0.72000  Biso   1.000  C
  H56      1.0000 0.30380  0.38180  0.74640  Biso   1.000  H
  O21      1.0000 0.77460  0.27100  0.85390  Biso   1.000  O
  C76      1.0000 0.88570  0.34470  0.38060  Biso   1.000  C
  H57      1.0000 0.86330  0.33530  0.43650  Biso   1.000  H
  C77      1.0000 0.26510  0.21050  0.64460  Biso   1.000  C
  C78      1.0000 0.74910  0.85630  0.53930  Biso   1.000  C
  H58      1.0000 0.77860  0.89060  0.52760  Biso   1.000  H
  C79      1.0000 0.18270  0.17420  0.64230  Biso   1.000  C
  H59      1.0000 0.11660  0.18610  0.65800  Biso   1.000  H
  C80      1.0000 0.72540  0.84740  0.02870  Biso   1.000  C
  H60      1.0000 0.69300  0.87920  0.00610  Biso   1.000  H
  N27      1.0000 0.82390  0.55100  0.67200  Biso   1.000  N
  C81      1.0000 0.33060  0.17380  0.12300  Biso   1.000  C
  H61      1.0000 0.39950  0.18680  0.12410  Biso   1.000  H
  C82      1.0000 0.95360  0.37060  0.21480  Biso   1.000  C
  C83      1.0000 0.54760  0.37700  0.04030  Biso   1.000  C
  O22      1.0000 0.47220  0.44570  0.71790  Biso   1.000  O
  C84      1.0000 0.84680  0.31660  0.30690  Biso   1.000  C
  C85      1.0000 0.99140  0.40110  0.28840  Biso   1.000  C
  H62      1.0000 0.03800  0.43020  0.28120  Biso   1.000  H
  C86      1.0000 0.80060  0.60670  0.64750  Biso   1.000  C
  C87      1.0000 0.82300  0.67190  0.10090  Biso   1.000  C
  H63      1.0000 0.88700  0.68500  0.08200  Biso   1.000  H
  C88      1.0000 0.39300  0.01980  0.55370  Biso   1.000  C
  H64      1.0000 0.45850  0.03600  0.56590  Biso   1.000  H
  C89      1.0000 0.83940  0.27050  0.77760  Biso   1.000  C
  H65      1.0000 0.79410  0.26810  0.72320  Biso   1.000  H
  C90      1.0000 0.80520  0.81240  0.56590  Biso   1.000  C
  H66      1.0000 0.87790  0.81050  0.57630  Biso   1.000  H
  C91      1.0000 0.91560  0.52450  0.65960  Biso   1.000  C
  H67      1.0000 0.97340  0.54110  0.63520  Biso   1.000  H
  N28      1.0000 0.27620  0.26330  0.17320  Biso   1.000  N
  O23      1.0000 0.04880  0.46140  0.44540  Biso   1.000  O
  C92      1.0000 0.27550  0.96190  0.51330  Biso   1.000  C
  H68      1.0000 0.24150  0.93020  0.49220  Biso   1.000  H
  C93      1.0000 0.63380  0.32330  0.38270  Biso   1.000  C
  C94      1.0000 0.61560  0.51440  0.18680  Biso   1.000  C
  H69      1.0000 0.55010  0.52810  0.16730  Biso   1.000  H
  C95      1.0000 0.20510  0.09980  0.09850  Biso   1.000  C
  C96      1.0000 0.19660  0.11940  0.61680  Biso   1.000  C
  H70      1.0000 0.14000  0.09510  0.61700  Biso   1.000  H
  C97      1.0000 0.58540  0.36210  0.94890  Biso   1.000  C
  C98      1.0000 0.70920  0.27270  0.38330  Biso   1.000  C
  H71      1.0000 0.75270  0.27260  0.43890  Biso   1.000  H
  C99      1.0000 0.67750  0.68100  0.62830  Biso   1.000  C
  H72      1.0000 0.60970  0.69460  0.63400  Biso   1.000  H
  O24      1.0000 0.04810  0.42600  0.11250  Biso   1.000  O
  C100     1.0000 0.98990  0.38550  0.12270  Biso   1.000  C
  C101     1.0000 0.85690  0.69540  0.59800  Biso   1.000  C
  H73      1.0000 0.91050  0.71850  0.58020  Biso   1.000  H
  O25      1.0000 0.77530  0.27299  0.31090  Biso   1.000  O
  N29      1.0000 0.70560  0.54320  0.18520  Biso   1.000  N
  O26      1.0000 0.54550  0.38160  0.63490  Biso   1.000  O
  N30      1.0000 0.25230  0.26580  0.66890  Biso   1.000  N
  C102     1.0000 0.29100  0.10110  0.59190  Biso   1.000  C
  N31      1.0000 0.73420  0.77040  0.57500  Biso   1.000  N
  N32      1.0000 0.30490  0.04520  0.56350  Biso   1.000  N
  C103     1.0000 0.71750  0.59860  0.15660  Biso   1.000  C
  C104     1.0000 0.65580  0.33930  0.78310  Biso   1.000  C
  H74      1.0000 0.68100  0.33160  0.72750  Biso   1.000  H
  C105     1.0000 0.90670  0.21960  0.78570  Biso   1.000  C
  H75      1.0000 0.86240  0.18760  0.78760  Biso   1.000  H
  H76      1.0000 0.95070  0.22160  0.83930  Biso   1.000  H
  H77      1.0000 0.95010  0.21720  0.73540  Biso   1.000  H
  C106     1.0000 0.78180  0.50780  0.21920  Biso   1.000  C
  H78      1.0000 0.85330  0.51540  0.22760  Biso   1.000  H
  C107     1.0000 0.76170  0.51430  0.71110  Biso   1.000  C
  H79      1.0000 0.69440  0.52080  0.73040  Biso   1.000  H
  C108     1.0000 0.88170  0.32910  0.22240  Biso   1.000  C
  H80      1.0000 0.85660  0.30960  0.17260  Biso   1.000  H
  C109     1.0000 0.64390  0.68810  0.12630  Biso   1.000  C
  H81      1.0000 0.58650  0.71200  0.12550  Biso   1.000  H
  C110     1.0000 0.95880  0.38760  0.37240  Biso   1.000  C
  O27      1.0000 0.61260  0.34520  0.31040  Biso   1.000  O
  C111     1.0000 0.57740  0.37810  0.79140  Biso   1.000  C
  C112     1.0000 0.54240  0.39020  0.87480  Biso   1.000  C
  H82      1.0000 0.49070  0.41680  0.88140  Biso   1.000  H
  C113     1.0000 0.37120  0.28560  0.18980  Biso   1.000  C
  H83      1.0000 0.43420  0.26620  0.18720  Biso   1.000  H
  C114     1.0000 0.36120  0.19220  0.62020  Biso   1.000  C
  H84      1.0000 0.41800  0.21640  0.61920  Biso   1.000  H
  C115     1.0000 0.69960  0.62710  0.64780  Biso   1.000  C
  H85      1.0000 0.64500  0.60360  0.66160  Biso   1.000  H
  C116     1.0000 0.22820  0.00950  0.53780  Biso   1.000  C
  H86      1.0000 0.15600  0.01620  0.53690  Biso   1.000  H
  C117     1.0000 0.14960  0.18890  0.14880  Biso   1.000  C
  H87      1.0000 0.09550  0.21180  0.16610  Biso   1.000  H
  C118     1.0000 0.66450  0.32350  0.94060  Biso   1.000  C
  H88      1.0000 0.69480  0.30610  0.99060  Biso   1.000  H
  C119     1.0000 0.32320  0.30060  0.71010  Biso   1.000  C
  H89      1.0000 0.39230  0.29210  0.72830  Biso   1.000  H
  C120     1.0000 0.64030  0.79400  0.55290  Biso   1.000  C
  H90      1.0000 0.57680  0.77480  0.55330  Biso   1.000  H
  C121     1.0000 0.73920  0.70650  0.10150  Biso   1.000  C
  C122     1.0000 0.20290  0.30500  0.18190  Biso   1.000  C
  H91      1.0000 0.13020  0.30190  0.17340  Biso   1.000  H
  C123     1.0000 0.19160  0.95900  0.02940  Biso   1.000  C
  H92      1.0000 0.21720  0.92630  0.00650  Biso   1.000  H
  C124     1.0000 0.63250  0.63400  0.15270  Biso   1.000  C
  H93      1.0000 0.56680  0.62130  0.16810  Biso   1.000  H
  C125     1.0000 0.81480  0.61730  0.12790  Biso   1.000  C
  H94      1.0000 0.87250  0.59370  0.12710  Biso   1.000  H
  C126     1.0000 0.64580  0.22050  0.37740  Biso   1.000  C
  H95      1.0000 0.69250  0.18930  0.37900  Biso   1.000  H
  H96      1.0000 0.60370  0.22020  0.32270  Biso   1.000  H
  H97      1.0000 0.60070  0.21860  0.42660  Biso   1.000  H
  C127     1.0000 0.25840  0.35160  0.20520  Biso   1.000  C
  H98      1.0000 0.22960  0.38610  0.21580  Biso   1.000  H
  C128     1.0000 0.30790  0.12010  0.09660  Biso   1.000  C
  H99      1.0000 0.36150  0.09750  0.07750  Biso   1.000  H
  C129     1.0000 0.25010  0.20790  0.14770  Biso   1.000  C
  C130     1.0000 0.84280  0.79270  0.08150  Biso   1.000  C
  H100     1.0000 0.90700  0.77850  0.10310  Biso   1.000  H
  C131     1.0000 0.75640  0.71510  0.60000  Biso   1.000  C
  C132     1.0000 0.12930  0.13440  0.12350  Biso   1.000  C
  H101     1.0000 0.06040  0.12150  0.12380  Biso   1.000  H
  C133     1.0000 0.24720  0.00620  0.03870  Biso   1.000  C
  H102     1.0000 0.31640  0.01190  0.02330  Biso   1.000  H
  C134     1.0000 0.37350  0.13670  0.59670  Biso   1.000  C
  H103     1.0000 0.44010  0.12390  0.58400  Biso   1.000  H
  C135     1.0000 0.87890  0.64300  0.62140  Biso   1.000  C
  H104     1.0000 0.94800  0.63050  0.62020  Biso   1.000  H
  C136     1.0000 0.73460  0.46110  0.23790  Biso   1.000  C
  H105     1.0000 0.76870  0.42990  0.26100  Biso   1.000  H
  C137     1.0000 0.16310  0.29630  0.65320  Biso   1.000  C
  H106     1.0000 0.10200  0.28310  0.62390  Biso   1.000  H
  C138     1.0000 0.81540  0.46600  0.71720  Biso   1.000  C
  H107     1.0000 0.78920  0.43320  0.73920  Biso   1.000  H
  C139     1.0000 0.67680  0.79940  0.03950  Biso   1.000  C
  H108     1.0000 0.60600  0.79190  0.02650  Biso   1.000  H
  O28      1.0000 0.93840  0.34290  0.84600  Biso   1.000  O
  C140     1.0000 0.90790  0.32200  0.77410  Biso   1.000  C
