data_VATXEU_clean
_audit_creation_date              2014-07-02
_audit_creation_method            'Materials Studio'
_symmetry_space_group_name_H-M    'P1'
_symmetry_Int_Tables_number       1
_symmetry_cell_setting            triclinic
loop_
_symmetry_equiv_pos_as_xyz
  x,y,z
_cell_length_a                    12.7280
_cell_length_b                    19.1770
_cell_length_c                    19.1770
_cell_angle_alpha                 120.0000
_cell_angle_beta                  90.0000
_cell_angle_gamma                 90.0000
loop_
_atom_site_label
_atom_site_type_symbol
_atom_site_fract_x
_atom_site_fract_y
_atom_site_fract_z
_atom_site_U_iso_or_equiv
_atom_site_adp_type
_atom_site_occupancy
U1     U     0.50000   0.66695  -0.00000   0.01267  Uiso   1.00
U2     U     0.50000   0.33305   0.33305   0.01267  Uiso   1.00
U3     U     0.50000   0.00000   0.66695   0.01267  Uiso   1.00
U4     U     0.00000   0.33305  -0.00000   0.01267  Uiso   1.00
U5     U     0.00000   0.66695   0.66695   0.01267  Uiso   1.00
U6     U     0.00000   0.00000   0.33305   0.01267  Uiso   1.00
U7     U     0.50000   0.33305  -0.00000   0.01267  Uiso   1.00
U8     U     0.50000   0.66695   0.66695   0.01267  Uiso   1.00
U9     U     0.50000   0.00000   0.33305   0.01267  Uiso   1.00
U10    U     0.00000   0.66695  -0.00000   0.01267  Uiso   1.00
U11    U     0.00000   0.33305   0.33305   0.01267  Uiso   1.00
U12    U     0.00000   0.00000   0.66695   0.01267  Uiso   1.00
C1     C     0.25000   0.67250   0.04490   0.01267  Uiso   1.00
C2     C     0.25000   0.68680   0.97500   0.01267  Uiso   1.00
C3     C     0.25000   0.37240   0.32750   0.01267  Uiso   1.00
C4     C     0.25000   0.28820   0.31320   0.01267  Uiso   1.00
C5     C     0.25000   0.95510   0.62760   0.01267  Uiso   1.00
C6     C     0.25000   0.02500   0.71180   0.01267  Uiso   1.00
C7     C     0.75000   0.32750   0.95510   0.01267  Uiso   1.00
C8     C     0.75000   0.31320   0.02500   0.01267  Uiso   1.00
C9     C     0.75000   0.62760   0.67250   0.01267  Uiso   1.00
C10    C     0.75000   0.71180   0.68680   0.01267  Uiso   1.00
C11    C     0.75000   0.04490   0.37240   0.01267  Uiso   1.00
C12    C     0.75000   0.97500   0.28820   0.01267  Uiso   1.00
C13    C     0.75000   0.62760   0.95510   0.01267  Uiso   1.00
C14    C     0.75000   0.71180   0.02500   0.01267  Uiso   1.00
C15    C     0.75000   0.04490   0.67250   0.01267  Uiso   1.00
C16    C     0.75000   0.97500   0.68680   0.01267  Uiso   1.00
C17    C     0.75000   0.32750   0.37240   0.01267  Uiso   1.00
C18    C     0.75000   0.31320   0.28820   0.01267  Uiso   1.00
C19    C     0.25000   0.37240   0.04490   0.01267  Uiso   1.00
C20    C     0.25000   0.28820   0.97500   0.01267  Uiso   1.00
C21    C     0.25000   0.95510   0.32750   0.01267  Uiso   1.00
C22    C     0.25000   0.02500   0.31320   0.01267  Uiso   1.00
C23    C     0.25000   0.67250   0.62760   0.01267  Uiso   1.00
C24    C     0.25000   0.68680   0.71180   0.01267  Uiso   1.00
C25    C     0.47000   0.85230   0.14770   0.01267  Uiso   1.00
C26    C     0.50600   0.80865   0.19135   0.01267  Uiso   1.00
C27    C     0.47000   0.29540   0.14770   0.01267  Uiso   1.00
C28    C     0.50600   0.38270   0.19135   0.01267  Uiso   1.00
C29    C     0.47000   0.85230   0.70460   0.01267  Uiso   1.00
C30    C     0.50600   0.80865   0.61730   0.01267  Uiso   1.00
C31    C     0.97000   0.14770   0.85230   0.01267  Uiso   1.00
C32    C     0.00600   0.19135   0.80865   0.01267  Uiso   1.00
C33    C     0.97000   0.70460   0.85230   0.01267  Uiso   1.00
C34    C     0.00600   0.61730   0.80865   0.01267  Uiso   1.00
C35    C     0.97000   0.14770   0.29540   0.01267  Uiso   1.00
C36    C     0.00600   0.19135   0.38270   0.01267  Uiso   1.00
C37    C     0.53000   0.70460   0.85230   0.01267  Uiso   1.00
C38    C     0.49400   0.61730   0.80865   0.01267  Uiso   1.00
C39    C     0.53000   0.14770   0.85230   0.01267  Uiso   1.00
C40    C     0.49400   0.19135   0.80865   0.01267  Uiso   1.00
C41    C     0.53000   0.14770   0.29540   0.01267  Uiso   1.00
C42    C     0.49400   0.19135   0.38270   0.01267  Uiso   1.00
C43    C     0.03000   0.29540   0.14770   0.01267  Uiso   1.00
C44    C     0.99400   0.38270   0.19135   0.01267  Uiso   1.00
C45    C     0.03000   0.85230   0.14770   0.01267  Uiso   1.00
C46    C     0.99400   0.80865   0.19135   0.01267  Uiso   1.00
C47    C     0.03000   0.85230   0.70460   0.01267  Uiso   1.00
C48    C     0.99400   0.80865   0.61730   0.01267  Uiso   1.00
C49    C     0.54050   0.51630   0.03260   0.01267  Uiso   1.00
C50    C     0.54050   0.51630   0.48370   0.01267  Uiso   1.00
C51    C     0.54050   0.96740   0.48370   0.01267  Uiso   1.00
C52    C     0.04050   0.48370   0.96740   0.01267  Uiso   1.00
C53    C     0.04050   0.48370   0.51630   0.01267  Uiso   1.00
C54    C     0.04050   0.03260   0.51630   0.01267  Uiso   1.00
C55    C     0.45950   0.48370   0.96740   0.01267  Uiso   1.00
C56    C     0.45950   0.03260   0.51630   0.01267  Uiso   1.00
C57    C     0.45950   0.48370   0.51630   0.01267  Uiso   1.00
C58    C     0.95950   0.51630   0.03260   0.01267  Uiso   1.00
C59    C     0.95950   0.96740   0.48370   0.01267  Uiso   1.00
C60    C     0.95950   0.51630   0.48370   0.01267  Uiso   1.00
O1     O     0.33920   0.67200   0.07370   0.01267  Uiso   1.00
O2     O     0.52170   0.73410   0.14980   0.01267  Uiso   1.00
O3     O     0.45690   0.81050   0.07290   0.01267  Uiso   1.00
O4     O     0.57860   0.58700   0.05370   0.01267  Uiso   1.00
O5     O     0.33700   0.69470   0.95120   0.01267  Uiso   1.00
O6     O     0.33920   0.40170   0.32800   0.01267  Uiso   1.00
O7     O     0.52170   0.41570   0.26590   0.01267  Uiso   1.00
O8     O     0.45690   0.26240   0.18950   0.01267  Uiso   1.00
O9     O     0.57860   0.46670   0.41300   0.01267  Uiso   1.00
O10    O     0.33700   0.25650   0.30530   0.01267  Uiso   1.00
O11    O     0.33920   0.92630   0.59830   0.01267  Uiso   1.00
O12    O     0.52170   0.85020   0.58430   0.01267  Uiso   1.00
O13    O     0.45690   0.92710   0.73760   0.01267  Uiso   1.00
O14    O     0.57860   0.94630   0.53330   0.01267  Uiso   1.00
O15    O     0.33700   0.04880   0.74350   0.01267  Uiso   1.00
O16    O     0.83920   0.32800   0.92630   0.01267  Uiso   1.00
O17    O     0.02170   0.26590   0.85020   0.01267  Uiso   1.00
O18    O     0.95690   0.18950   0.92710   0.01267  Uiso   1.00
O19    O     0.07860   0.41300   0.94630   0.01267  Uiso   1.00
O20    O     0.83700   0.30530   0.04880   0.01267  Uiso   1.00
O21    O     0.83920   0.59830   0.67200   0.01267  Uiso   1.00
O22    O     0.02170   0.58430   0.73410   0.01267  Uiso   1.00
O23    O     0.95690   0.73760   0.81050   0.01267  Uiso   1.00
O24    O     0.07860   0.53330   0.58700   0.01267  Uiso   1.00
O25    O     0.83700   0.74350   0.69470   0.01267  Uiso   1.00
O26    O     0.83920   0.07370   0.40170   0.01267  Uiso   1.00
O27    O     0.02170   0.14980   0.41570   0.01267  Uiso   1.00
O28    O     0.95690   0.07290   0.26240   0.01267  Uiso   1.00
O29    O     0.07860   0.05370   0.46670   0.01267  Uiso   1.00
O30    O     0.83700   0.95120   0.25650   0.01267  Uiso   1.00
O31    O     0.66080   0.59830   0.92630   0.01267  Uiso   1.00
O32    O     0.47830   0.58430   0.85020   0.01267  Uiso   1.00
O33    O     0.54310   0.73760   0.92710   0.01267  Uiso   1.00
O34    O     0.42140   0.53330   0.94630   0.01267  Uiso   1.00
O35    O     0.66300   0.74350   0.04880   0.01267  Uiso   1.00
O36    O     0.66080   0.07370   0.67200   0.01267  Uiso   1.00
O37    O     0.47830   0.14980   0.73410   0.01267  Uiso   1.00
O38    O     0.54310   0.07290   0.81050   0.01267  Uiso   1.00
O39    O     0.42140   0.05370   0.58700   0.01267  Uiso   1.00
O40    O     0.66300   0.95120   0.69470   0.01267  Uiso   1.00
O41    O     0.66080   0.32800   0.40170   0.01267  Uiso   1.00
O42    O     0.47830   0.26590   0.41570   0.01267  Uiso   1.00
O43    O     0.54310   0.18950   0.26240   0.01267  Uiso   1.00
O44    O     0.42140   0.41300   0.46670   0.01267  Uiso   1.00
O45    O     0.66300   0.30530   0.25650   0.01267  Uiso   1.00
O46    O     0.16080   0.40170   0.07370   0.01267  Uiso   1.00
O47    O     0.97830   0.41570   0.14980   0.01267  Uiso   1.00
O48    O     0.04310   0.26240   0.07290   0.01267  Uiso   1.00
O49    O     0.92140   0.46670   0.05370   0.01267  Uiso   1.00
O50    O     0.16300   0.25650   0.95120   0.01267  Uiso   1.00
O51    O     0.16080   0.92630   0.32800   0.01267  Uiso   1.00
O52    O     0.97830   0.85020   0.26590   0.01267  Uiso   1.00
O53    O     0.04310   0.92710   0.18950   0.01267  Uiso   1.00
O54    O     0.92140   0.94630   0.41300   0.01267  Uiso   1.00
O55    O     0.16300   0.04880   0.30530   0.01267  Uiso   1.00
O56    O     0.16080   0.67200   0.59830   0.01267  Uiso   1.00
O57    O     0.97830   0.73410   0.58430   0.01267  Uiso   1.00
O58    O     0.04310   0.81050   0.73760   0.01267  Uiso   1.00
O59    O     0.92140   0.58700   0.53330   0.01267  Uiso   1.00
O60    O     0.16300   0.69470   0.74350   0.01267  Uiso   1.00
O61    O     0.66080   0.32800   0.92630   0.01267  Uiso   1.00
O62    O     0.47830   0.26590   0.85020   0.01267  Uiso   1.00
O63    O     0.54310   0.18950   0.92710   0.01267  Uiso   1.00
O64    O     0.42140   0.41300   0.94630   0.01267  Uiso   1.00
O65    O     0.66300   0.30530   0.04880   0.01267  Uiso   1.00
O66    O     0.66080   0.59830   0.67200   0.01267  Uiso   1.00
O67    O     0.47830   0.58430   0.73410   0.01267  Uiso   1.00
O68    O     0.54310   0.73760   0.81050   0.01267  Uiso   1.00
O69    O     0.42140   0.53330   0.58700   0.01267  Uiso   1.00
O70    O     0.66300   0.74350   0.69470   0.01267  Uiso   1.00
O71    O     0.66080   0.07370   0.40170   0.01267  Uiso   1.00
O72    O     0.47830   0.14980   0.41570   0.01267  Uiso   1.00
O73    O     0.54310   0.07290   0.26240   0.01267  Uiso   1.00
O74    O     0.42140   0.05370   0.46670   0.01267  Uiso   1.00
O75    O     0.66300   0.95120   0.25650   0.01267  Uiso   1.00
O76    O     0.16080   0.67200   0.07370   0.01267  Uiso   1.00
O77    O     0.97830   0.73410   0.14980   0.01267  Uiso   1.00
O78    O     0.04310   0.81050   0.07290   0.01267  Uiso   1.00
O79    O     0.92140   0.58700   0.05370   0.01267  Uiso   1.00
O80    O     0.16300   0.69470   0.95120   0.01267  Uiso   1.00
O81    O     0.16080   0.40170   0.32800   0.01267  Uiso   1.00
O82    O     0.97830   0.41570   0.26590   0.01267  Uiso   1.00
O83    O     0.04310   0.26240   0.18950   0.01267  Uiso   1.00
O84    O     0.92140   0.46670   0.41300   0.01267  Uiso   1.00
O85    O     0.16300   0.25650   0.30530   0.01267  Uiso   1.00
O86    O     0.16080   0.92630   0.59830   0.01267  Uiso   1.00
O87    O     0.97830   0.85020   0.58430   0.01267  Uiso   1.00
O88    O     0.04310   0.92710   0.73760   0.01267  Uiso   1.00
O89    O     0.92140   0.94630   0.53330   0.01267  Uiso   1.00
O90    O     0.16300   0.04880   0.74350   0.01267  Uiso   1.00
O91    O     0.33920   0.40170   0.07370   0.01267  Uiso   1.00
O92    O     0.52170   0.41570   0.14980   0.01267  Uiso   1.00
O93    O     0.45690   0.26240   0.07290   0.01267  Uiso   1.00
O94    O     0.57860   0.46670   0.05370   0.01267  Uiso   1.00
O95    O     0.33700   0.25650   0.95120   0.01267  Uiso   1.00
O96    O     0.33920   0.92630   0.32800   0.01267  Uiso   1.00
O97    O     0.52170   0.85020   0.26590   0.01267  Uiso   1.00
O98    O     0.45690   0.92710   0.18950   0.01267  Uiso   1.00
O99    O     0.57860   0.94630   0.41300   0.01267  Uiso   1.00
O100   O     0.33700   0.04880   0.30530   0.01267  Uiso   1.00
O101   O     0.33920   0.67200   0.59830   0.01267  Uiso   1.00
O102   O     0.52170   0.73410   0.58430   0.01267  Uiso   1.00
O103   O     0.45690   0.81050   0.73760   0.01267  Uiso   1.00
O104   O     0.57860   0.58700   0.53330   0.01267  Uiso   1.00
O105   O     0.33700   0.69470   0.74350   0.01267  Uiso   1.00
O106   O     0.83920   0.59830   0.92630   0.01267  Uiso   1.00
O107   O     0.02170   0.58430   0.85020   0.01267  Uiso   1.00
O108   O     0.95690   0.73760   0.92710   0.01267  Uiso   1.00
O109   O     0.07860   0.53330   0.94630   0.01267  Uiso   1.00
O110   O     0.83700   0.74350   0.04880   0.01267  Uiso   1.00
O111   O     0.83920   0.07370   0.67200   0.01267  Uiso   1.00
O112   O     0.02170   0.14980   0.73410   0.01267  Uiso   1.00
O113   O     0.95690   0.07290   0.81050   0.01267  Uiso   1.00
O114   O     0.07860   0.05370   0.58700   0.01267  Uiso   1.00
O115   O     0.83700   0.95120   0.69470   0.01267  Uiso   1.00
O116   O     0.83920   0.32800   0.40170   0.01267  Uiso   1.00
O117   O     0.02170   0.26590   0.41570   0.01267  Uiso   1.00
O118   O     0.95690   0.18950   0.26240   0.01267  Uiso   1.00
O119   O     0.07860   0.41300   0.46670   0.01267  Uiso   1.00
O120   O     0.83700   0.30530   0.25650   0.01267  Uiso   1.00
