data_VATYAR_clean
_audit_creation_date              2014-07-02
_audit_creation_method            'Materials Studio'
_symmetry_space_group_name_H-M    'P1'
_symmetry_Int_Tables_number       1
_symmetry_cell_setting            triclinic
loop_
_symmetry_equiv_pos_as_xyz
  x,y,z
_cell_length_a                    8.5070
_cell_length_b                    9.7620
_cell_length_c                    10.2490
_cell_angle_alpha                 62.3780
_cell_angle_beta                  76.6810
_cell_angle_gamma                 73.8580
loop_
_atom_site_label
_atom_site_type_symbol
_atom_site_fract_x
_atom_site_fract_y
_atom_site_fract_z
_atom_site_U_iso_or_equiv
_atom_site_adp_type
_atom_site_occupancy
Nd1    Nd    0.66614   0.63076   0.16070   0.01267  Uiso   1.00
Nd2    Nd    0.33386   0.36924   0.83930   0.01267  Uiso   1.00
C1     C     0.01580   0.58460   0.95280   0.01267  Uiso   1.00
C2     C     0.57450   0.02160   0.01090   0.01267  Uiso   1.00
C3     C     0.44690   0.58290   0.48420   0.01267  Uiso   1.00
C4     C     0.44290   0.46250   0.07340   0.01267  Uiso   1.00
C5     C     0.98420   0.41540   0.04720   0.01267  Uiso   1.00
C6     C     0.42550   0.97840   0.98910   0.01267  Uiso   1.00
C7     C     0.55310   0.41710   0.51580   0.01267  Uiso   1.00
C8     C     0.55710   0.53750   0.92660   0.01267  Uiso   1.00
O1     O     0.92430   0.68950   0.98890   0.01267  Uiso   1.00
O2     O     0.68580   0.90910   0.07540   0.01267  Uiso   1.00
O3     O     0.46870   0.68890   0.35530   0.01267  Uiso   1.00
O4     O     0.45830   0.48450   0.18000   0.01267  Uiso   1.00
O5     O     0.57350   0.16560   0.96260   0.01267  Uiso   1.00
O6     O     0.13020   0.60370   0.84810   0.01267  Uiso   1.00
O7     O     0.34660   0.38940   0.07190   0.01267  Uiso   1.00
O8     O     0.34750   0.59850   0.58920   0.01267  Uiso   1.00
O9     O     0.07570   0.31050   0.01110   0.01267  Uiso   1.00
O10    O     0.31420   0.09090   0.92460   0.01267  Uiso   1.00
O11    O     0.53130   0.31110   0.64470   0.01267  Uiso   1.00
O12    O     0.54170   0.51550   0.82000   0.01267  Uiso   1.00
O13    O     0.42650   0.83440   0.03740   0.01267  Uiso   1.00
O14    O     0.86980   0.39630   0.15190   0.01267  Uiso   1.00
O15    O     0.65340   0.61060   0.92810   0.01267  Uiso   1.00
O16    O     0.65250   0.40150   0.41080   0.01267  Uiso   1.00
