data_image0
_cell_length_a       8.861
_cell_length_b       9.352
_cell_length_c       10.124
_cell_angle_alpha    64.106
_cell_angle_beta     75.004
_cell_angle_gamma    75.389

_symmetry_space_group_name_H-M    "P 1"
_symmetry_int_tables_number       1

loop_
  _symmetry_equiv_pos_as_xyz
  'x, y, z'

loop_
  _atom_site_label
  _atom_site_occupancy
  _atom_site_fract_x
  _atom_site_fract_y
  _atom_site_fract_z
  _atom_site_thermal_displace_type
  _atom_site_B_iso_or_equiv
  _atom_site_type_symbol
  Gd1      1.0000 0.33139  0.36576  0.84394  Biso   1.000  Gd
  O1       1.0000 0.08410  0.29820  0.02530  Biso   1.000  O
  O2       1.0000 0.32790  0.08060  0.91710  Biso   1.000  O
  O3       1.0000 0.52710  0.30850  0.64380  Biso   1.000  O
  O4       1.0000 0.52540  0.52900  0.81130  Biso   1.000  O
  O5       1.0000 0.43470  0.82010  0.03920  Biso   1.000  O
  O6       1.0000 0.85910  0.39560  0.14460  Biso   1.000  O
  O7       1.0000 0.66120  0.60870  0.92300  Biso   1.000  O
  O8       1.0000 0.65920  0.40320  0.40710  Biso   1.000  O
  C1       1.0000 0.98260  0.41120  0.04940  Biso   1.000  C
  C2       1.0000 0.43210  0.97040  0.98760  Biso   1.000  C
  C3       1.0000 0.55350  0.41680  0.51480  Biso   1.000  C
  C4       1.0000 0.55350  0.54040  0.92440  Biso   1.000  C
  Gd2      1.0000 0.66861  0.63424  0.15606  Biso   1.000  Gd
  O9       1.0000 0.91590  0.70180  0.97470  Biso   1.000  O
  O10      1.0000 0.67210  0.91940  0.08290  Biso   1.000  O
  O11      1.0000 0.47290  0.69150  0.35620  Biso   1.000  O
  O12      1.0000 0.47460  0.47100  0.18870  Biso   1.000  O
  O13      1.0000 0.56530  0.17990  0.96080  Biso   1.000  O
  O14      1.0000 0.14090  0.60440  0.85540  Biso   1.000  O
  O15      1.0000 0.33880  0.39130  0.07700  Biso   1.000  O
  O16      1.0000 0.34080  0.59680  0.59290  Biso   1.000  O
  C5       1.0000 0.01740  0.58880  0.95060  Biso   1.000  C
  C6       1.0000 0.56790  0.02960  0.01240  Biso   1.000  C
  C7       1.0000 0.44650  0.58320  0.48520  Biso   1.000  C
  C8       1.0000 0.44650  0.45960  0.07560  Biso   1.000  C
