data_image0
_cell_length_a       19.53
_cell_length_b       9.564
_cell_length_c       6.852
_cell_angle_alpha    90
_cell_angle_beta     110.75
_cell_angle_gamma    90

_symmetry_space_group_name_H-M    "P 1"
_symmetry_int_tables_number       1

loop_
  _symmetry_equiv_pos_as_xyz
  'x, y, z'

loop_
  _atom_site_label
  _atom_site_occupancy
  _atom_site_fract_x
  _atom_site_fract_y
  _atom_site_fract_z
  _atom_site_thermal_displace_type
  _atom_site_B_iso_or_equiv
  _atom_site_type_symbol
  Ca1      1.0000 0.48050  0.10580  0.23090  Biso   1.000  Ca
  O1       1.0000 0.57800  0.25600  0.16900  Biso   1.000  O
  O2       1.0000 0.57500  0.25600  0.48100  Biso   1.000  O
  C1       1.0000 0.60500  0.29100  0.35000  Biso   1.000  C
  C2       1.0000 0.67400  0.37300  0.42300  Biso   1.000  C
  C3       1.0000 0.70800  0.40300  0.28400  Biso   1.000  C
  O3       1.0000 0.67100  0.40900  0.06400  Biso   1.000  O
  O4       1.0000 0.67100  0.40900  0.77400  Biso   1.000  O
  C4       1.0000 0.77400  0.47200  0.34300  Biso   1.000  C
  C5       1.0000 0.80700  0.52000  0.55900  Biso   1.000  C
  N1       1.0000 0.37800  0.91700  0.12600  Biso   1.000  N
  C6       1.0000 0.77600  0.48400  0.70300  Biso   1.000  C
  C7       1.0000 0.70700  0.41100  0.63400  Biso   1.000  C
  O5       1.0000 0.44700  0.08800  0.54000  Biso   1.000  O
  O6       1.0000 0.44600  0.08300  0.85100  Biso   1.000  O
  C8       1.0000 0.42700  0.13900  0.67700  Biso   1.000  C
  C9       1.0000 0.37400  0.26700  0.62500  Biso   1.000  C
  Ca2      1.0000 0.01950  0.60580  0.26910  Biso   1.000  Ca
  O7       1.0000 0.92200  0.75600  0.33100  Biso   1.000  O
  O8       1.0000 0.92500  0.75600  0.01900  Biso   1.000  O
  C10      1.0000 0.89500  0.79100  0.15000  Biso   1.000  C
  C11      1.0000 0.82600  0.87300  0.07700  Biso   1.000  C
  C12      1.0000 0.79200  0.90300  0.21600  Biso   1.000  C
  O9       1.0000 0.82900  0.90900  0.43600  Biso   1.000  O
  O10      1.0000 0.82900  0.90900  0.72600  Biso   1.000  O
  C13      1.0000 0.72600  0.97200  0.15700  Biso   1.000  C
  C14      1.0000 0.69300  0.02000  0.94100  Biso   1.000  C
  N2       1.0000 0.12200  0.41700  0.37400  Biso   1.000  N
  C15      1.0000 0.72400  0.98400  0.79700  Biso   1.000  C
  C16      1.0000 0.79300  0.91100  0.86600  Biso   1.000  C
  O11      1.0000 0.05300  0.58800  0.96000  Biso   1.000  O
  O12      1.0000 0.05400  0.58300  0.64900  Biso   1.000  O
  C17      1.0000 0.07300  0.63900  0.82300  Biso   1.000  C
  C18      1.0000 0.12600  0.76700  0.87500  Biso   1.000  C
  Ca3      1.0000 0.51950  0.89420  0.76910  Biso   1.000  Ca
  O13      1.0000 0.42200  0.74400  0.83100  Biso   1.000  O
  O14      1.0000 0.42500  0.74400  0.51900  Biso   1.000  O
  C19      1.0000 0.39500  0.70900  0.65000  Biso   1.000  C
  C20      1.0000 0.32600  0.62700  0.57700  Biso   1.000  C
  C21      1.0000 0.29200  0.59700  0.71600  Biso   1.000  C
  O15      1.0000 0.32900  0.59100  0.93600  Biso   1.000  O
  O16      1.0000 0.32900  0.59100  0.22600  Biso   1.000  O
  C22      1.0000 0.22600  0.52800  0.65700  Biso   1.000  C
  C23      1.0000 0.19300  0.48000  0.44100  Biso   1.000  C
  N3       1.0000 0.62200  0.08300  0.87400  Biso   1.000  N
  C24      1.0000 0.22400  0.51600  0.29700  Biso   1.000  C
  C25      1.0000 0.29300  0.58900  0.36600  Biso   1.000  C
  O17      1.0000 0.55300  0.91200  0.46000  Biso   1.000  O
  O18      1.0000 0.55400  0.91700  0.14900  Biso   1.000  O
  C26      1.0000 0.57300  0.86100  0.32300  Biso   1.000  C
  C27      1.0000 0.62600  0.73300  0.37500  Biso   1.000  C
  Ca4      1.0000 0.98050  0.39420  0.73090  Biso   1.000  Ca
  O19      1.0000 0.07800  0.24400  0.66900  Biso   1.000  O
  O20      1.0000 0.07500  0.24400  0.98100  Biso   1.000  O
  C28      1.0000 0.10500  0.20900  0.85000  Biso   1.000  C
  C29      1.0000 0.17400  0.12700  0.92300  Biso   1.000  C
  C30      1.0000 0.20800  0.09700  0.78400  Biso   1.000  C
  O21      1.0000 0.17100  0.09100  0.56400  Biso   1.000  O
  O22      1.0000 0.17100  0.09100  0.27400  Biso   1.000  O
  C31      1.0000 0.27400  0.02800  0.84300  Biso   1.000  C
  C32      1.0000 0.30700  0.98000  0.05900  Biso   1.000  C
  N4       1.0000 0.87800  0.58300  0.62600  Biso   1.000  N
  C33      1.0000 0.27600  0.01600  0.20300  Biso   1.000  C
  C34      1.0000 0.20700  0.08900  0.13400  Biso   1.000  C
  O23      1.0000 0.94700  0.41200  0.04000  Biso   1.000  O
  O24      1.0000 0.94600  0.41700  0.35100  Biso   1.000  O
  C35      1.0000 0.92700  0.36100  0.17700  Biso   1.000  C
  C36      1.0000 0.87400  0.23300  0.12500  Biso   1.000  C
