data_image0
_cell_length_a       18.263
_cell_length_b       6.852
_cell_length_c       9.564
_cell_angle_alpha    90
_cell_angle_beta     90
_cell_angle_gamma    90

_symmetry_space_group_name_H-M    "P 1"
_symmetry_int_tables_number       1

loop_
  _symmetry_equiv_pos_as_xyz
  'x, y, z'

loop_
  _atom_site_label
  _atom_site_occupancy
  _atom_site_fract_x
  _atom_site_fract_y
  _atom_site_fract_z
  _atom_site_thermal_displace_type
  _atom_site_B_iso_or_equiv
  _atom_site_type_symbol
  O1       1.0000 0.07650  0.59250  0.24400  Biso   1.000  O
  O2       1.0000 0.17100  0.39500  0.09100  Biso   1.000  O
  O3       1.0000 0.05350  0.90600  0.58550  Biso   1.000  O
  C1       1.0000 0.20750  0.57450  0.09300  Biso   1.000  C
  C2       1.0000 0.27500  0.57100  0.02200  Biso   1.000  C
  O4       1.0000 0.42350  0.40750  0.74400  Biso   1.000  O
  O5       1.0000 0.32900  0.60500  0.59100  Biso   1.000  O
  O6       1.0000 0.44650  0.09400  0.08550  Biso   1.000  O
  C3       1.0000 0.29250  0.42550  0.59300  Biso   1.000  C
  C4       1.0000 0.22500  0.42900  0.52200  Biso   1.000  C
  O7       1.0000 0.92350  0.09250  0.75600  Biso   1.000  O
  O8       1.0000 0.82900  0.89500  0.90900  Biso   1.000  O
  O9       1.0000 0.94650  0.40600  0.41450  Biso   1.000  O
  C5       1.0000 0.79250  0.07450  0.90700  Biso   1.000  C
  C6       1.0000 0.72500  0.07100  0.97800  Biso   1.000  C
  O10      1.0000 0.57650  0.90750  0.25600  Biso   1.000  O
  O11      1.0000 0.67100  0.10500  0.40900  Biso   1.000  O
  O12      1.0000 0.55350  0.59400  0.91450  Biso   1.000  O
  C7       1.0000 0.70750  0.92550  0.40700  Biso   1.000  C
  C8       1.0000 0.77500  0.92900  0.47800  Biso   1.000  C
  O13      1.0000 0.92350  0.40750  0.75600  Biso   1.000  O
  O14      1.0000 0.82900  0.60500  0.90900  Biso   1.000  O
  O15      1.0000 0.94650  0.09400  0.41450  Biso   1.000  O
  C9       1.0000 0.79250  0.42550  0.90700  Biso   1.000  C
  C10      1.0000 0.72500  0.42900  0.97800  Biso   1.000  C
  O16      1.0000 0.57650  0.59250  0.25600  Biso   1.000  O
  O17      1.0000 0.67100  0.39500  0.40900  Biso   1.000  O
  O18      1.0000 0.55350  0.90600  0.91450  Biso   1.000  O
  C11      1.0000 0.70750  0.57450  0.40700  Biso   1.000  C
  C12      1.0000 0.77500  0.57100  0.47800  Biso   1.000  C
  O19      1.0000 0.07650  0.90750  0.24400  Biso   1.000  O
  O20      1.0000 0.17100  0.10500  0.09100  Biso   1.000  O
  O21      1.0000 0.05350  0.59400  0.58550  Biso   1.000  O
  C13      1.0000 0.20750  0.92550  0.09300  Biso   1.000  C
  C14      1.0000 0.27500  0.92900  0.02200  Biso   1.000  C
  O22      1.0000 0.42350  0.09250  0.74400  Biso   1.000  O
  O23      1.0000 0.32900  0.89500  0.59100  Biso   1.000  O
  O24      1.0000 0.44650  0.40600  0.08550  Biso   1.000  O
  C15      1.0000 0.29250  0.07450  0.59300  Biso   1.000  C
  C16      1.0000 0.22500  0.07100  0.52200  Biso   1.000  C
  Ca1      1.0000 0.98050  0.75000  0.39420  Biso   1.000  Ca
  N1       1.0000 0.37800  0.75000  0.91700  Biso   1.000  N
  C17      1.0000 0.10500  0.75000  0.20900  Biso   1.000  C
  C18      1.0000 0.17400  0.75000  0.12700  Biso   1.000  C
  C19      1.0000 0.30700  0.75000  0.98000  Biso   1.000  C
  C20      1.0000 0.07300  0.75000  0.63900  Biso   1.000  C
  C21      1.0000 0.12600  0.75000  0.76700  Biso   1.000  C
  Ca2      1.0000 0.51950  0.25000  0.89420  Biso   1.000  Ca
  N2       1.0000 0.12200  0.25000  0.41700  Biso   1.000  N
  C22      1.0000 0.39500  0.25000  0.70900  Biso   1.000  C
  C23      1.0000 0.32600  0.25000  0.62700  Biso   1.000  C
  C24      1.0000 0.19300  0.25000  0.48000  Biso   1.000  C
  C25      1.0000 0.42700  0.25000  0.13900  Biso   1.000  C
  C26      1.0000 0.37400  0.25000  0.26700  Biso   1.000  C
  Ca3      1.0000 0.01950  0.25000  0.60580  Biso   1.000  Ca
  N3       1.0000 0.62200  0.25000  0.08300  Biso   1.000  N
  C27      1.0000 0.89500  0.25000  0.79100  Biso   1.000  C
  C28      1.0000 0.82600  0.25000  0.87300  Biso   1.000  C
  C29      1.0000 0.69300  0.25000  0.02000  Biso   1.000  C
  C30      1.0000 0.92700  0.25000  0.36100  Biso   1.000  C
  C31      1.0000 0.87400  0.25000  0.23300  Biso   1.000  C
  Ca4      1.0000 0.48050  0.75000  0.10580  Biso   1.000  Ca
  N4       1.0000 0.87800  0.75000  0.58300  Biso   1.000  N
  C32      1.0000 0.60500  0.75000  0.29100  Biso   1.000  C
  C33      1.0000 0.67400  0.75000  0.37300  Biso   1.000  C
  C34      1.0000 0.80700  0.75000  0.52000  Biso   1.000  C
  C35      1.0000 0.57300  0.75000  0.86100  Biso   1.000  C
  C36      1.0000 0.62600  0.75000  0.73300  Biso   1.000  C
