data_image0
_cell_length_a       12.5599
_cell_length_b       12.7481
_cell_length_c       13.367
_cell_angle_alpha    99.749
_cell_angle_beta     105.537
_cell_angle_gamma    111.878

_symmetry_space_group_name_H-M    "P 1"
_symmetry_int_tables_number       1

loop_
  _symmetry_equiv_pos_as_xyz
  'x, y, z'

loop_
  _atom_site_label
  _atom_site_occupancy
  _atom_site_fract_x
  _atom_site_fract_y
  _atom_site_fract_z
  _atom_site_thermal_displace_type
  _atom_site_B_iso_or_equiv
  _atom_site_type_symbol
  N1       1.0000 0.60880  0.42670  0.56380  Biso   1.000  N
  N2       1.0000 0.35330  0.34510  0.46430  Biso   1.000  N
  C1       1.0000 0.63500  0.41220  0.66180  Biso   1.000  C
  C2       1.0000 0.67360  0.38240  0.51940  Biso   1.000  C
  C3       1.0000 0.69280  0.70710  0.46960  Biso   1.000  C
  C4       1.0000 0.70850  0.74070  0.63290  Biso   1.000  C
  N3       1.0000 0.71400  0.36610  0.67650  Biso   1.000  N
  H1       1.0000 0.60230  0.43160  0.71290  Biso   1.000  H
  N4       1.0000 0.74080  0.34660  0.58550  Biso   1.000  N
  H2       1.0000 0.67100  0.37770  0.44850  Biso   1.000  H
  N5       1.0000 0.77630  0.81640  0.52390  Biso   1.000  N
  H3       1.0000 0.66960  0.67180  0.39550  Biso   1.000  H
  N6       1.0000 0.78620  0.84050  0.62940  Biso   1.000  N
  H4       1.0000 0.69640  0.72940  0.69660  Biso   1.000  H
  N7       1.0000 0.86990  0.02420  0.89350  Biso   1.000  N
  N8       1.0000 0.96770  0.08160  0.12550  Biso   1.000  N
  C5       1.0000 0.77510  0.34580  0.77530  Biso   1.000  C
  C6       1.0000 0.84660  0.90800  0.48380  Biso   1.000  C
  C7       1.0000 0.74950  0.96200  0.86200  Biso   1.000  C
  C8       1.0000 0.88260  0.09580  0.82850  Biso   1.000  C
  C9       1.0000 0.97010  0.18770  0.14860  Biso   1.000  C
  C10      1.0000 0.92860  0.03590  0.19960  Biso   1.000  C
  H5       1.0000 0.80040  0.28440  0.75620  Biso   1.000  H
  H6       1.0000 0.71760  0.31830  0.81180  Biso   1.000  H
  C11      1.0000 0.88650  0.45750  0.85200  Biso   1.000  C
  C12      1.0000 0.79880  0.00120  0.47760  Biso   1.000  C
  H7       1.0000 0.93240  0.94610  0.53180  Biso   1.000  H
  H8       1.0000 0.84220  0.87160  0.41200  Biso   1.000  H
  N9       1.0000 0.69420  0.99400  0.78150  Biso   1.000  N
  H9       1.0000 0.70980  0.90480  0.89130  Biso   1.000  H
  N10      1.0000 0.77840  0.08020  0.75870  Biso   1.000  N
  H10      1.0000 0.95870  0.15110  0.83330  Biso   1.000  H
  N11      1.0000 0.93160  0.20340  0.22980  Biso   1.000  N
  H11      1.0000 0.99550  0.24330  0.11250  Biso   1.000  H
  N12      1.0000 0.90340  0.10570  0.26490  Biso   1.000  N
  H12      1.0000 0.92000  0.96150  0.20450  Biso   1.000  H
  C13      1.0000 0.94600  0.44260  0.96100  Biso   1.000  C
  H13      1.0000 0.86220  0.52080  0.86500  Biso   1.000  H
  H14      1.0000 0.94690  0.48070  0.81750  Biso   1.000  H
  H15      1.0000 0.85010  0.06180  0.45350  Biso   1.000  H
  H16      1.0000 0.80520  0.03880  0.54980  Biso   1.000  H
  C14      1.0000 0.66740  0.95040  0.40150  Biso   1.000  C
  C15      1.0000 0.56280  0.93500  0.70960  Biso   1.000  C
  C16      1.0000 0.91180  0.30370  0.27850  Biso   1.000  C
  H17      1.0000 0.88480  0.41590  0.99420  Biso   1.000  H
  H18      1.0000 0.97430  0.38220  0.94850  Biso   1.000  H
  C17      1.0000 0.62200  0.04060  0.38560  Biso   1.000  C
  H19      1.0000 0.61540  0.89520  0.42960  Biso   1.000  H
  H20      1.0000 0.65970  0.90600  0.33130  Biso   1.000  H
  C18      1.0000 0.51490  0.02030  0.68870  Biso   1.000  C
  H21      1.0000 0.55350  0.88590  0.64100  Biso   1.000  H
  H22      1.0000 0.51520  0.88380  0.74330  Biso   1.000  H
  C19      1.0000 0.98870  0.36430  0.39680  Biso   1.000  C
  H23      1.0000 0.82570  0.27540  0.26980  Biso   1.000  H
  H24      1.0000 0.92970  0.36130  0.23890  Biso   1.000  H
  H25      1.0000 0.63200  0.08760  0.45560  Biso   1.000  H
  H26      1.0000 0.66990  0.09320  0.35300  Biso   1.000  H
  H27      1.0000 0.56240  0.07130  0.65470  Biso   1.000  H
  H28      1.0000 0.52460  0.06970  0.75740  Biso   1.000  H
  C20      1.0000 0.96680  0.47020  0.43970  Biso   1.000  C
  H29      1.0000 0.07510  0.39100  0.40680  Biso   1.000  H
  H30      1.0000 0.96840  0.30870  0.43780  Biso   1.000  H
  H31      1.0000 0.99290  0.52790  0.40170  Biso   1.000  H
  H32      1.0000 0.87920  0.44380  0.42310  Biso   1.000  H
  N13      1.0000 0.39120  0.57330  0.43620  Biso   1.000  N
  N14      1.0000 0.64670  0.65490  0.53570  Biso   1.000  N
  C21      1.0000 0.36500  0.58780  0.33820  Biso   1.000  C
  C22      1.0000 0.32640  0.61760  0.48060  Biso   1.000  C
  C23      1.0000 0.30720  0.29290  0.53040  Biso   1.000  C
  C24      1.0000 0.29150  0.25930  0.36710  Biso   1.000  C
  N15      1.0000 0.28600  0.63390  0.32350  Biso   1.000  N
  H33      1.0000 0.39770  0.56840  0.28710  Biso   1.000  H
  N16      1.0000 0.25920  0.65340  0.41450  Biso   1.000  N
  H34      1.0000 0.32900  0.62230  0.55150  Biso   1.000  H
  N17      1.0000 0.22370  0.18360  0.47610  Biso   1.000  N
  H35      1.0000 0.33040  0.32820  0.60450  Biso   1.000  H
  N18      1.0000 0.21380  0.15950  0.37060  Biso   1.000  N
  H36      1.0000 0.30360  0.27060  0.30340  Biso   1.000  H
  N19      1.0000 0.13010  0.97580  0.10650  Biso   1.000  N
  N20      1.0000 0.03230  0.91840  0.87450  Biso   1.000  N
  C25      1.0000 0.22490  0.65420  0.22470  Biso   1.000  C
  C26      1.0000 0.15340  0.09200  0.51620  Biso   1.000  C
  C27      1.0000 0.25050  0.03800  0.13800  Biso   1.000  C
  C28      1.0000 0.11740  0.90420  0.17150  Biso   1.000  C
  C29      1.0000 0.02990  0.81230  0.85140  Biso   1.000  C
  C30      1.0000 0.07140  0.96410  0.80040  Biso   1.000  C
  H37      1.0000 0.19960  0.71560  0.24380  Biso   1.000  H
  H38      1.0000 0.28240  0.68170  0.18820  Biso   1.000  H
  C31      1.0000 0.11350  0.54250  0.14800  Biso   1.000  C
  C32      1.0000 0.20120  0.99880  0.52240  Biso   1.000  C
  H39      1.0000 0.06760  0.05390  0.46820  Biso   1.000  H
  H40      1.0000 0.15780  0.12840  0.58800  Biso   1.000  H
  N21      1.0000 0.30580  0.00600  0.21850  Biso   1.000  N
  H41      1.0000 0.29020  0.09520  0.10870  Biso   1.000  H
  N22      1.0000 0.22160  0.91980  0.24130  Biso   1.000  N
  H42      1.0000 0.04130  0.84890  0.16670  Biso   1.000  H
  N23      1.0000 0.06840  0.79660  0.77020  Biso   1.000  N
  H43      1.0000 0.00450  0.75670  0.88750  Biso   1.000  H
  N24      1.0000 0.09660  0.89430  0.73510  Biso   1.000  N
  H44      1.0000 0.08000  0.03850  0.79550  Biso   1.000  H
  C33      1.0000 0.05400  0.55740  0.03900  Biso   1.000  C
  H45      1.0000 0.13780  0.47920  0.13500  Biso   1.000  H
  H46      1.0000 0.05310  0.51930  0.18250  Biso   1.000  H
  H47      1.0000 0.14990  0.93820  0.54650  Biso   1.000  H
  H48      1.0000 0.19480  0.96120  0.45020  Biso   1.000  H
  C34      1.0000 0.33260  0.04960  0.59850  Biso   1.000  C
  C35      1.0000 0.43720  0.06500  0.29040  Biso   1.000  C
  C36      1.0000 0.08820  0.69630  0.72150  Biso   1.000  C
  H49      1.0000 0.11520  0.58410  0.00580  Biso   1.000  H
  H50      1.0000 0.02570  0.61780  0.05150  Biso   1.000  H
  C37      1.0000 0.37800  0.95940  0.61440  Biso   1.000  C
  H51      1.0000 0.38460  0.10480  0.57040  Biso   1.000  H
  H52      1.0000 0.34030  0.09400  0.66870  Biso   1.000  H
  C38      1.0000 0.48510  0.97970  0.31130  Biso   1.000  C
  H53      1.0000 0.44650  0.11410  0.35900  Biso   1.000  H
  H54      1.0000 0.48480  0.11620  0.25670  Biso   1.000  H
  C39      1.0000 0.01130  0.63570  0.60320  Biso   1.000  C
  H55      1.0000 0.17430  0.72460  0.73020  Biso   1.000  H
  H56      1.0000 0.07030  0.63870  0.76110  Biso   1.000  H
  H57      1.0000 0.36800  0.91240  0.54440  Biso   1.000  H
  H58      1.0000 0.33010  0.90680  0.64700  Biso   1.000  H
  H59      1.0000 0.43760  0.92870  0.34530  Biso   1.000  H
  H60      1.0000 0.47540  0.93030  0.24260  Biso   1.000  H
  C40      1.0000 0.03320  0.52980  0.56030  Biso   1.000  C
  H61      1.0000 0.92490  0.60900  0.59320  Biso   1.000  H
  H62      1.0000 0.03160  0.69130  0.56220  Biso   1.000  H
  H63      1.0000 0.00710  0.47210  0.59830  Biso   1.000  H
  H64      1.0000 0.12080  0.55620  0.57690  Biso   1.000  H
  Cu1      1.0000 0.00000  0.00000  0.00000  Biso   1.000  Cu
  Cu2      1.0000 0.50000  0.50000  0.50000  Biso   1.000  Cu
