data_image0
_cell_length_a       23.681
_cell_length_b       9.6928
_cell_length_c       35.389
_cell_angle_alpha    90
_cell_angle_beta     92.789
_cell_angle_gamma    90

_symmetry_space_group_name_H-M    "P 1"
_symmetry_int_tables_number       1

loop_
  _symmetry_equiv_pos_as_xyz
  'x, y, z'

loop_
  _atom_site_label
  _atom_site_occupancy
  _atom_site_fract_x
  _atom_site_fract_y
  _atom_site_fract_z
  _atom_site_thermal_displace_type
  _atom_site_B_iso_or_equiv
  _atom_site_type_symbol
  Cd1      1.0000 0.19055  0.95179  0.32492  Biso   1.000  Cd
  O1       1.0000 0.14278  0.82190  0.36826  Biso   1.000  O
  O2       1.0000 0.19834  0.70140  0.33325  Biso   1.000  O
  O3       1.0000 0.12449  0.24560  0.45212  Biso   1.000  O
  O4       1.0000 0.13620  0.10480  0.76623  Biso   1.000  O
  O5       1.0000 0.20438  0.95400  0.76451  Biso   1.000  O
  O6       1.0000 0.11810  0.96300  0.59112  Biso   1.000  O
  O7       1.0000 0.74462  0.56100  0.36988  Biso   1.000  O
  O8       1.0000 0.79606  0.45360  0.32943  Biso   1.000  O
  O9       1.0000 0.98921  0.69340  0.44336  Biso   1.000  O
  C1       1.0000 0.12060  0.01040  0.46961  Biso   1.000  C
  C2       1.0000 0.14570  0.98020  0.50576  Biso   1.000  C
  C3       1.0000 0.12080  0.88310  0.52895  Biso   1.000  C
  C4       1.0000 0.06970  0.81830  0.51646  Biso   1.000  C
  C5       1.0000 0.04285  0.85590  0.48227  Biso   1.000  C
  C6       1.0000 0.06820  0.94990  0.45837  Biso   1.000  C
  C7       1.0000 0.14860  0.11090  0.44372  Biso   1.000  C
  H1       1.0000 0.18920  0.11140  0.44870  Biso   1.000  H
  H2       1.0000 0.14060  0.08660  0.41740  Biso   1.000  H
  C8       1.0000 0.20050  0.05700  0.51885  Biso   1.000  C
  H3       1.0000 0.23240  0.99670  0.51660  Biso   1.000  H
  H4       1.0000 0.19820  0.08460  0.54480  Biso   1.000  H
  H5       1.0000 0.20510  0.13710  0.50340  Biso   1.000  H
  C9       1.0000 0.14400  0.85800  0.56865  Biso   1.000  C
  H6       1.0000 0.13400  0.76650  0.57720  Biso   1.000  H
  H7       1.0000 0.18490  0.86700  0.57010  Biso   1.000  H
  C10      1.0000 0.04400  0.70370  0.54111  Biso   1.000  C
  H8       1.0000 0.01650  0.65220  0.52610  Biso   1.000  H
  H9       1.0000 0.02610  0.74520  0.56210  Biso   1.000  H
  H10      1.0000 0.07340  0.64280  0.55040  Biso   1.000  H
  C11      1.0000 0.98425  0.79970  0.47144  Biso   1.000  C
  H11      1.0000 0.96720  0.76210  0.49360  Biso   1.000  H
  H12      1.0000 0.96020  0.87340  0.46140  Biso   1.000  H
  C12      1.0000 0.04080  0.98830  0.41995  Biso   1.000  C
  H13      1.0000 0.00160  0.96270  0.41910  Biso   1.000  H
  H14      1.0000 0.05960  0.94040  0.40040  Biso   1.000  H
  H15      1.0000 0.04400  0.08600  0.41610  Biso   1.000  H
  C13      1.0000 0.16670  0.71040  0.36151  Biso   1.000  C
  C14      1.0000 0.15850  0.58740  0.38583  Biso   1.000  C
  C15      1.0000 0.11840  0.59060  0.41293  Biso   1.000  C
  H16      1.0000 0.09790  0.67080  0.41670  Biso   1.000  H
  C16      1.0000 0.10900  0.47480  0.43428  Biso   1.000  C
  H17      1.0000 0.08170  0.47750  0.45230  Biso   1.000  H
  C17      1.0000 0.13920  0.35550  0.42953  Biso   1.000  C
  C18      1.0000 0.17970  0.35320  0.40331  Biso   1.000  C
  H18      1.0000 0.20080  0.27370  0.39990  Biso   1.000  H
  C19      1.0000 0.18930  0.46900  0.38203  Biso   1.000  C
  H19      1.0000 0.21740  0.46680  0.36460  Biso   1.000  H
  C20      1.0000 0.16540  0.02230  0.74886  Biso   1.000  C
  C21      1.0000 0.15250  0.00120  0.70663  Biso   1.000  C
  C22      1.0000 0.17480  0.89170  0.68748  Biso   1.000  C
  H20      1.0000 0.19740  0.82810  0.70080  Biso   1.000  H
  C23      1.0000 0.16430  0.87390  0.64913  Biso   1.000  C
  H21      1.0000 0.17890  0.79760  0.63700  Biso   1.000  H
  C24      1.0000 0.13220  0.96980  0.62889  Biso   1.000  C
  C25      1.0000 0.10960  0.08020  0.64746  Biso   1.000  C
  H22      1.0000 0.08730  0.14430  0.63400  Biso   1.000  H
  C26      1.0000 0.11980  0.09580  0.68592  Biso   1.000  C
  H23      1.0000 0.10450  0.17100  0.69820  Biso   1.000  H
  C27      1.0000 0.79200  0.52240  0.35831  Biso   1.000  C
  C28      1.0000 0.84450  0.56400  0.38255  Biso   1.000  C
  C29      1.0000 0.89840  0.53780  0.37016  Biso   1.000  C
  H24      1.0000 0.90300  0.49080  0.34760  Biso   1.000  H
  C30      1.0000 0.94460  0.58240  0.39168  Biso   1.000  C
  H25      1.0000 0.98050  0.56570  0.38310  Biso   1.000  H
  C31      1.0000 0.93986  0.65040  0.42515  Biso   1.000  C
  C32      1.0000 0.88720  0.67270  0.43820  Biso   1.000  C
  H26      1.0000 0.88280  0.71630  0.46130  Biso   1.000  H
  C33      1.0000 0.84060  0.62860  0.41620  Biso   1.000  C
  H27      1.0000 0.80480  0.64440  0.42500  Biso   1.000  H
  Cd2      1.0000 0.69055  0.45179  0.32492  Biso   1.000  Cd
  O10      1.0000 0.64278  0.32190  0.36826  Biso   1.000  O
  O11      1.0000 0.69834  0.20140  0.33325  Biso   1.000  O
  O12      1.0000 0.62449  0.74560  0.45212  Biso   1.000  O
  O13      1.0000 0.63620  0.60480  0.76623  Biso   1.000  O
  O14      1.0000 0.70438  0.45400  0.76451  Biso   1.000  O
  O15      1.0000 0.61810  0.46300  0.59112  Biso   1.000  O
  O16      1.0000 0.24462  0.06100  0.36988  Biso   1.000  O
  O17      1.0000 0.29606  0.95360  0.32943  Biso   1.000  O
  O18      1.0000 0.48921  0.19340  0.44336  Biso   1.000  O
  C34      1.0000 0.62060  0.51040  0.46961  Biso   1.000  C
  C35      1.0000 0.64570  0.48020  0.50576  Biso   1.000  C
  C36      1.0000 0.62080  0.38310  0.52895  Biso   1.000  C
  C37      1.0000 0.56970  0.31830  0.51646  Biso   1.000  C
  C38      1.0000 0.54285  0.35590  0.48227  Biso   1.000  C
  C39      1.0000 0.56820  0.44990  0.45837  Biso   1.000  C
  C40      1.0000 0.64860  0.61090  0.44372  Biso   1.000  C
  H28      1.0000 0.68920  0.61140  0.44870  Biso   1.000  H
  H29      1.0000 0.64060  0.58660  0.41740  Biso   1.000  H
  C41      1.0000 0.70050  0.55700  0.51885  Biso   1.000  C
  H30      1.0000 0.73240  0.49670  0.51660  Biso   1.000  H
  H31      1.0000 0.69820  0.58460  0.54480  Biso   1.000  H
  H32      1.0000 0.70510  0.63710  0.50340  Biso   1.000  H
  C42      1.0000 0.64400  0.35800  0.56865  Biso   1.000  C
  H33      1.0000 0.63400  0.26650  0.57720  Biso   1.000  H
  H34      1.0000 0.68490  0.36700  0.57010  Biso   1.000  H
  C43      1.0000 0.54400  0.20370  0.54111  Biso   1.000  C
  H35      1.0000 0.51650  0.15220  0.52610  Biso   1.000  H
  H36      1.0000 0.52610  0.24520  0.56210  Biso   1.000  H
  H37      1.0000 0.57340  0.14280  0.55040  Biso   1.000  H
  C44      1.0000 0.48425  0.29970  0.47144  Biso   1.000  C
  H38      1.0000 0.46720  0.26210  0.49360  Biso   1.000  H
  H39      1.0000 0.46020  0.37340  0.46140  Biso   1.000  H
  C45      1.0000 0.54080  0.48830  0.41995  Biso   1.000  C
  H40      1.0000 0.50160  0.46270  0.41910  Biso   1.000  H
  H41      1.0000 0.55960  0.44040  0.40040  Biso   1.000  H
  H42      1.0000 0.54400  0.58600  0.41610  Biso   1.000  H
  C46      1.0000 0.66670  0.21040  0.36151  Biso   1.000  C
  C47      1.0000 0.65850  0.08740  0.38583  Biso   1.000  C
  C48      1.0000 0.61840  0.09060  0.41293  Biso   1.000  C
  H43      1.0000 0.59790  0.17080  0.41670  Biso   1.000  H
  C49      1.0000 0.60900  0.97480  0.43428  Biso   1.000  C
  H44      1.0000 0.58170  0.97750  0.45230  Biso   1.000  H
  C50      1.0000 0.63920  0.85550  0.42953  Biso   1.000  C
  C51      1.0000 0.67970  0.85320  0.40331  Biso   1.000  C
  H45      1.0000 0.70080  0.77370  0.39990  Biso   1.000  H
  C52      1.0000 0.68930  0.96900  0.38203  Biso   1.000  C
  H46      1.0000 0.71740  0.96680  0.36460  Biso   1.000  H
  C53      1.0000 0.66540  0.52230  0.74886  Biso   1.000  C
  C54      1.0000 0.65250  0.50120  0.70663  Biso   1.000  C
  C55      1.0000 0.67480  0.39170  0.68748  Biso   1.000  C
  H47      1.0000 0.69740  0.32810  0.70080  Biso   1.000  H
  C56      1.0000 0.66430  0.37390  0.64913  Biso   1.000  C
  H48      1.0000 0.67890  0.29760  0.63700  Biso   1.000  H
  C57      1.0000 0.63220  0.46980  0.62889  Biso   1.000  C
  C58      1.0000 0.60960  0.58020  0.64746  Biso   1.000  C
  H49      1.0000 0.58730  0.64430  0.63400  Biso   1.000  H
  C59      1.0000 0.61980  0.59580  0.68592  Biso   1.000  C
  H50      1.0000 0.60450  0.67100  0.69820  Biso   1.000  H
  C60      1.0000 0.29200  0.02240  0.35831  Biso   1.000  C
  C61      1.0000 0.34450  0.06400  0.38255  Biso   1.000  C
  C62      1.0000 0.39840  0.03780  0.37016  Biso   1.000  C
  H51      1.0000 0.40300  0.99080  0.34760  Biso   1.000  H
  C63      1.0000 0.44460  0.08240  0.39168  Biso   1.000  C
  H52      1.0000 0.48050  0.06570  0.38310  Biso   1.000  H
  C64      1.0000 0.43986  0.15040  0.42515  Biso   1.000  C
  C65      1.0000 0.38720  0.17270  0.43820  Biso   1.000  C
  H53      1.0000 0.38280  0.21630  0.46130  Biso   1.000  H
  C66      1.0000 0.34060  0.12860  0.41620  Biso   1.000  C
  H54      1.0000 0.30480  0.14440  0.42500  Biso   1.000  H
  Cd3      1.0000 0.19055  0.04821  0.82492  Biso   1.000  Cd
  O19      1.0000 0.14278  0.17810  0.86826  Biso   1.000  O
  O20      1.0000 0.19834  0.29860  0.83325  Biso   1.000  O
  O21      1.0000 0.12449  0.75440  0.95212  Biso   1.000  O
  O22      1.0000 0.13620  0.89520  0.26623  Biso   1.000  O
  O23      1.0000 0.20438  0.04600  0.26451  Biso   1.000  O
  O24      1.0000 0.11810  0.03700  0.09112  Biso   1.000  O
  O25      1.0000 0.74462  0.43900  0.86988  Biso   1.000  O
  O26      1.0000 0.79606  0.54640  0.82943  Biso   1.000  O
  O27      1.0000 0.98921  0.30660  0.94336  Biso   1.000  O
  C67      1.0000 0.12060  0.98960  0.96961  Biso   1.000  C
  C68      1.0000 0.14570  0.01980  0.00576  Biso   1.000  C
  C69      1.0000 0.12080  0.11690  0.02895  Biso   1.000  C
  C70      1.0000 0.06970  0.18170  0.01646  Biso   1.000  C
  C71      1.0000 0.04285  0.14410  0.98227  Biso   1.000  C
  C72      1.0000 0.06820  0.05010  0.95837  Biso   1.000  C
  C73      1.0000 0.14860  0.88910  0.94372  Biso   1.000  C
  H55      1.0000 0.18920  0.88860  0.94870  Biso   1.000  H
  H56      1.0000 0.14060  0.91340  0.91740  Biso   1.000  H
  C74      1.0000 0.20050  0.94300  0.01885  Biso   1.000  C
  H57      1.0000 0.23240  0.00330  0.01660  Biso   1.000  H
  H58      1.0000 0.19820  0.91540  0.04480  Biso   1.000  H
  H59      1.0000 0.20510  0.86290  0.00340  Biso   1.000  H
  C75      1.0000 0.14400  0.14200  0.06865  Biso   1.000  C
  H60      1.0000 0.13400  0.23350  0.07720  Biso   1.000  H
  H61      1.0000 0.18490  0.13300  0.07010  Biso   1.000  H
  C76      1.0000 0.04400  0.29630  0.04111  Biso   1.000  C
  H62      1.0000 0.01650  0.34780  0.02610  Biso   1.000  H
  H63      1.0000 0.02610  0.25480  0.06210  Biso   1.000  H
  H64      1.0000 0.07340  0.35720  0.05040  Biso   1.000  H
  C77      1.0000 0.98425  0.20030  0.97144  Biso   1.000  C
  H65      1.0000 0.96720  0.23790  0.99360  Biso   1.000  H
  H66      1.0000 0.96020  0.12660  0.96140  Biso   1.000  H
  C78      1.0000 0.04080  0.01170  0.91995  Biso   1.000  C
  H67      1.0000 0.00160  0.03730  0.91910  Biso   1.000  H
  H68      1.0000 0.05960  0.05960  0.90040  Biso   1.000  H
  H69      1.0000 0.04400  0.91400  0.91610  Biso   1.000  H
  C79      1.0000 0.16670  0.28960  0.86151  Biso   1.000  C
  C80      1.0000 0.15850  0.41260  0.88583  Biso   1.000  C
  C81      1.0000 0.11840  0.40940  0.91293  Biso   1.000  C
  H70      1.0000 0.09790  0.32920  0.91670  Biso   1.000  H
  C82      1.0000 0.10900  0.52520  0.93428  Biso   1.000  C
  H71      1.0000 0.08170  0.52250  0.95230  Biso   1.000  H
  C83      1.0000 0.13920  0.64450  0.92953  Biso   1.000  C
  C84      1.0000 0.17970  0.64680  0.90331  Biso   1.000  C
  H72      1.0000 0.20080  0.72630  0.89990  Biso   1.000  H
  C85      1.0000 0.18930  0.53100  0.88203  Biso   1.000  C
  H73      1.0000 0.21740  0.53320  0.86460  Biso   1.000  H
  C86      1.0000 0.16540  0.97770  0.24886  Biso   1.000  C
  C87      1.0000 0.15250  0.99880  0.20663  Biso   1.000  C
  C88      1.0000 0.17480  0.10830  0.18748  Biso   1.000  C
  H74      1.0000 0.19740  0.17190  0.20080  Biso   1.000  H
  C89      1.0000 0.16430  0.12610  0.14913  Biso   1.000  C
  H75      1.0000 0.17890  0.20240  0.13700  Biso   1.000  H
  C90      1.0000 0.13220  0.03020  0.12889  Biso   1.000  C
  C91      1.0000 0.10960  0.91980  0.14746  Biso   1.000  C
  H76      1.0000 0.08730  0.85570  0.13400  Biso   1.000  H
  C92      1.0000 0.11980  0.90420  0.18592  Biso   1.000  C
  H77      1.0000 0.10450  0.82900  0.19820  Biso   1.000  H
  C93      1.0000 0.79200  0.47760  0.85831  Biso   1.000  C
  C94      1.0000 0.84450  0.43600  0.88255  Biso   1.000  C
  C95      1.0000 0.89840  0.46220  0.87016  Biso   1.000  C
  H78      1.0000 0.90300  0.50920  0.84760  Biso   1.000  H
  C96      1.0000 0.94460  0.41760  0.89168  Biso   1.000  C
  H79      1.0000 0.98050  0.43430  0.88310  Biso   1.000  H
  C97      1.0000 0.93986  0.34960  0.92515  Biso   1.000  C
  C98      1.0000 0.88720  0.32730  0.93820  Biso   1.000  C
  H80      1.0000 0.88280  0.28370  0.96130  Biso   1.000  H
  C99      1.0000 0.84060  0.37140  0.91620  Biso   1.000  C
  H81      1.0000 0.80480  0.35560  0.92500  Biso   1.000  H
  Cd4      1.0000 0.69055  0.54821  0.82492  Biso   1.000  Cd
  O28      1.0000 0.64278  0.67810  0.86826  Biso   1.000  O
  O29      1.0000 0.69834  0.79860  0.83325  Biso   1.000  O
  O30      1.0000 0.62449  0.25440  0.95212  Biso   1.000  O
  O31      1.0000 0.63620  0.39520  0.26623  Biso   1.000  O
  O32      1.0000 0.70438  0.54600  0.26451  Biso   1.000  O
  O33      1.0000 0.61810  0.53700  0.09112  Biso   1.000  O
  O34      1.0000 0.24462  0.93900  0.86988  Biso   1.000  O
  O35      1.0000 0.29606  0.04640  0.82943  Biso   1.000  O
  O36      1.0000 0.48921  0.80660  0.94336  Biso   1.000  O
  C100     1.0000 0.62060  0.48960  0.96961  Biso   1.000  C
  C101     1.0000 0.64570  0.51980  0.00576  Biso   1.000  C
  C102     1.0000 0.62080  0.61690  0.02895  Biso   1.000  C
  C103     1.0000 0.56970  0.68170  0.01646  Biso   1.000  C
  C104     1.0000 0.54285  0.64410  0.98227  Biso   1.000  C
  C105     1.0000 0.56820  0.55010  0.95837  Biso   1.000  C
  C106     1.0000 0.64860  0.38910  0.94372  Biso   1.000  C
  H82      1.0000 0.68920  0.38860  0.94870  Biso   1.000  H
  H83      1.0000 0.64060  0.41340  0.91740  Biso   1.000  H
  C107     1.0000 0.70050  0.44300  0.01885  Biso   1.000  C
  H84      1.0000 0.73240  0.50330  0.01660  Biso   1.000  H
  H85      1.0000 0.69820  0.41540  0.04480  Biso   1.000  H
  H86      1.0000 0.70510  0.36290  0.00340  Biso   1.000  H
  C108     1.0000 0.64400  0.64200  0.06865  Biso   1.000  C
  H87      1.0000 0.63400  0.73350  0.07720  Biso   1.000  H
  H88      1.0000 0.68490  0.63300  0.07010  Biso   1.000  H
  C109     1.0000 0.54400  0.79630  0.04111  Biso   1.000  C
  H89      1.0000 0.51650  0.84780  0.02610  Biso   1.000  H
  H90      1.0000 0.52610  0.75480  0.06210  Biso   1.000  H
  H91      1.0000 0.57340  0.85720  0.05040  Biso   1.000  H
  C110     1.0000 0.48425  0.70030  0.97144  Biso   1.000  C
  H92      1.0000 0.46720  0.73790  0.99360  Biso   1.000  H
  H93      1.0000 0.46020  0.62660  0.96140  Biso   1.000  H
  C111     1.0000 0.54080  0.51170  0.91995  Biso   1.000  C
  H94      1.0000 0.50160  0.53730  0.91910  Biso   1.000  H
  H95      1.0000 0.55960  0.55960  0.90040  Biso   1.000  H
  H96      1.0000 0.54400  0.41400  0.91610  Biso   1.000  H
  C112     1.0000 0.66670  0.78960  0.86151  Biso   1.000  C
  C113     1.0000 0.65850  0.91260  0.88583  Biso   1.000  C
  C114     1.0000 0.61840  0.90940  0.91293  Biso   1.000  C
  H97      1.0000 0.59790  0.82920  0.91670  Biso   1.000  H
  C115     1.0000 0.60900  0.02520  0.93428  Biso   1.000  C
  H98      1.0000 0.58170  0.02250  0.95230  Biso   1.000  H
  C116     1.0000 0.63920  0.14450  0.92953  Biso   1.000  C
  C117     1.0000 0.67970  0.14680  0.90331  Biso   1.000  C
  H99      1.0000 0.70080  0.22630  0.89990  Biso   1.000  H
  C118     1.0000 0.68930  0.03100  0.88203  Biso   1.000  C
  H100     1.0000 0.71740  0.03320  0.86460  Biso   1.000  H
  C119     1.0000 0.66540  0.47770  0.24886  Biso   1.000  C
  C120     1.0000 0.65250  0.49880  0.20663  Biso   1.000  C
  C121     1.0000 0.67480  0.60830  0.18748  Biso   1.000  C
  H101     1.0000 0.69740  0.67190  0.20080  Biso   1.000  H
  C122     1.0000 0.66430  0.62610  0.14913  Biso   1.000  C
  H102     1.0000 0.67890  0.70240  0.13700  Biso   1.000  H
  C123     1.0000 0.63220  0.53020  0.12889  Biso   1.000  C
  C124     1.0000 0.60960  0.41980  0.14746  Biso   1.000  C
  H103     1.0000 0.58730  0.35570  0.13400  Biso   1.000  H
  C125     1.0000 0.61980  0.40420  0.18592  Biso   1.000  C
  H104     1.0000 0.60450  0.32900  0.19820  Biso   1.000  H
  C126     1.0000 0.29200  0.97760  0.85831  Biso   1.000  C
  C127     1.0000 0.34450  0.93600  0.88255  Biso   1.000  C
  C128     1.0000 0.39840  0.96220  0.87016  Biso   1.000  C
  H105     1.0000 0.40300  0.00920  0.84760  Biso   1.000  H
  C129     1.0000 0.44460  0.91760  0.89168  Biso   1.000  C
  H106     1.0000 0.48050  0.93430  0.88310  Biso   1.000  H
  C130     1.0000 0.43986  0.84960  0.92515  Biso   1.000  C
  C131     1.0000 0.38720  0.82730  0.93820  Biso   1.000  C
  H107     1.0000 0.38280  0.78370  0.96130  Biso   1.000  H
  C132     1.0000 0.34060  0.87140  0.91620  Biso   1.000  C
  H108     1.0000 0.30480  0.85560  0.92500  Biso   1.000  H
  Cd5      1.0000 0.80945  0.95179  0.17508  Biso   1.000  Cd
  O37      1.0000 0.85722  0.82190  0.13174  Biso   1.000  O
  O38      1.0000 0.80166  0.70140  0.16675  Biso   1.000  O
  O39      1.0000 0.87551  0.24560  0.04788  Biso   1.000  O
  O40      1.0000 0.86380  0.10480  0.73377  Biso   1.000  O
  O41      1.0000 0.79562  0.95400  0.73549  Biso   1.000  O
  O42      1.0000 0.88190  0.96300  0.90888  Biso   1.000  O
  O43      1.0000 0.25538  0.56100  0.13012  Biso   1.000  O
  O44      1.0000 0.20394  0.45360  0.17057  Biso   1.000  O
  O45      1.0000 0.01079  0.69340  0.05664  Biso   1.000  O
  C133     1.0000 0.87940  0.01040  0.03039  Biso   1.000  C
  C134     1.0000 0.85430  0.98020  0.99424  Biso   1.000  C
  C135     1.0000 0.87920  0.88310  0.97105  Biso   1.000  C
  C136     1.0000 0.93030  0.81830  0.98354  Biso   1.000  C
  C137     1.0000 0.95715  0.85590  0.01773  Biso   1.000  C
  C138     1.0000 0.93180  0.94990  0.04163  Biso   1.000  C
  C139     1.0000 0.85140  0.11090  0.05628  Biso   1.000  C
  H109     1.0000 0.81080  0.11140  0.05130  Biso   1.000  H
  H110     1.0000 0.85940  0.08660  0.08260  Biso   1.000  H
  C140     1.0000 0.79950  0.05700  0.98115  Biso   1.000  C
  H111     1.0000 0.76760  0.99670  0.98340  Biso   1.000  H
  H112     1.0000 0.80180  0.08460  0.95520  Biso   1.000  H
  H113     1.0000 0.79490  0.13710  0.99660  Biso   1.000  H
  C141     1.0000 0.85600  0.85800  0.93135  Biso   1.000  C
  H114     1.0000 0.86600  0.76650  0.92280  Biso   1.000  H
  H115     1.0000 0.81510  0.86700  0.92990  Biso   1.000  H
  C142     1.0000 0.95600  0.70370  0.95889  Biso   1.000  C
  H116     1.0000 0.98350  0.65220  0.97390  Biso   1.000  H
  H117     1.0000 0.97390  0.74520  0.93790  Biso   1.000  H
  H118     1.0000 0.92660  0.64280  0.94960  Biso   1.000  H
  C143     1.0000 0.01575  0.79970  0.02856  Biso   1.000  C
  H119     1.0000 0.03280  0.76210  0.00640  Biso   1.000  H
  H120     1.0000 0.03980  0.87340  0.03860  Biso   1.000  H
  C144     1.0000 0.95920  0.98830  0.08005  Biso   1.000  C
  H121     1.0000 0.99840  0.96270  0.08090  Biso   1.000  H
  H122     1.0000 0.94040  0.94040  0.09960  Biso   1.000  H
  H123     1.0000 0.95600  0.08600  0.08390  Biso   1.000  H
  C145     1.0000 0.83330  0.71040  0.13849  Biso   1.000  C
  C146     1.0000 0.84150  0.58740  0.11417  Biso   1.000  C
  C147     1.0000 0.88160  0.59060  0.08707  Biso   1.000  C
  H124     1.0000 0.90210  0.67080  0.08330  Biso   1.000  H
  C148     1.0000 0.89100  0.47480  0.06572  Biso   1.000  C
  H125     1.0000 0.91830  0.47750  0.04770  Biso   1.000  H
  C149     1.0000 0.86080  0.35550  0.07047  Biso   1.000  C
  C150     1.0000 0.82030  0.35320  0.09669  Biso   1.000  C
  H126     1.0000 0.79920  0.27370  0.10010  Biso   1.000  H
  C151     1.0000 0.81070  0.46900  0.11797  Biso   1.000  C
  H127     1.0000 0.78260  0.46680  0.13540  Biso   1.000  H
  C152     1.0000 0.83460  0.02230  0.75114  Biso   1.000  C
  C153     1.0000 0.84750  0.00120  0.79337  Biso   1.000  C
  C154     1.0000 0.82520  0.89170  0.81252  Biso   1.000  C
  H128     1.0000 0.80260  0.82810  0.79920  Biso   1.000  H
  C155     1.0000 0.83570  0.87390  0.85087  Biso   1.000  C
  H129     1.0000 0.82110  0.79760  0.86300  Biso   1.000  H
  C156     1.0000 0.86780  0.96980  0.87111  Biso   1.000  C
  C157     1.0000 0.89040  0.08020  0.85254  Biso   1.000  C
  H130     1.0000 0.91270  0.14430  0.86600  Biso   1.000  H
  C158     1.0000 0.88020  0.09580  0.81408  Biso   1.000  C
  H131     1.0000 0.89550  0.17100  0.80180  Biso   1.000  H
  C159     1.0000 0.20800  0.52240  0.14169  Biso   1.000  C
  C160     1.0000 0.15550  0.56400  0.11745  Biso   1.000  C
  C161     1.0000 0.10160  0.53780  0.12984  Biso   1.000  C
  H132     1.0000 0.09700  0.49080  0.15240  Biso   1.000  H
  C162     1.0000 0.05540  0.58240  0.10832  Biso   1.000  C
  H133     1.0000 0.01950  0.56570  0.11690  Biso   1.000  H
  C163     1.0000 0.06014  0.65040  0.07485  Biso   1.000  C
  C164     1.0000 0.11280  0.67270  0.06180  Biso   1.000  C
  H134     1.0000 0.11720  0.71630  0.03870  Biso   1.000  H
  C165     1.0000 0.15940  0.62860  0.08380  Biso   1.000  C
  H135     1.0000 0.19520  0.64440  0.07500  Biso   1.000  H
  Cd6      1.0000 0.30945  0.45179  0.17508  Biso   1.000  Cd
  O46      1.0000 0.35722  0.32190  0.13174  Biso   1.000  O
  O47      1.0000 0.30166  0.20140  0.16675  Biso   1.000  O
  O48      1.0000 0.37551  0.74560  0.04788  Biso   1.000  O
  O49      1.0000 0.36380  0.60480  0.73377  Biso   1.000  O
  O50      1.0000 0.29562  0.45400  0.73549  Biso   1.000  O
  O51      1.0000 0.38190  0.46300  0.90888  Biso   1.000  O
  O52      1.0000 0.75538  0.06100  0.13012  Biso   1.000  O
  O53      1.0000 0.70394  0.95360  0.17057  Biso   1.000  O
  O54      1.0000 0.51079  0.19340  0.05664  Biso   1.000  O
  C166     1.0000 0.37940  0.51040  0.03039  Biso   1.000  C
  C167     1.0000 0.35430  0.48020  0.99424  Biso   1.000  C
  C168     1.0000 0.37920  0.38310  0.97105  Biso   1.000  C
  C169     1.0000 0.43030  0.31830  0.98354  Biso   1.000  C
  C170     1.0000 0.45715  0.35590  0.01773  Biso   1.000  C
  C171     1.0000 0.43180  0.44990  0.04163  Biso   1.000  C
  C172     1.0000 0.35140  0.61090  0.05628  Biso   1.000  C
  H136     1.0000 0.31080  0.61140  0.05130  Biso   1.000  H
  H137     1.0000 0.35940  0.58660  0.08260  Biso   1.000  H
  C173     1.0000 0.29950  0.55700  0.98115  Biso   1.000  C
  H138     1.0000 0.26760  0.49670  0.98340  Biso   1.000  H
  H139     1.0000 0.30180  0.58460  0.95520  Biso   1.000  H
  H140     1.0000 0.29490  0.63710  0.99660  Biso   1.000  H
  C174     1.0000 0.35600  0.35800  0.93135  Biso   1.000  C
  H141     1.0000 0.36600  0.26650  0.92280  Biso   1.000  H
  H142     1.0000 0.31510  0.36700  0.92990  Biso   1.000  H
  C175     1.0000 0.45600  0.20370  0.95889  Biso   1.000  C
  H143     1.0000 0.48350  0.15220  0.97390  Biso   1.000  H
  H144     1.0000 0.47390  0.24520  0.93790  Biso   1.000  H
  H145     1.0000 0.42660  0.14280  0.94960  Biso   1.000  H
  C176     1.0000 0.51575  0.29970  0.02856  Biso   1.000  C
  H146     1.0000 0.53280  0.26210  0.00640  Biso   1.000  H
  H147     1.0000 0.53980  0.37340  0.03860  Biso   1.000  H
  C177     1.0000 0.45920  0.48830  0.08005  Biso   1.000  C
  H148     1.0000 0.49840  0.46270  0.08090  Biso   1.000  H
  H149     1.0000 0.44040  0.44040  0.09960  Biso   1.000  H
  H150     1.0000 0.45600  0.58600  0.08390  Biso   1.000  H
  C178     1.0000 0.33330  0.21040  0.13849  Biso   1.000  C
  C179     1.0000 0.34150  0.08740  0.11417  Biso   1.000  C
  C180     1.0000 0.38160  0.09060  0.08707  Biso   1.000  C
  H151     1.0000 0.40210  0.17080  0.08330  Biso   1.000  H
  C181     1.0000 0.39100  0.97480  0.06572  Biso   1.000  C
  H152     1.0000 0.41830  0.97750  0.04770  Biso   1.000  H
  C182     1.0000 0.36080  0.85550  0.07047  Biso   1.000  C
  C183     1.0000 0.32030  0.85320  0.09669  Biso   1.000  C
  H153     1.0000 0.29920  0.77370  0.10010  Biso   1.000  H
  C184     1.0000 0.31070  0.96900  0.11797  Biso   1.000  C
  H154     1.0000 0.28260  0.96680  0.13540  Biso   1.000  H
  C185     1.0000 0.33460  0.52230  0.75114  Biso   1.000  C
  C186     1.0000 0.34750  0.50120  0.79337  Biso   1.000  C
  C187     1.0000 0.32520  0.39170  0.81252  Biso   1.000  C
  H155     1.0000 0.30260  0.32810  0.79920  Biso   1.000  H
  C188     1.0000 0.33570  0.37390  0.85087  Biso   1.000  C
  H156     1.0000 0.32110  0.29760  0.86300  Biso   1.000  H
  C189     1.0000 0.36780  0.46980  0.87111  Biso   1.000  C
  C190     1.0000 0.39040  0.58020  0.85254  Biso   1.000  C
  H157     1.0000 0.41270  0.64430  0.86600  Biso   1.000  H
  C191     1.0000 0.38020  0.59580  0.81408  Biso   1.000  C
  H158     1.0000 0.39550  0.67100  0.80180  Biso   1.000  H
  C192     1.0000 0.70800  0.02240  0.14169  Biso   1.000  C
  C193     1.0000 0.65550  0.06400  0.11745  Biso   1.000  C
  C194     1.0000 0.60160  0.03780  0.12984  Biso   1.000  C
  H159     1.0000 0.59700  0.99080  0.15240  Biso   1.000  H
  C195     1.0000 0.55540  0.08240  0.10832  Biso   1.000  C
  H160     1.0000 0.51950  0.06570  0.11690  Biso   1.000  H
  C196     1.0000 0.56014  0.15040  0.07485  Biso   1.000  C
  C197     1.0000 0.61280  0.17270  0.06180  Biso   1.000  C
  H161     1.0000 0.61720  0.21630  0.03870  Biso   1.000  H
  C198     1.0000 0.65940  0.12860  0.08380  Biso   1.000  C
  H162     1.0000 0.69520  0.14440  0.07500  Biso   1.000  H
  Cd7      1.0000 0.80945  0.04821  0.67508  Biso   1.000  Cd
  O55      1.0000 0.85722  0.17810  0.63174  Biso   1.000  O
  O56      1.0000 0.80166  0.29860  0.66675  Biso   1.000  O
  O57      1.0000 0.87551  0.75440  0.54788  Biso   1.000  O
  O58      1.0000 0.86380  0.89520  0.23377  Biso   1.000  O
  O59      1.0000 0.79562  0.04600  0.23549  Biso   1.000  O
  O60      1.0000 0.88190  0.03700  0.40888  Biso   1.000  O
  O61      1.0000 0.25538  0.43900  0.63012  Biso   1.000  O
  O62      1.0000 0.20394  0.54640  0.67057  Biso   1.000  O
  O63      1.0000 0.01079  0.30660  0.55664  Biso   1.000  O
  C199     1.0000 0.87940  0.98960  0.53039  Biso   1.000  C
  C200     1.0000 0.85430  0.01980  0.49424  Biso   1.000  C
  C201     1.0000 0.87920  0.11690  0.47105  Biso   1.000  C
  C202     1.0000 0.93030  0.18170  0.48354  Biso   1.000  C
  C203     1.0000 0.95715  0.14410  0.51773  Biso   1.000  C
  C204     1.0000 0.93180  0.05010  0.54163  Biso   1.000  C
  C205     1.0000 0.85140  0.88910  0.55628  Biso   1.000  C
  H163     1.0000 0.81080  0.88860  0.55130  Biso   1.000  H
  H164     1.0000 0.85940  0.91340  0.58260  Biso   1.000  H
  C206     1.0000 0.79950  0.94300  0.48115  Biso   1.000  C
  H165     1.0000 0.76760  0.00330  0.48340  Biso   1.000  H
  H166     1.0000 0.80180  0.91540  0.45520  Biso   1.000  H
  H167     1.0000 0.79490  0.86290  0.49660  Biso   1.000  H
  C207     1.0000 0.85600  0.14200  0.43135  Biso   1.000  C
  H168     1.0000 0.86600  0.23350  0.42280  Biso   1.000  H
  H169     1.0000 0.81510  0.13300  0.42990  Biso   1.000  H
  C208     1.0000 0.95600  0.29630  0.45889  Biso   1.000  C
  H170     1.0000 0.98350  0.34780  0.47390  Biso   1.000  H
  H171     1.0000 0.97390  0.25480  0.43790  Biso   1.000  H
  H172     1.0000 0.92660  0.35720  0.44960  Biso   1.000  H
  C209     1.0000 0.01575  0.20030  0.52856  Biso   1.000  C
  H173     1.0000 0.03280  0.23790  0.50640  Biso   1.000  H
  H174     1.0000 0.03980  0.12660  0.53860  Biso   1.000  H
  C210     1.0000 0.95920  0.01170  0.58005  Biso   1.000  C
  H175     1.0000 0.99840  0.03730  0.58090  Biso   1.000  H
  H176     1.0000 0.94040  0.05960  0.59960  Biso   1.000  H
  H177     1.0000 0.95600  0.91400  0.58390  Biso   1.000  H
  C211     1.0000 0.83330  0.28960  0.63849  Biso   1.000  C
  C212     1.0000 0.84150  0.41260  0.61417  Biso   1.000  C
  C213     1.0000 0.88160  0.40940  0.58707  Biso   1.000  C
  H178     1.0000 0.90210  0.32920  0.58330  Biso   1.000  H
  C214     1.0000 0.89100  0.52520  0.56572  Biso   1.000  C
  H179     1.0000 0.91830  0.52250  0.54770  Biso   1.000  H
  C215     1.0000 0.86080  0.64450  0.57047  Biso   1.000  C
  C216     1.0000 0.82030  0.64680  0.59669  Biso   1.000  C
  H180     1.0000 0.79920  0.72630  0.60010  Biso   1.000  H
  C217     1.0000 0.81070  0.53100  0.61797  Biso   1.000  C
  H181     1.0000 0.78260  0.53320  0.63540  Biso   1.000  H
  C218     1.0000 0.83460  0.97770  0.25114  Biso   1.000  C
  C219     1.0000 0.84750  0.99880  0.29337  Biso   1.000  C
  C220     1.0000 0.82520  0.10830  0.31252  Biso   1.000  C
  H182     1.0000 0.80260  0.17190  0.29920  Biso   1.000  H
  C221     1.0000 0.83570  0.12610  0.35087  Biso   1.000  C
  H183     1.0000 0.82110  0.20240  0.36300  Biso   1.000  H
  C222     1.0000 0.86780  0.03020  0.37111  Biso   1.000  C
  C223     1.0000 0.89040  0.91980  0.35254  Biso   1.000  C
  H184     1.0000 0.91270  0.85570  0.36600  Biso   1.000  H
  C224     1.0000 0.88020  0.90420  0.31408  Biso   1.000  C
  H185     1.0000 0.89550  0.82900  0.30180  Biso   1.000  H
  C225     1.0000 0.20800  0.47760  0.64169  Biso   1.000  C
  C226     1.0000 0.15550  0.43600  0.61745  Biso   1.000  C
  C227     1.0000 0.10160  0.46220  0.62984  Biso   1.000  C
  H186     1.0000 0.09700  0.50920  0.65240  Biso   1.000  H
  C228     1.0000 0.05540  0.41760  0.60832  Biso   1.000  C
  H187     1.0000 0.01950  0.43430  0.61690  Biso   1.000  H
  C229     1.0000 0.06014  0.34960  0.57485  Biso   1.000  C
  C230     1.0000 0.11280  0.32730  0.56180  Biso   1.000  C
  H188     1.0000 0.11720  0.28370  0.53870  Biso   1.000  H
  C231     1.0000 0.15940  0.37140  0.58380  Biso   1.000  C
  H189     1.0000 0.19520  0.35560  0.57500  Biso   1.000  H
  Cd8      1.0000 0.30945  0.54821  0.67508  Biso   1.000  Cd
  O64      1.0000 0.35722  0.67810  0.63174  Biso   1.000  O
  O65      1.0000 0.30166  0.79860  0.66675  Biso   1.000  O
  O66      1.0000 0.37551  0.25440  0.54788  Biso   1.000  O
  O67      1.0000 0.36380  0.39520  0.23377  Biso   1.000  O
  O68      1.0000 0.29562  0.54600  0.23549  Biso   1.000  O
  O69      1.0000 0.38190  0.53700  0.40888  Biso   1.000  O
  O70      1.0000 0.75538  0.93900  0.63012  Biso   1.000  O
  O71      1.0000 0.70394  0.04640  0.67057  Biso   1.000  O
  O72      1.0000 0.51079  0.80660  0.55664  Biso   1.000  O
  C232     1.0000 0.37940  0.48960  0.53039  Biso   1.000  C
  C233     1.0000 0.35430  0.51980  0.49424  Biso   1.000  C
  C234     1.0000 0.37920  0.61690  0.47105  Biso   1.000  C
  C235     1.0000 0.43030  0.68170  0.48354  Biso   1.000  C
  C236     1.0000 0.45715  0.64410  0.51773  Biso   1.000  C
  C237     1.0000 0.43180  0.55010  0.54163  Biso   1.000  C
  C238     1.0000 0.35140  0.38910  0.55628  Biso   1.000  C
  H190     1.0000 0.31080  0.38860  0.55130  Biso   1.000  H
  H191     1.0000 0.35940  0.41340  0.58260  Biso   1.000  H
  C239     1.0000 0.29950  0.44300  0.48115  Biso   1.000  C
  H192     1.0000 0.26760  0.50330  0.48340  Biso   1.000  H
  H193     1.0000 0.30180  0.41540  0.45520  Biso   1.000  H
  H194     1.0000 0.29490  0.36290  0.49660  Biso   1.000  H
  C240     1.0000 0.35600  0.64200  0.43135  Biso   1.000  C
  H195     1.0000 0.36600  0.73350  0.42280  Biso   1.000  H
  H196     1.0000 0.31510  0.63300  0.42990  Biso   1.000  H
  C241     1.0000 0.45600  0.79630  0.45889  Biso   1.000  C
  H197     1.0000 0.48350  0.84780  0.47390  Biso   1.000  H
  H198     1.0000 0.47390  0.75480  0.43790  Biso   1.000  H
  H199     1.0000 0.42660  0.85720  0.44960  Biso   1.000  H
  C242     1.0000 0.51575  0.70030  0.52856  Biso   1.000  C
  H200     1.0000 0.53280  0.73790  0.50640  Biso   1.000  H
  H201     1.0000 0.53980  0.62660  0.53860  Biso   1.000  H
  C243     1.0000 0.45920  0.51170  0.58005  Biso   1.000  C
  H202     1.0000 0.49840  0.53730  0.58090  Biso   1.000  H
  H203     1.0000 0.44040  0.55960  0.59960  Biso   1.000  H
  H204     1.0000 0.45600  0.41400  0.58390  Biso   1.000  H
  C244     1.0000 0.33330  0.78960  0.63849  Biso   1.000  C
  C245     1.0000 0.34150  0.91260  0.61417  Biso   1.000  C
  C246     1.0000 0.38160  0.90940  0.58707  Biso   1.000  C
  H205     1.0000 0.40210  0.82920  0.58330  Biso   1.000  H
  C247     1.0000 0.39100  0.02520  0.56572  Biso   1.000  C
  H206     1.0000 0.41830  0.02250  0.54770  Biso   1.000  H
  C248     1.0000 0.36080  0.14450  0.57047  Biso   1.000  C
  C249     1.0000 0.32030  0.14680  0.59669  Biso   1.000  C
  H207     1.0000 0.29920  0.22630  0.60010  Biso   1.000  H
  C250     1.0000 0.31070  0.03100  0.61797  Biso   1.000  C
  H208     1.0000 0.28260  0.03320  0.63540  Biso   1.000  H
  C251     1.0000 0.33460  0.47770  0.25114  Biso   1.000  C
  C252     1.0000 0.34750  0.49880  0.29337  Biso   1.000  C
  C253     1.0000 0.32520  0.60830  0.31252  Biso   1.000  C
  H209     1.0000 0.30260  0.67190  0.29920  Biso   1.000  H
  C254     1.0000 0.33570  0.62610  0.35087  Biso   1.000  C
  H210     1.0000 0.32110  0.70240  0.36300  Biso   1.000  H
  C255     1.0000 0.36780  0.53020  0.37111  Biso   1.000  C
  C256     1.0000 0.39040  0.41980  0.35254  Biso   1.000  C
  H211     1.0000 0.41270  0.35570  0.36600  Biso   1.000  H
  C257     1.0000 0.38020  0.40420  0.31408  Biso   1.000  C
  H212     1.0000 0.39550  0.32900  0.30180  Biso   1.000  H
  C258     1.0000 0.70800  0.97760  0.64169  Biso   1.000  C
  C259     1.0000 0.65550  0.93600  0.61745  Biso   1.000  C
  C260     1.0000 0.60160  0.96220  0.62984  Biso   1.000  C
  H213     1.0000 0.59700  0.00920  0.65240  Biso   1.000  H
  C261     1.0000 0.55540  0.91760  0.60832  Biso   1.000  C
  H214     1.0000 0.51950  0.93430  0.61690  Biso   1.000  H
  C262     1.0000 0.56014  0.84960  0.57485  Biso   1.000  C
  C263     1.0000 0.61280  0.82730  0.56180  Biso   1.000  C
  H215     1.0000 0.61720  0.78370  0.53870  Biso   1.000  H
  C264     1.0000 0.65940  0.87140  0.58380  Biso   1.000  C
  H216     1.0000 0.69520  0.85560  0.57500  Biso   1.000  H
