data_VAXVEX_charged
_audit_creation_date              2014-07-02
_audit_creation_method            'Materials Studio'
_symmetry_space_group_name_H-M    'P1'
_symmetry_Int_Tables_number       1
_symmetry_cell_setting            triclinic
loop_
_symmetry_equiv_pos_as_xyz
  x,y,z
_cell_length_a                    10.6908
_cell_length_b                    10.6908
_cell_length_c                    31.4941
_cell_angle_alpha                 80.2280
_cell_angle_beta                  80.2280
_cell_angle_gamma                 60.0000
loop_
_atom_site_label
_atom_site_type_symbol
_atom_site_fract_x
_atom_site_fract_y
_atom_site_fract_z
_atom_site_U_iso_or_equiv
_atom_site_adp_type
_atom_site_occupancy
Cd1    Cd    0.50000   0.50000   0.50000   0.01267  Uiso   1.00
Cd2    Cd    0.00000   0.00000   0.00000   0.01267  Uiso   1.00
H1     H     0.57500   0.20210   0.57430   0.01267  Uiso   1.00
H2     H     0.16790   0.30830   0.59350   0.01267  Uiso   1.00
H3     H     0.58180   0.93320   0.59650   0.01267  Uiso   1.00
H4     H     0.63660   0.75260   0.65080   0.01267  Uiso   1.00
H5     H     0.33130   0.02670   0.73210   0.01267  Uiso   1.00
H6     H     0.27790   0.21860   0.67660   0.01267  Uiso   1.00
H7     H     0.64960   0.68170   0.72670   0.01267  Uiso   1.00
H8     H     0.50670   0.67520   0.72730   0.01267  Uiso   1.00
H9     H     0.20210   0.64860   0.57430   0.01267  Uiso   1.00
H10    H     0.30830   0.93030   0.59350   0.01267  Uiso   1.00
H11    H     0.93320   0.88850   0.59650   0.01267  Uiso   1.00
H12    H     0.75260   0.96000   0.65080   0.01267  Uiso   1.00
H13    H     0.02670   0.90990   0.73210   0.01267  Uiso   1.00
H14    H     0.21860   0.82690   0.67660   0.01267  Uiso   1.00
H15    H     0.68170   0.94200   0.72670   0.01267  Uiso   1.00
H16    H     0.67520   0.09080   0.72730   0.01267  Uiso   1.00
H17    H     0.64860   0.57500   0.57430   0.01267  Uiso   1.00
H18    H     0.93030   0.16790   0.59350   0.01267  Uiso   1.00
H19    H     0.88850   0.58180   0.59650   0.01267  Uiso   1.00
H20    H     0.96000   0.63660   0.65080   0.01267  Uiso   1.00
H21    H     0.90990   0.33130   0.73210   0.01267  Uiso   1.00
H22    H     0.82690   0.27790   0.67660   0.01267  Uiso   1.00
H23    H     0.94200   0.64960   0.72670   0.01267  Uiso   1.00
H24    H     0.09080   0.50670   0.72730   0.01267  Uiso   1.00
H25    H     0.92500   0.85140   0.92570   0.01267  Uiso   1.00
H26    H     0.33210   0.56970   0.90650   0.01267  Uiso   1.00
H27    H     0.91820   0.61150   0.90350   0.01267  Uiso   1.00
H28    H     0.86340   0.54000   0.84920   0.01267  Uiso   1.00
H29    H     0.16870   0.59010   0.76790   0.01267  Uiso   1.00
H30    H     0.22210   0.67310   0.82340   0.01267  Uiso   1.00
H31    H     0.85040   0.55800   0.77330   0.01267  Uiso   1.00
H32    H     0.99330   0.40920   0.77270   0.01267  Uiso   1.00
H33    H     0.29790   0.92500   0.92570   0.01267  Uiso   1.00
H34    H     0.19170   0.33210   0.90650   0.01267  Uiso   1.00
H35    H     0.56680   0.91820   0.90350   0.01267  Uiso   1.00
H36    H     0.74740   0.86340   0.84920   0.01267  Uiso   1.00
H37    H     0.47330   0.16870   0.76790   0.01267  Uiso   1.00
H38    H     0.28140   0.22210   0.82340   0.01267  Uiso   1.00
H39    H     0.81830   0.85040   0.77330   0.01267  Uiso   1.00
H40    H     0.82480   0.99330   0.77270   0.01267  Uiso   1.00
H41    H     0.85140   0.29790   0.92570   0.01267  Uiso   1.00
H42    H     0.56970   0.19170   0.90650   0.01267  Uiso   1.00
H43    H     0.61150   0.56680   0.90350   0.01267  Uiso   1.00
H44    H     0.54000   0.74740   0.84920   0.01267  Uiso   1.00
H45    H     0.59010   0.47330   0.76790   0.01267  Uiso   1.00
H46    H     0.67310   0.28140   0.82340   0.01267  Uiso   1.00
H47    H     0.55800   0.81830   0.77330   0.01267  Uiso   1.00
H48    H     0.40920   0.82480   0.77270   0.01267  Uiso   1.00
H49    H     0.42500   0.79790   0.42570   0.01267  Uiso   1.00
H50    H     0.83210   0.69170   0.40650   0.01267  Uiso   1.00
H51    H     0.41820   0.06680   0.40350   0.01267  Uiso   1.00
H52    H     0.36340   0.24740   0.34920   0.01267  Uiso   1.00
H53    H     0.66870   0.97330   0.26790   0.01267  Uiso   1.00
H54    H     0.72210   0.78140   0.32340   0.01267  Uiso   1.00
H55    H     0.35040   0.31830   0.27330   0.01267  Uiso   1.00
H56    H     0.49330   0.32480   0.27270   0.01267  Uiso   1.00
H57    H     0.79790   0.35140   0.42570   0.01267  Uiso   1.00
H58    H     0.69170   0.06970   0.40650   0.01267  Uiso   1.00
H59    H     0.06680   0.11150   0.40350   0.01267  Uiso   1.00
H60    H     0.24740   0.04000   0.34920   0.01267  Uiso   1.00
H61    H     0.97330   0.09010   0.26790   0.01267  Uiso   1.00
H62    H     0.78140   0.17310   0.32340   0.01267  Uiso   1.00
H63    H     0.31830   0.05800   0.27330   0.01267  Uiso   1.00
H64    H     0.32480   0.90920   0.27270   0.01267  Uiso   1.00
H65    H     0.35140   0.42500   0.42570   0.01267  Uiso   1.00
H66    H     0.06970   0.83210   0.40650   0.01267  Uiso   1.00
H67    H     0.11150   0.41820   0.40350   0.01267  Uiso   1.00
H68    H     0.04000   0.36340   0.34920   0.01267  Uiso   1.00
H69    H     0.09010   0.66870   0.26790   0.01267  Uiso   1.00
H70    H     0.17310   0.72210   0.32340   0.01267  Uiso   1.00
H71    H     0.05800   0.35040   0.27330   0.01267  Uiso   1.00
H72    H     0.90920   0.49330   0.27270   0.01267  Uiso   1.00
H73    H     0.07500   0.14860   0.07430   0.01267  Uiso   1.00
H74    H     0.66790   0.43030   0.09350   0.01267  Uiso   1.00
H75    H     0.08180   0.38850   0.09650   0.01267  Uiso   1.00
H76    H     0.13660   0.46000   0.15080   0.01267  Uiso   1.00
H77    H     0.83130   0.40990   0.23210   0.01267  Uiso   1.00
H78    H     0.77790   0.32690   0.17660   0.01267  Uiso   1.00
H79    H     0.14960   0.44200   0.22670   0.01267  Uiso   1.00
H80    H     0.00670   0.59080   0.22730   0.01267  Uiso   1.00
H81    H     0.70210   0.07500   0.07430   0.01267  Uiso   1.00
H82    H     0.80830   0.66790   0.09350   0.01267  Uiso   1.00
H83    H     0.43320   0.08180   0.09650   0.01267  Uiso   1.00
H84    H     0.25260   0.13660   0.15080   0.01267  Uiso   1.00
H85    H     0.52670   0.83130   0.23210   0.01267  Uiso   1.00
H86    H     0.71860   0.77790   0.17660   0.01267  Uiso   1.00
H87    H     0.18170   0.14960   0.22670   0.01267  Uiso   1.00
H88    H     0.17520   0.00670   0.22730   0.01267  Uiso   1.00
H89    H     0.14860   0.70210   0.07430   0.01267  Uiso   1.00
H90    H     0.43030   0.80830   0.09350   0.01267  Uiso   1.00
H91    H     0.38850   0.43320   0.09650   0.01267  Uiso   1.00
H92    H     0.46000   0.25260   0.15080   0.01267  Uiso   1.00
H93    H     0.40990   0.52670   0.23210   0.01267  Uiso   1.00
H94    H     0.32690   0.71860   0.17660   0.01267  Uiso   1.00
H95    H     0.44200   0.18170   0.22670   0.01267  Uiso   1.00
H96    H     0.59080   0.17520   0.22730   0.01267  Uiso   1.00
C1     C     0.47598   0.24788   0.57166   0.01267  Uiso   1.00
C2     C     0.25532   0.30542   0.58204   0.01267  Uiso   1.00
C3     C     0.42430   0.08810   0.63010   0.01267  Uiso   1.00
C4     C     0.53030   0.95280   0.62380   0.01267  Uiso   1.00
C5     C     0.56261   0.84521   0.65647   0.01267  Uiso   1.00
C6     C     0.49314   0.86504   0.69688   0.01267  Uiso   1.00
C7     C     0.38155   0.00885   0.70495   0.01267  Uiso   1.00
C8     C     0.34754   0.12374   0.67168   0.01267  Uiso   1.00
C9     C     0.54463   0.73723   0.73171   0.01267  Uiso   1.00
C10    C     0.24788   0.70448   0.57166   0.01267  Uiso   1.00
C11    C     0.30542   0.85722   0.58204   0.01267  Uiso   1.00
C12    C     0.08810   0.85750   0.63010   0.01267  Uiso   1.00
C13    C     0.95280   0.89310   0.62380   0.01267  Uiso   1.00
C14    C     0.84521   0.93571   0.65647   0.01267  Uiso   1.00
C15    C     0.86504   0.94494   0.69688   0.01267  Uiso   1.00
C16    C     0.00885   0.90465   0.70495   0.01267  Uiso   1.00
C17    C     0.12374   0.85704   0.67168   0.01267  Uiso   1.00
C18    C     0.73723   0.98643   0.73171   0.01267  Uiso   1.00
C19    C     0.70448   0.47598   0.57166   0.01267  Uiso   1.00
C20    C     0.85722   0.25532   0.58204   0.01267  Uiso   1.00
C21    C     0.85750   0.42430   0.63010   0.01267  Uiso   1.00
C22    C     0.89310   0.53030   0.62380   0.01267  Uiso   1.00
C23    C     0.93571   0.56261   0.65647   0.01267  Uiso   1.00
C24    C     0.94494   0.49314   0.69688   0.01267  Uiso   1.00
C25    C     0.90465   0.38155   0.70495   0.01267  Uiso   1.00
C26    C     0.85704   0.34754   0.67168   0.01267  Uiso   1.00
C27    C     0.98643   0.54463   0.73171   0.01267  Uiso   1.00
C28    C     0.02402   0.79552   0.92834   0.01267  Uiso   1.00
C29    C     0.24468   0.64278   0.91796   0.01267  Uiso   1.00
C30    C     0.07570   0.64250   0.86990   0.01267  Uiso   1.00
C31    C     0.96970   0.60690   0.87620   0.01267  Uiso   1.00
C32    C     0.93739   0.56429   0.84353   0.01267  Uiso   1.00
C33    C     0.00686   0.55506   0.80312   0.01267  Uiso   1.00
C34    C     0.11845   0.59535   0.79505   0.01267  Uiso   1.00
C35    C     0.15246   0.64296   0.82832   0.01267  Uiso   1.00
C36    C     0.95537   0.51357   0.76829   0.01267  Uiso   1.00
C37    C     0.25212   0.02402   0.92834   0.01267  Uiso   1.00
C38    C     0.19458   0.24468   0.91796   0.01267  Uiso   1.00
C39    C     0.41190   0.07570   0.86990   0.01267  Uiso   1.00
C40    C     0.54720   0.96970   0.87620   0.01267  Uiso   1.00
C41    C     0.65479   0.93739   0.84353   0.01267  Uiso   1.00
C42    C     0.63496   0.00686   0.80312   0.01267  Uiso   1.00
C43    C     0.49115   0.11845   0.79505   0.01267  Uiso   1.00
C44    C     0.37626   0.15246   0.82832   0.01267  Uiso   1.00
C45    C     0.76277   0.95537   0.76829   0.01267  Uiso   1.00
C46    C     0.79552   0.25212   0.92834   0.01267  Uiso   1.00
C47    C     0.64278   0.19458   0.91796   0.01267  Uiso   1.00
C48    C     0.64250   0.41190   0.86990   0.01267  Uiso   1.00
C49    C     0.60690   0.54720   0.87620   0.01267  Uiso   1.00
C50    C     0.56429   0.65479   0.84353   0.01267  Uiso   1.00
C51    C     0.55506   0.63496   0.80312   0.01267  Uiso   1.00
C52    C     0.59535   0.49115   0.79505   0.01267  Uiso   1.00
C53    C     0.64296   0.37626   0.82832   0.01267  Uiso   1.00
C54    C     0.51357   0.76277   0.76829   0.01267  Uiso   1.00
C55    C     0.52402   0.75212   0.42834   0.01267  Uiso   1.00
C56    C     0.74468   0.69458   0.41796   0.01267  Uiso   1.00
C57    C     0.57570   0.91190   0.36990   0.01267  Uiso   1.00
C58    C     0.46970   0.04720   0.37620   0.01267  Uiso   1.00
C59    C     0.43739   0.15479   0.34353   0.01267  Uiso   1.00
C60    C     0.50686   0.13496   0.30312   0.01267  Uiso   1.00
C61    C     0.61845   0.99115   0.29505   0.01267  Uiso   1.00
C62    C     0.65246   0.87626   0.32832   0.01267  Uiso   1.00
C63    C     0.45537   0.26277   0.26829   0.01267  Uiso   1.00
C64    C     0.75212   0.29552   0.42834   0.01267  Uiso   1.00
C65    C     0.69458   0.14278   0.41796   0.01267  Uiso   1.00
C66    C     0.91190   0.14250   0.36990   0.01267  Uiso   1.00
C67    C     0.04720   0.10690   0.37620   0.01267  Uiso   1.00
C68    C     0.15479   0.06429   0.34353   0.01267  Uiso   1.00
C69    C     0.13496   0.05506   0.30312   0.01267  Uiso   1.00
C70    C     0.99115   0.09535   0.29505   0.01267  Uiso   1.00
C71    C     0.87626   0.14296   0.32832   0.01267  Uiso   1.00
C72    C     0.26277   0.01357   0.26829   0.01267  Uiso   1.00
C73    C     0.29552   0.52402   0.42834   0.01267  Uiso   1.00
C74    C     0.14278   0.74468   0.41796   0.01267  Uiso   1.00
C75    C     0.14250   0.57570   0.36990   0.01267  Uiso   1.00
C76    C     0.10690   0.46970   0.37620   0.01267  Uiso   1.00
C77    C     0.06429   0.43739   0.34353   0.01267  Uiso   1.00
C78    C     0.05506   0.50686   0.30312   0.01267  Uiso   1.00
C79    C     0.09535   0.61845   0.29505   0.01267  Uiso   1.00
C80    C     0.14296   0.65246   0.32832   0.01267  Uiso   1.00
C81    C     0.01357   0.45537   0.26829   0.01267  Uiso   1.00
C82    C     0.97598   0.20448   0.07166   0.01267  Uiso   1.00
C83    C     0.75532   0.35722   0.08204   0.01267  Uiso   1.00
C84    C     0.92430   0.35750   0.13010   0.01267  Uiso   1.00
C85    C     0.03030   0.39310   0.12380   0.01267  Uiso   1.00
C86    C     0.06261   0.43571   0.15647   0.01267  Uiso   1.00
C87    C     0.99314   0.44494   0.19688   0.01267  Uiso   1.00
C88    C     0.88155   0.40465   0.20495   0.01267  Uiso   1.00
C89    C     0.84754   0.35704   0.17168   0.01267  Uiso   1.00
C90    C     0.04463   0.48643   0.23171   0.01267  Uiso   1.00
C91    C     0.74788   0.97598   0.07166   0.01267  Uiso   1.00
C92    C     0.80542   0.75532   0.08204   0.01267  Uiso   1.00
C93    C     0.58810   0.92430   0.13010   0.01267  Uiso   1.00
C94    C     0.45280   0.03030   0.12380   0.01267  Uiso   1.00
C95    C     0.34521   0.06261   0.15647   0.01267  Uiso   1.00
C96    C     0.36504   0.99314   0.19688   0.01267  Uiso   1.00
C97    C     0.50885   0.88155   0.20495   0.01267  Uiso   1.00
C98    C     0.62374   0.84754   0.17168   0.01267  Uiso   1.00
C99    C     0.23723   0.04463   0.23171   0.01267  Uiso   1.00
C100   C     0.20448   0.74788   0.07166   0.01267  Uiso   1.00
C101   C     0.35722   0.80542   0.08204   0.01267  Uiso   1.00
C102   C     0.35750   0.58810   0.13010   0.01267  Uiso   1.00
C103   C     0.39310   0.45280   0.12380   0.01267  Uiso   1.00
C104   C     0.43571   0.34521   0.15647   0.01267  Uiso   1.00
C105   C     0.44494   0.36504   0.19688   0.01267  Uiso   1.00
C106   C     0.40465   0.50885   0.20495   0.01267  Uiso   1.00
C107   C     0.35704   0.62374   0.17168   0.01267  Uiso   1.00
C108   C     0.48643   0.23723   0.23171   0.01267  Uiso   1.00
N1     N     0.40962   0.35842   0.54424   0.01267  Uiso   1.00
N2     N     0.26627   0.39627   0.55069   0.01267  Uiso   1.00
N3     N     0.38310   0.20760   0.59590   0.01267  Uiso   1.00
N4     N     0.35842   0.68772   0.54424   0.01267  Uiso   1.00
N5     N     0.39627   0.78677   0.55069   0.01267  Uiso   1.00
N6     N     0.20760   0.81340   0.59590   0.01267  Uiso   1.00
N7     N     0.68772   0.40962   0.54424   0.01267  Uiso   1.00
N8     N     0.78677   0.26627   0.55069   0.01267  Uiso   1.00
N9     N     0.81340   0.38310   0.59590   0.01267  Uiso   1.00
N10    N     0.09038   0.81228   0.95576   0.01267  Uiso   1.00
N11    N     0.23373   0.71323   0.94931   0.01267  Uiso   1.00
N12    N     0.11690   0.68660   0.90410   0.01267  Uiso   1.00
N13    N     0.14158   0.09038   0.95576   0.01267  Uiso   1.00
N14    N     0.10373   0.23373   0.94931   0.01267  Uiso   1.00
N15    N     0.29240   0.11690   0.90410   0.01267  Uiso   1.00
N16    N     0.81228   0.14158   0.95576   0.01267  Uiso   1.00
N17    N     0.71323   0.10373   0.94931   0.01267  Uiso   1.00
N18    N     0.68660   0.29240   0.90410   0.01267  Uiso   1.00
N19    N     0.59038   0.64158   0.45576   0.01267  Uiso   1.00
N20    N     0.73373   0.60373   0.44931   0.01267  Uiso   1.00
N21    N     0.61690   0.79240   0.40410   0.01267  Uiso   1.00
N22    N     0.64158   0.31228   0.45576   0.01267  Uiso   1.00
N23    N     0.60373   0.21323   0.44931   0.01267  Uiso   1.00
N24    N     0.79240   0.18660   0.40410   0.01267  Uiso   1.00
N25    N     0.31228   0.59038   0.45576   0.01267  Uiso   1.00
N26    N     0.21323   0.73373   0.44931   0.01267  Uiso   1.00
N27    N     0.18660   0.61690   0.40410   0.01267  Uiso   1.00
N28    N     0.90962   0.18772   0.04424   0.01267  Uiso   1.00
N29    N     0.76627   0.28677   0.05069   0.01267  Uiso   1.00
N30    N     0.88310   0.31340   0.09590   0.01267  Uiso   1.00
N31    N     0.85842   0.90962   0.04424   0.01267  Uiso   1.00
N32    N     0.89627   0.76627   0.05069   0.01267  Uiso   1.00
N33    N     0.70760   0.88310   0.09590   0.01267  Uiso   1.00
N34    N     0.18772   0.85842   0.04424   0.01267  Uiso   1.00
N35    N     0.28677   0.89627   0.05069   0.01267  Uiso   1.00
N36    N     0.31340   0.70760   0.09590   0.01267  Uiso   1.00
Cl1    Cl    0.94398   0.94398   0.16806   0.01267  Uiso   1.00
O1     O     0.81480   0.06250   0.15210   0.01267  Uiso   1.00
O2     O     0.06250   0.97060   0.15210   0.01267  Uiso   1.00
O3     O     0.97060   0.81480   0.15210   0.01267  Uiso   1.00
O4     O     0.92881   0.92881   0.21357   0.01267  Uiso   1.00
Cl2    Cl    0.55602   0.55602   0.33194   0.01267  Uiso   1.00
O5     O     0.68520   0.52940   0.34790   0.01267  Uiso   1.00
O6     O     0.43750   0.68520   0.34790   0.01267  Uiso   1.00
O7     O     0.52940   0.43750   0.34790   0.01267  Uiso   1.00
O8     O     0.57119   0.57119   0.28643   0.01267  Uiso   1.00
Cl3    Cl    0.05602   0.05602   0.83194   0.01267  Uiso   1.00
O9     O     0.18520   0.93750   0.84790   0.01267  Uiso   1.00
O10    O     0.93750   0.02940   0.84790   0.01267  Uiso   1.00
O11    O     0.02940   0.18520   0.84790   0.01267  Uiso   1.00
O12    O     0.07119   0.07119   0.78643   0.01267  Uiso   1.00
Cl4    Cl    0.44398   0.44398   0.66806   0.01267  Uiso   1.00
O13    O     0.31480   0.47060   0.65210   0.01267  Uiso   1.00
O14    O     0.56250   0.31480   0.65210   0.01267  Uiso   1.00
O15    O     0.47060   0.56250   0.65210   0.01267  Uiso   1.00
O16    O     0.42881   0.42881   0.71357   0.01267  Uiso   1.00
