data_VAYDOQ_clean
_audit_creation_date              2014-07-02
_audit_creation_method            'Materials Studio'
_symmetry_space_group_name_H-M    'P1'
_symmetry_Int_Tables_number       1
_symmetry_cell_setting            triclinic
loop_
_symmetry_equiv_pos_as_xyz
  x,y,z
_cell_length_a                    7.5203
_cell_length_b                    13.5520
_cell_length_c                    15.6230
_cell_angle_alpha                 90.0000
_cell_angle_beta                  90.0000
_cell_angle_gamma                 90.0000
loop_
_atom_site_label
_atom_site_type_symbol
_atom_site_fract_x
_atom_site_fract_y
_atom_site_fract_z
_atom_site_U_iso_or_equiv
_atom_site_adp_type
_atom_site_occupancy
Li1    Li    0.47790   0.67550   0.08893   0.01267  Uiso   1.00
Li2    Li    0.33720   0.51820   0.98290   0.01267  Uiso   1.00
Li3    Li    0.97790   0.82450   0.91107   0.01267  Uiso   1.00
Li4    Li    0.83720   0.98180   0.01710   0.01267  Uiso   1.00
Li5    Li    0.52210   0.32450   0.58893   0.01267  Uiso   1.00
Li6    Li    0.66280   0.48180   0.48290   0.01267  Uiso   1.00
Li7    Li    0.02210   0.17550   0.41107   0.01267  Uiso   1.00
Li8    Li    0.16280   0.01820   0.51710   0.01267  Uiso   1.00
Li9    Li    0.52210   0.32450   0.91107   0.01267  Uiso   1.00
Li10   Li    0.66280   0.48180   0.01710   0.01267  Uiso   1.00
Li11   Li    0.02210   0.17550   0.08893   0.01267  Uiso   1.00
Li12   Li    0.16280   0.01820   0.98290   0.01267  Uiso   1.00
Li13   Li    0.47790   0.67550   0.41107   0.01267  Uiso   1.00
Li14   Li    0.33720   0.51820   0.51710   0.01267  Uiso   1.00
Li15   Li    0.97790   0.82450   0.58893   0.01267  Uiso   1.00
Li16   Li    0.83720   0.98180   0.48290   0.01267  Uiso   1.00
H1     H     0.03180   0.58640   0.93540   0.01267  Uiso   1.00
H2     H     0.16220   0.52190   0.94830   0.01267  Uiso   1.00
H3     H     0.53180   0.91360   0.06460   0.01267  Uiso   1.00
H4     H     0.66220   0.97810   0.05170   0.01267  Uiso   1.00
H5     H     0.96820   0.41360   0.43540   0.01267  Uiso   1.00
H6     H     0.83780   0.47810   0.44830   0.01267  Uiso   1.00
H7     H     0.46820   0.08640   0.56460   0.01267  Uiso   1.00
H8     H     0.33780   0.02190   0.55170   0.01267  Uiso   1.00
H9     H     0.96820   0.41360   0.06460   0.01267  Uiso   1.00
H10    H     0.83780   0.47810   0.05170   0.01267  Uiso   1.00
H11    H     0.46820   0.08640   0.93540   0.01267  Uiso   1.00
H12    H     0.33780   0.02190   0.94830   0.01267  Uiso   1.00
H13    H     0.03180   0.58640   0.56460   0.01267  Uiso   1.00
H14    H     0.16220   0.52190   0.55170   0.01267  Uiso   1.00
H15    H     0.53180   0.91360   0.43540   0.01267  Uiso   1.00
H16    H     0.66220   0.97810   0.44830   0.01267  Uiso   1.00
H17    H     0.71200   0.71850   0.75000   0.01267  Uiso   1.00
H18    H     0.48620   0.40030   0.75000   0.01267  Uiso   1.00
H19    H     0.21200   0.78150   0.25000   0.01267  Uiso   1.00
H20    H     0.98620   0.09970   0.25000   0.01267  Uiso   1.00
H21    H     0.28800   0.28150   0.25000   0.01267  Uiso   1.00
H22    H     0.51380   0.59970   0.25000   0.01267  Uiso   1.00
H23    H     0.78800   0.21850   0.75000   0.01267  Uiso   1.00
H24    H     0.01380   0.90030   0.75000   0.01267  Uiso   1.00
C1     C     0.63130   0.60799   0.82688   0.01267  Uiso   1.00
C2     C     0.56190   0.51031   0.82924   0.01267  Uiso   1.00
C3     C     0.13130   0.89201   0.17312   0.01267  Uiso   1.00
C4     C     0.06190   0.98969   0.17076   0.01267  Uiso   1.00
C5     C     0.36870   0.39201   0.32688   0.01267  Uiso   1.00
C6     C     0.43810   0.48969   0.32924   0.01267  Uiso   1.00
C7     C     0.86870   0.10799   0.67312   0.01267  Uiso   1.00
C8     C     0.93810   0.01031   0.67076   0.01267  Uiso   1.00
C9     C     0.36870   0.39201   0.17312   0.01267  Uiso   1.00
C10    C     0.43810   0.48969   0.17076   0.01267  Uiso   1.00
C11    C     0.86870   0.10799   0.82688   0.01267  Uiso   1.00
C12    C     0.93810   0.01031   0.82924   0.01267  Uiso   1.00
C13    C     0.63130   0.60799   0.67312   0.01267  Uiso   1.00
C14    C     0.56190   0.51031   0.67076   0.01267  Uiso   1.00
C15    C     0.13130   0.89201   0.32688   0.01267  Uiso   1.00
C16    C     0.06190   0.98969   0.32924   0.01267  Uiso   1.00
C17    C     0.66570   0.65489   0.75000   0.01267  Uiso   1.00
C18    C     0.53030   0.46440   0.75000   0.01267  Uiso   1.00
C19    C     0.16570   0.84511   0.25000   0.01267  Uiso   1.00
C20    C     0.03030   0.03560   0.25000   0.01267  Uiso   1.00
C21    C     0.33430   0.34511   0.25000   0.01267  Uiso   1.00
C22    C     0.46970   0.53560   0.25000   0.01267  Uiso   1.00
C23    C     0.83430   0.15489   0.75000   0.01267  Uiso   1.00
C24    C     0.96970   0.96440   0.75000   0.01267  Uiso   1.00
S1     S     0.66800   0.67030   0.92237   0.01267  Uiso   1.00
S2     S     0.16800   0.82970   0.07763   0.01267  Uiso   1.00
S3     S     0.33200   0.32970   0.42237   0.01267  Uiso   1.00
S4     S     0.83200   0.17030   0.57763   0.01267  Uiso   1.00
S5     S     0.33200   0.32970   0.07763   0.01267  Uiso   1.00
S6     S     0.83200   0.17030   0.92237   0.01267  Uiso   1.00
S7     S     0.66800   0.67030   0.57763   0.01267  Uiso   1.00
S8     S     0.16800   0.82970   0.42237   0.01267  Uiso   1.00
O1     O     0.49572   0.68170   0.96436   0.01267  Uiso   1.00
O2     O     0.74536   0.76554   0.89930   0.01267  Uiso   1.00
O3     O     0.13370   0.57169   0.92182   0.01267  Uiso   1.00
O4     O     0.78709   0.61052   0.97560   0.01267  Uiso   1.00
O5     O     0.52835   0.46624   0.90333   0.01267  Uiso   1.00
O6     O     0.99572   0.81830   0.03564   0.01267  Uiso   1.00
O7     O     0.24536   0.73446   0.10070   0.01267  Uiso   1.00
O8     O     0.63370   0.92831   0.07818   0.01267  Uiso   1.00
O9     O     0.28709   0.88948   0.02440   0.01267  Uiso   1.00
O10    O     0.02835   0.03376   0.09667   0.01267  Uiso   1.00
O11    O     0.50428   0.31830   0.46436   0.01267  Uiso   1.00
O12    O     0.25464   0.23446   0.39930   0.01267  Uiso   1.00
O13    O     0.86630   0.42831   0.42182   0.01267  Uiso   1.00
O14    O     0.21291   0.38948   0.47560   0.01267  Uiso   1.00
O15    O     0.47165   0.53376   0.40333   0.01267  Uiso   1.00
O16    O     0.00428   0.18170   0.53564   0.01267  Uiso   1.00
O17    O     0.75464   0.26554   0.60070   0.01267  Uiso   1.00
O18    O     0.36630   0.07169   0.57818   0.01267  Uiso   1.00
O19    O     0.71291   0.11052   0.52440   0.01267  Uiso   1.00
O20    O     0.97165   0.96624   0.59667   0.01267  Uiso   1.00
O21    O     0.50428   0.31830   0.03564   0.01267  Uiso   1.00
O22    O     0.25464   0.23446   0.10070   0.01267  Uiso   1.00
O23    O     0.86630   0.42831   0.07818   0.01267  Uiso   1.00
O24    O     0.21291   0.38948   0.02440   0.01267  Uiso   1.00
O25    O     0.47165   0.53376   0.09667   0.01267  Uiso   1.00
O26    O     0.00428   0.18170   0.96436   0.01267  Uiso   1.00
O27    O     0.75464   0.26554   0.89930   0.01267  Uiso   1.00
O28    O     0.36630   0.07169   0.92182   0.01267  Uiso   1.00
O29    O     0.71291   0.11052   0.97560   0.01267  Uiso   1.00
O30    O     0.97165   0.96624   0.90333   0.01267  Uiso   1.00
O31    O     0.49572   0.68170   0.53564   0.01267  Uiso   1.00
O32    O     0.74536   0.76554   0.60070   0.01267  Uiso   1.00
O33    O     0.13370   0.57169   0.57818   0.01267  Uiso   1.00
O34    O     0.78709   0.61052   0.52440   0.01267  Uiso   1.00
O35    O     0.52835   0.46624   0.59667   0.01267  Uiso   1.00
O36    O     0.99572   0.81830   0.46436   0.01267  Uiso   1.00
O37    O     0.24536   0.73446   0.39930   0.01267  Uiso   1.00
O38    O     0.63370   0.92831   0.42182   0.01267  Uiso   1.00
O39    O     0.28709   0.88948   0.47560   0.01267  Uiso   1.00
O40    O     0.02835   0.03376   0.40333   0.01267  Uiso   1.00
