data_image0
_cell_length_a       7.83
_cell_length_b       10.912
_cell_length_c       12.498
_cell_angle_alpha    106.544
_cell_angle_beta     96.596
_cell_angle_gamma    99.562

_symmetry_space_group_name_H-M    "P 1"
_symmetry_int_tables_number       1

loop_
  _symmetry_equiv_pos_as_xyz
  'x, y, z'

loop_
  _atom_site_label
  _atom_site_occupancy
  _atom_site_fract_x
  _atom_site_fract_y
  _atom_site_fract_z
  _atom_site_thermal_displace_type
  _atom_site_B_iso_or_equiv
  _atom_site_type_symbol
  Co1      1.0000 0.86215  0.51850  0.40173  Biso   1.000  Co
  Co2      1.0000 0.51596  0.36557  0.52034  Biso   1.000  Co
  O1       1.0000 0.93870  0.36360  0.46070  Biso   1.000  O
  O2       1.0000 0.70210  0.25290  0.50280  Biso   1.000  O
  O3       1.0000 0.65310  0.77900  0.45010  Biso   1.000  O
  O4       1.0000 0.83440  0.67430  0.34900  Biso   1.000  O
  O5       1.0000 0.53160  0.05360  0.20280  Biso   1.000  O
  O6       1.0000 0.61500  0.88850  0.11130  Biso   1.000  O
  O7       1.0000 0.27740  0.62260  0.75090  Biso   1.000  O
  O8       1.0000 0.99050  0.56250  0.73420  Biso   1.000  O
  O9       1.0000 0.19260  0.01220  0.21820  Biso   1.000  O
  O10      1.0000 0.67530  0.52700  0.49940  Biso   1.000  O
  H1       1.0000 0.74100  0.57420  0.57580  Biso   1.000  H
  N1       1.0000 0.50010  0.94610  0.13480  Biso   1.000  N
  C1       1.0000 0.88600  0.13060  0.40320  Biso   1.000  C
  C2       1.0000 0.80230  0.01470  0.41830  Biso   1.000  C
  H2       1.0000 0.71370  0.01600  0.46190  Biso   1.000  H
  C3       1.0000 0.85090  0.89790  0.36870  Biso   1.000  C
  C4       1.0000 0.98110  0.89480  0.30080  Biso   1.000  C
  H3       1.0000 0.01660  0.81720  0.26870  Biso   1.000  H
  C5       1.0000 0.05570  0.00880  0.28210  Biso   1.000  C
  C6       1.0000 0.01300  0.12730  0.33370  Biso   1.000  C
  H4       1.0000 0.06840  0.20350  0.32200  Biso   1.000  H
  C7       1.0000 0.83690  0.25710  0.46010  Biso   1.000  C
  C8       1.0000 0.77200  0.77300  0.39110  Biso   1.000  C
  C9       1.0000 0.17140  0.92090  0.11450  Biso   1.000  C
  C10      1.0000 0.32190  0.88750  0.07190  Biso   1.000  C
  C11      1.0000 0.30700  0.79450  0.96740  Biso   1.000  C
  H5       1.0000 0.40790  0.77280  0.94120  Biso   1.000  H
  C12      1.0000 0.14510  0.73400  0.90180  Biso   1.000  C
  C13      1.0000 0.99610  0.76880  0.94240  Biso   1.000  C
  H6       1.0000 0.88590  0.72970  0.89830  Biso   1.000  H
  C14      1.0000 0.00850  0.86090  0.04750  Biso   1.000  C
  H7       1.0000 0.90710  0.88240  0.07300  Biso   1.000  H
  C15      1.0000 0.13520  0.63430  0.78940  Biso   1.000  C
  Co3      1.0000 0.13785  0.48150  0.59827  Biso   1.000  Co
  Co4      1.0000 0.48404  0.63443  0.47966  Biso   1.000  Co
  O11      1.0000 0.06130  0.63640  0.53930  Biso   1.000  O
  O12      1.0000 0.29790  0.74710  0.49720  Biso   1.000  O
  O13      1.0000 0.34690  0.22100  0.54990  Biso   1.000  O
  O14      1.0000 0.16560  0.32570  0.65100  Biso   1.000  O
  O15      1.0000 0.46840  0.94640  0.79720  Biso   1.000  O
  O16      1.0000 0.38500  0.11150  0.88870  Biso   1.000  O
  O17      1.0000 0.72260  0.37740  0.24910  Biso   1.000  O
  O18      1.0000 0.00950  0.43750  0.26580  Biso   1.000  O
  O19      1.0000 0.80740  0.98780  0.78180  Biso   1.000  O
  O20      1.0000 0.32470  0.47300  0.50060  Biso   1.000  O
  H8       1.0000 0.25900  0.42580  0.42420  Biso   1.000  H
  N2       1.0000 0.49990  0.05390  0.86520  Biso   1.000  N
  C16      1.0000 0.11400  0.86940  0.59680  Biso   1.000  C
  C17      1.0000 0.19770  0.98530  0.58170  Biso   1.000  C
  H9       1.0000 0.28630  0.98400  0.53810  Biso   1.000  H
  C18      1.0000 0.14910  0.10210  0.63130  Biso   1.000  C
  C19      1.0000 0.01890  0.10520  0.69920  Biso   1.000  C
  H10      1.0000 0.98340  0.18280  0.73130  Biso   1.000  H
  C20      1.0000 0.94430  0.99120  0.71790  Biso   1.000  C
  C21      1.0000 0.98700  0.87270  0.66630  Biso   1.000  C
  H11      1.0000 0.93160  0.79650  0.67800  Biso   1.000  H
  C22      1.0000 0.16310  0.74290  0.53990  Biso   1.000  C
  C23      1.0000 0.22800  0.22700  0.60890  Biso   1.000  C
  C24      1.0000 0.82860  0.07910  0.88550  Biso   1.000  C
  C25      1.0000 0.67810  0.11250  0.92810  Biso   1.000  C
  C26      1.0000 0.69300  0.20550  0.03260  Biso   1.000  C
  H12      1.0000 0.59210  0.22720  0.05880  Biso   1.000  H
  C27      1.0000 0.85490  0.26600  0.09820  Biso   1.000  C
  C28      1.0000 0.00390  0.23120  0.05760  Biso   1.000  C
  H13      1.0000 0.11410  0.27030  0.10170  Biso   1.000  H
  C29      1.0000 0.99150  0.13910  0.95250  Biso   1.000  C
  H14      1.0000 0.09290  0.11760  0.92700  Biso   1.000  H
  C30      1.0000 0.86480  0.36570  0.21060  Biso   1.000  C
