data_image0
_cell_length_a       13.119
_cell_length_b       22.809
_cell_length_c       11.84
_cell_angle_alpha    90
_cell_angle_beta     91.946
_cell_angle_gamma    90

_symmetry_space_group_name_H-M    "P 1"
_symmetry_int_tables_number       1

loop_
  _symmetry_equiv_pos_as_xyz
  'x, y, z'

loop_
  _atom_site_label
  _atom_site_occupancy
  _atom_site_fract_x
  _atom_site_fract_y
  _atom_site_fract_z
  _atom_site_thermal_displace_type
  _atom_site_B_iso_or_equiv
  _atom_site_type_symbol
  Ag1      1.0000 0.24028  0.21330  0.27507  Biso   1.000  Ag
  Ag2      1.0000 0.88329  0.20169  0.60974  Biso   1.000  Ag
  N1       1.0000 0.14950  0.18040  0.40880  Biso   1.000  N
  N2       1.0000 0.79040  0.26800  0.92980  Biso   1.000  N
  N3       1.0000 0.80390  0.23790  0.75240  Biso   1.000  N
  N4       1.0000 0.73750  0.30410  0.86060  Biso   1.000  N
  N5       1.0000 0.14160  0.12410  0.44790  Biso   1.000  N
  N6       1.0000 0.00940  0.16980  0.50680  Biso   1.000  N
  C1       1.0000 0.55350  0.04960  0.76120  Biso   1.000  C
  H1       1.0000 0.62120  0.05670  0.78280  Biso   1.000  H
  N7       1.0000 0.51290  0.05630  0.65980  Biso   1.000  N
  N8       1.0000 0.41660  0.04200  0.66300  Biso   1.000  N
  C2       1.0000 0.39770  0.02660  0.76640  Biso   1.000  C
  H2       1.0000 0.33500  0.01440  0.79230  Biso   1.000  H
  N9       1.0000 0.48230  0.03130  0.82720  Biso   1.000  N
  C3       1.0000 0.35510  0.03140  0.55800  Biso   1.000  C
  H3       1.0000 0.39860  0.02160  0.49620  Biso   1.000  H
  H4       1.0000 0.30730  0.99960  0.56830  Biso   1.000  H
  C4       1.0000 0.30090  0.08660  0.53540  Biso   1.000  C
  H5       1.0000 0.26750  0.09910  0.60310  Biso   1.000  H
  H6       1.0000 0.34970  0.11670  0.51620  Biso   1.000  H
  C5       1.0000 0.06650  0.20480  0.44490  Biso   1.000  C
  H7       1.0000 0.04880  0.24350  0.42860  Biso   1.000  H
  C6       1.0000 0.67970  0.35230  0.90390  Biso   1.000  C
  H8       1.0000 0.71550  0.36810  0.97010  Biso   1.000  H
  H9       1.0000 0.67510  0.38300  0.84730  Biso   1.000  H
  C7       1.0000 0.57170  0.33420  0.93580  Biso   1.000  C
  H10      1.0000 0.53760  0.31560  0.87130  Biso   1.000  H
  H11      1.0000 0.53320  0.36890  0.95450  Biso   1.000  H
  C8       1.0000 0.22080  0.08040  0.43800  Biso   1.000  C
  H12      1.0000 0.19080  0.04160  0.43980  Biso   1.000  H
  H13      1.0000 0.25340  0.08510  0.36630  Biso   1.000  H
  C9       1.0000 0.74570  0.28570  0.75510  Biso   1.000  C
  H14      1.0000 0.71520  0.30370  0.69200  Biso   1.000  H
  C10      1.0000 0.83050  0.23040  0.86030  Biso   1.000  C
  H15      1.0000 0.87430  0.20070  0.88500  Biso   1.000  H
  C11      1.0000 0.05750  0.11900  0.50710  Biso   1.000  C
  H16      1.0000 0.03620  0.08500  0.54290  Biso   1.000  H
  C12      1.0000 0.57260  0.29320  0.03310  Biso   1.000  C
  H17      1.0000 0.60050  0.31370  0.09900  Biso   1.000  H
  H18      1.0000 0.61860  0.26110  0.01730  Biso   1.000  H
  N10      1.0000 0.47590  0.26890  0.06110  Biso   1.000  N
  N11      1.0000 0.41930  0.24050  0.98070  Biso   1.000  N
  C13      1.0000 0.43010  0.26580  0.15950  Biso   1.000  C
  H19      1.0000 0.45580  0.28180  0.22690  Biso   1.000  H
  C14      1.0000 0.34120  0.22290  0.03920  Biso   1.000  C
  H20      1.0000 0.28730  0.20180  0.00620  Biso   1.000  H
  N12      1.0000 0.34410  0.23720  0.14860  Biso   1.000  N
  Ag3      1.0000 0.75972  0.78670  0.72493  Biso   1.000  Ag
  Ag4      1.0000 0.11671  0.79831  0.39026  Biso   1.000  Ag
  N13      1.0000 0.85050  0.81960  0.59120  Biso   1.000  N
  N14      1.0000 0.20960  0.73200  0.07020  Biso   1.000  N
  N15      1.0000 0.19610  0.76210  0.24760  Biso   1.000  N
  N16      1.0000 0.26250  0.69590  0.13940  Biso   1.000  N
  N17      1.0000 0.85840  0.87590  0.55210  Biso   1.000  N
  N18      1.0000 0.99060  0.83020  0.49320  Biso   1.000  N
  C15      1.0000 0.44650  0.95040  0.23880  Biso   1.000  C
  H21      1.0000 0.37880  0.94330  0.21720  Biso   1.000  H
  N19      1.0000 0.48710  0.94370  0.34020  Biso   1.000  N
  N20      1.0000 0.58340  0.95800  0.33700  Biso   1.000  N
  C16      1.0000 0.60230  0.97340  0.23360  Biso   1.000  C
  H22      1.0000 0.66500  0.98560  0.20770  Biso   1.000  H
  N21      1.0000 0.51770  0.96870  0.17280  Biso   1.000  N
  C17      1.0000 0.64490  0.96860  0.44200  Biso   1.000  C
  H23      1.0000 0.60140  0.97840  0.50380  Biso   1.000  H
  H24      1.0000 0.69270  0.00040  0.43170  Biso   1.000  H
  C18      1.0000 0.69910  0.91340  0.46460  Biso   1.000  C
  H25      1.0000 0.73250  0.90090  0.39690  Biso   1.000  H
  H26      1.0000 0.65030  0.88330  0.48380  Biso   1.000  H
  C19      1.0000 0.93350  0.79520  0.55510  Biso   1.000  C
  H27      1.0000 0.95120  0.75650  0.57140  Biso   1.000  H
  C20      1.0000 0.32030  0.64770  0.09610  Biso   1.000  C
  H28      1.0000 0.28450  0.63190  0.02990  Biso   1.000  H
  H29      1.0000 0.32490  0.61700  0.15270  Biso   1.000  H
  C21      1.0000 0.42830  0.66580  0.06420  Biso   1.000  C
  H30      1.0000 0.46240  0.68440  0.12870  Biso   1.000  H
  H31      1.0000 0.46680  0.63110  0.04550  Biso   1.000  H
  C22      1.0000 0.77920  0.91960  0.56200  Biso   1.000  C
  H32      1.0000 0.80920  0.95840  0.56020  Biso   1.000  H
  H33      1.0000 0.74660  0.91490  0.63370  Biso   1.000  H
  C23      1.0000 0.25430  0.71430  0.24490  Biso   1.000  C
  H34      1.0000 0.28480  0.69630  0.30800  Biso   1.000  H
  C24      1.0000 0.16950  0.76960  0.13970  Biso   1.000  C
  H35      1.0000 0.12570  0.79930  0.11500  Biso   1.000  H
  C25      1.0000 0.94250  0.88100  0.49290  Biso   1.000  C
  H36      1.0000 0.96380  0.91500  0.45710  Biso   1.000  H
  C26      1.0000 0.42740  0.70680  0.96690  Biso   1.000  C
  H37      1.0000 0.39950  0.68630  0.90100  Biso   1.000  H
  H38      1.0000 0.38140  0.73890  0.98270  Biso   1.000  H
  N22      1.0000 0.52410  0.73110  0.93890  Biso   1.000  N
  N23      1.0000 0.58070  0.75950  0.01930  Biso   1.000  N
  C27      1.0000 0.56990  0.73420  0.84050  Biso   1.000  C
  H39      1.0000 0.54420  0.71820  0.77310  Biso   1.000  H
  C28      1.0000 0.65880  0.77710  0.96080  Biso   1.000  C
  H40      1.0000 0.71270  0.79820  0.99380  Biso   1.000  H
  N24      1.0000 0.65590  0.76280  0.85140  Biso   1.000  N
  Ag5      1.0000 0.50000  0.00000  0.00000  Biso   1.000  Ag
  Ag6      1.0000 0.75972  0.71330  0.22493  Biso   1.000  Ag
  Ag7      1.0000 0.11671  0.70169  0.89026  Biso   1.000  Ag
  N25      1.0000 0.85050  0.68040  0.09120  Biso   1.000  N
  N26      1.0000 0.20960  0.76800  0.57020  Biso   1.000  N
  N27      1.0000 0.19610  0.73790  0.74760  Biso   1.000  N
  N28      1.0000 0.26250  0.80410  0.63940  Biso   1.000  N
  N29      1.0000 0.85840  0.62410  0.05210  Biso   1.000  N
  N30      1.0000 0.99060  0.66980  0.99320  Biso   1.000  N
  C29      1.0000 0.44650  0.54960  0.73880  Biso   1.000  C
  H41      1.0000 0.37880  0.55670  0.71720  Biso   1.000  H
  N31      1.0000 0.48710  0.55630  0.84020  Biso   1.000  N
  N32      1.0000 0.58340  0.54200  0.83700  Biso   1.000  N
  C30      1.0000 0.60230  0.52660  0.73360  Biso   1.000  C
  H42      1.0000 0.66500  0.51440  0.70770  Biso   1.000  H
  N33      1.0000 0.51770  0.53130  0.67280  Biso   1.000  N
  C31      1.0000 0.64490  0.53140  0.94200  Biso   1.000  C
  H43      1.0000 0.60140  0.52160  0.00380  Biso   1.000  H
  H44      1.0000 0.69270  0.49960  0.93170  Biso   1.000  H
  C32      1.0000 0.69910  0.58660  0.96460  Biso   1.000  C
  H45      1.0000 0.73250  0.59910  0.89690  Biso   1.000  H
  H46      1.0000 0.65030  0.61670  0.98380  Biso   1.000  H
  C33      1.0000 0.93350  0.70480  0.05510  Biso   1.000  C
  H47      1.0000 0.95120  0.74350  0.07140  Biso   1.000  H
  C34      1.0000 0.32030  0.85230  0.59610  Biso   1.000  C
  H48      1.0000 0.28450  0.86810  0.52990  Biso   1.000  H
  H49      1.0000 0.32490  0.88300  0.65270  Biso   1.000  H
  C35      1.0000 0.42830  0.83420  0.56420  Biso   1.000  C
  H50      1.0000 0.46240  0.81560  0.62870  Biso   1.000  H
  H51      1.0000 0.46680  0.86890  0.54550  Biso   1.000  H
  C36      1.0000 0.77920  0.58040  0.06200  Biso   1.000  C
  H52      1.0000 0.80920  0.54160  0.06020  Biso   1.000  H
  H53      1.0000 0.74660  0.58510  0.13370  Biso   1.000  H
  C37      1.0000 0.25430  0.78570  0.74490  Biso   1.000  C
  H54      1.0000 0.28480  0.80370  0.80800  Biso   1.000  H
  C38      1.0000 0.16950  0.73040  0.63970  Biso   1.000  C
  H55      1.0000 0.12570  0.70070  0.61500  Biso   1.000  H
  C39      1.0000 0.94250  0.61900  0.99290  Biso   1.000  C
  H56      1.0000 0.96380  0.58500  0.95710  Biso   1.000  H
  C40      1.0000 0.42740  0.79320  0.46690  Biso   1.000  C
  H57      1.0000 0.39950  0.81370  0.40100  Biso   1.000  H
  H58      1.0000 0.38140  0.76110  0.48270  Biso   1.000  H
  N34      1.0000 0.52410  0.76890  0.43890  Biso   1.000  N
  N35      1.0000 0.58070  0.74050  0.51930  Biso   1.000  N
  C41      1.0000 0.56990  0.76580  0.34050  Biso   1.000  C
  H59      1.0000 0.54420  0.78180  0.27310  Biso   1.000  H
  C42      1.0000 0.65880  0.72290  0.46080  Biso   1.000  C
  H60      1.0000 0.71270  0.70180  0.49380  Biso   1.000  H
  N36      1.0000 0.65590  0.73720  0.35140  Biso   1.000  N
  Ag8      1.0000 0.24028  0.28670  0.77507  Biso   1.000  Ag
  Ag9      1.0000 0.88329  0.29831  0.10974  Biso   1.000  Ag
  N37      1.0000 0.14950  0.31960  0.90880  Biso   1.000  N
  N38      1.0000 0.79040  0.23200  0.42980  Biso   1.000  N
  N39      1.0000 0.80390  0.26210  0.25240  Biso   1.000  N
  N40      1.0000 0.73750  0.19590  0.36060  Biso   1.000  N
  N41      1.0000 0.14160  0.37590  0.94790  Biso   1.000  N
  N42      1.0000 0.00940  0.33020  0.00680  Biso   1.000  N
  C43      1.0000 0.55350  0.45040  0.26120  Biso   1.000  C
  H61      1.0000 0.62120  0.44330  0.28280  Biso   1.000  H
  N43      1.0000 0.51290  0.44370  0.15980  Biso   1.000  N
  N44      1.0000 0.41660  0.45800  0.16300  Biso   1.000  N
  C44      1.0000 0.39770  0.47340  0.26640  Biso   1.000  C
  H62      1.0000 0.33500  0.48560  0.29230  Biso   1.000  H
  N45      1.0000 0.48230  0.46870  0.32720  Biso   1.000  N
  C45      1.0000 0.35510  0.46860  0.05800  Biso   1.000  C
  H63      1.0000 0.39860  0.47840  0.99620  Biso   1.000  H
  H64      1.0000 0.30730  0.50040  0.06830  Biso   1.000  H
  C46      1.0000 0.30090  0.41340  0.03540  Biso   1.000  C
  H65      1.0000 0.26750  0.40090  0.10310  Biso   1.000  H
  H66      1.0000 0.34970  0.38330  0.01620  Biso   1.000  H
  C47      1.0000 0.06650  0.29520  0.94490  Biso   1.000  C
  H67      1.0000 0.04880  0.25650  0.92860  Biso   1.000  H
  C48      1.0000 0.67970  0.14770  0.40390  Biso   1.000  C
  H68      1.0000 0.71550  0.13190  0.47010  Biso   1.000  H
  H69      1.0000 0.67510  0.11700  0.34730  Biso   1.000  H
  C49      1.0000 0.57170  0.16580  0.43580  Biso   1.000  C
  H70      1.0000 0.53760  0.18440  0.37130  Biso   1.000  H
  H71      1.0000 0.53320  0.13110  0.45450  Biso   1.000  H
  C50      1.0000 0.22080  0.41960  0.93800  Biso   1.000  C
  H72      1.0000 0.19080  0.45840  0.93980  Biso   1.000  H
  H73      1.0000 0.25340  0.41490  0.86630  Biso   1.000  H
  C51      1.0000 0.74570  0.21430  0.25510  Biso   1.000  C
  H74      1.0000 0.71520  0.19630  0.19200  Biso   1.000  H
  C52      1.0000 0.83050  0.26960  0.36030  Biso   1.000  C
  H75      1.0000 0.87430  0.29930  0.38500  Biso   1.000  H
  C53      1.0000 0.05750  0.38100  0.00710  Biso   1.000  C
  H76      1.0000 0.03620  0.41500  0.04290  Biso   1.000  H
  C54      1.0000 0.57260  0.20680  0.53310  Biso   1.000  C
  H77      1.0000 0.60050  0.18630  0.59900  Biso   1.000  H
  H78      1.0000 0.61860  0.23890  0.51730  Biso   1.000  H
  N46      1.0000 0.47590  0.23110  0.56110  Biso   1.000  N
  N47      1.0000 0.41930  0.25950  0.48070  Biso   1.000  N
  C55      1.0000 0.43010  0.23420  0.65950  Biso   1.000  C
  H79      1.0000 0.45580  0.21820  0.72690  Biso   1.000  H
  C56      1.0000 0.34120  0.27710  0.53920  Biso   1.000  C
  H80      1.0000 0.28730  0.29820  0.50620  Biso   1.000  H
  N48      1.0000 0.34410  0.26280  0.64860  Biso   1.000  N
  Ag10     1.0000 0.50000  0.50000  0.50000  Biso   1.000  Ag
