data_image0
_cell_length_a       13.056
_cell_length_b       22.964
_cell_length_c       11.808
_cell_angle_alpha    90
_cell_angle_beta     91.941
_cell_angle_gamma    90

_symmetry_space_group_name_H-M    "P 1"
_symmetry_int_tables_number       1

loop_
  _symmetry_equiv_pos_as_xyz
  'x, y, z'

loop_
  _atom_site_label
  _atom_site_occupancy
  _atom_site_fract_x
  _atom_site_fract_y
  _atom_site_fract_z
  _atom_site_thermal_displace_type
  _atom_site_B_iso_or_equiv
  _atom_site_type_symbol
  Ag1      1.0000 0.88322  0.29892  0.60987  Biso   1.000  Ag
  Ag2      1.0000 0.24034  0.28860  0.27307  Biso   1.000  Ag
  N1       1.0000 0.47870  0.47100  0.83080  Biso   1.000  N
  N2       1.0000 0.41630  0.45710  0.66620  Biso   1.000  N
  N3       1.0000 0.51290  0.44280  0.65500  Biso   1.000  N
  N4       1.0000 0.14180  0.37550  0.44780  Biso   1.000  N
  N5       1.0000 0.00730  0.32880  0.50630  Biso   1.000  N
  N6       1.0000 0.14980  0.32080  0.40520  Biso   1.000  N
  C1       1.0000 0.22230  0.42030  0.43670  Biso   1.000  C
  H1       1.0000 0.19180  0.45880  0.43710  Biso   1.000  H
  H2       1.0000 0.25650  0.41520  0.36580  Biso   1.000  H
  C2       1.0000 0.29970  0.41400  0.53660  Biso   1.000  C
  H3       1.0000 0.26370  0.40260  0.60360  Biso   1.000  H
  H4       1.0000 0.34810  0.38340  0.51980  Biso   1.000  H
  C3       1.0000 0.54570  0.44960  0.75600  Biso   1.000  C
  H5       1.0000 0.38720  0.55970  0.22140  Biso   1.000  H
  C4       1.0000 0.35480  0.46700  0.55990  Biso   1.000  C
  H6       1.0000 0.69240  0.50090  0.43080  Biso   1.000  H
  H7       1.0000 0.60070  0.52380  0.50190  Biso   1.000  H
  C5       1.0000 0.05760  0.38010  0.50740  Biso   1.000  C
  H8       1.0000 0.03650  0.41370  0.54420  Biso   1.000  H
  C6       1.0000 0.60080  0.52630  0.23240  Biso   1.000  C
  H9       1.0000 0.66430  0.51390  0.20850  Biso   1.000  H
  C7       1.0000 0.06910  0.29560  0.44280  Biso   1.000  C
  H10      1.0000 0.05430  0.25670  0.42700  Biso   1.000  H
  C8       1.0000 0.82760  0.26810  0.86240  Biso   1.000  C
  H11      1.0000 0.86840  0.29900  0.88800  Biso   1.000  H
  C9       1.0000 0.74680  0.21280  0.75490  Biso   1.000  C
  H12      1.0000 0.71680  0.19500  0.69120  Biso   1.000  H
  H13      1.0000 0.67120  0.11600  0.84020  Biso   1.000  H
  H14      1.0000 0.71440  0.12810  0.96350  Biso   1.000  H
  H15      1.0000 0.53320  0.12910  0.95810  Biso   1.000  H
  H16      1.0000 0.53340  0.18040  0.87040  Biso   1.000  H
  N7       1.0000 0.80530  0.25950  0.75200  Biso   1.000  N
  H17      1.0000 0.60550  0.18690  0.09460  Biso   1.000  H
  H18      1.0000 0.61880  0.23760  0.00770  Biso   1.000  H
  H19      1.0000 0.28050  0.29980  0.00400  Biso   1.000  H
  C10      1.0000 0.43010  0.23210  0.15810  Biso   1.000  C
  H20      1.0000 0.45540  0.21580  0.22550  Biso   1.000  H
  N8       1.0000 0.21080  0.76870  0.06950  Biso   1.000  N
  N9       1.0000 0.26370  0.80530  0.14260  Biso   1.000  N
  C11      1.0000 0.32240  0.85470  0.10080  Biso   1.000  C
  C12      1.0000 0.42950  0.83660  0.06510  Biso   1.000  C
  C13      1.0000 0.42550  0.79440  0.97180  Biso   1.000  C
  N10      1.0000 0.52580  0.77050  0.94170  Biso   1.000  N
  N11      1.0000 0.58510  0.74200  0.01680  Biso   1.000  N
  C14      1.0000 0.66590  0.72180  0.96340  Biso   1.000  C
  N12      1.0000 0.65650  0.73780  0.85530  Biso   1.000  N
  Ag3      1.0000 0.11678  0.70108  0.39013  Biso   1.000  Ag
  Ag4      1.0000 0.75966  0.71140  0.72693  Biso   1.000  Ag
  N13      1.0000 0.52130  0.52900  0.16920  Biso   1.000  N
  N14      1.0000 0.58370  0.54290  0.33380  Biso   1.000  N
  N15      1.0000 0.48710  0.55720  0.34500  Biso   1.000  N
  N16      1.0000 0.85820  0.62450  0.55220  Biso   1.000  N
  N17      1.0000 0.99270  0.67120  0.49370  Biso   1.000  N
  N18      1.0000 0.85020  0.67920  0.59480  Biso   1.000  N
  C15      1.0000 0.77770  0.57970  0.56330  Biso   1.000  C
  H21      1.0000 0.80820  0.54120  0.56290  Biso   1.000  H
  H22      1.0000 0.74350  0.58480  0.63420  Biso   1.000  H
  C16      1.0000 0.70030  0.58600  0.46340  Biso   1.000  C
  H23      1.0000 0.73630  0.59740  0.39640  Biso   1.000  H
  H24      1.0000 0.65190  0.61660  0.48020  Biso   1.000  H
  C17      1.0000 0.45430  0.55040  0.24400  Biso   1.000  C
  H25      1.0000 0.61280  0.44030  0.77860  Biso   1.000  H
  C18      1.0000 0.64520  0.53300  0.44010  Biso   1.000  C
  H26      1.0000 0.30760  0.49910  0.56920  Biso   1.000  H
  H27      1.0000 0.39930  0.47620  0.49810  Biso   1.000  H
  C19      1.0000 0.94240  0.61990  0.49260  Biso   1.000  C
  H28      1.0000 0.96350  0.58630  0.45580  Biso   1.000  H
  C20      1.0000 0.39920  0.47370  0.76760  Biso   1.000  C
  H29      1.0000 0.33570  0.48610  0.79150  Biso   1.000  H
  C21      1.0000 0.93090  0.70440  0.55720  Biso   1.000  C
  H30      1.0000 0.94570  0.74330  0.57300  Biso   1.000  H
  C22      1.0000 0.17240  0.73190  0.13760  Biso   1.000  C
  H31      1.0000 0.13160  0.70100  0.11200  Biso   1.000  H
  C23      1.0000 0.25320  0.78720  0.24510  Biso   1.000  C
  H32      1.0000 0.28320  0.80500  0.30880  Biso   1.000  H
  H33      1.0000 0.32880  0.88400  0.15980  Biso   1.000  H
  H34      1.0000 0.28560  0.87190  0.03650  Biso   1.000  H
  H35      1.0000 0.46680  0.87090  0.04190  Biso   1.000  H
  H36      1.0000 0.46660  0.81960  0.12960  Biso   1.000  H
  N19      1.0000 0.19470  0.74050  0.24800  Biso   1.000  N
  H37      1.0000 0.39450  0.81310  0.90540  Biso   1.000  H
  H38      1.0000 0.38120  0.76240  0.99230  Biso   1.000  H
  H39      1.0000 0.71950  0.70020  0.99600  Biso   1.000  H
  C24      1.0000 0.56990  0.76790  0.84190  Biso   1.000  C
  H40      1.0000 0.54460  0.78420  0.77450  Biso   1.000  H
  N20      1.0000 0.78920  0.23130  0.93050  Biso   1.000  N
  N21      1.0000 0.73630  0.19470  0.85740  Biso   1.000  N
  C25      1.0000 0.67760  0.14530  0.89920  Biso   1.000  C
  C26      1.0000 0.57050  0.16340  0.93490  Biso   1.000  C
  C27      1.0000 0.57450  0.20560  0.02820  Biso   1.000  C
  N22      1.0000 0.47420  0.22950  0.05830  Biso   1.000  N
  N23      1.0000 0.41490  0.25800  0.98320  Biso   1.000  N
  C28      1.0000 0.33410  0.27820  0.03660  Biso   1.000  C
  N24      1.0000 0.34350  0.26220  0.14470  Biso   1.000  N
  Ag5      1.0000 0.50000  0.50000  0.00000  Biso   1.000  Ag
  N25      1.0000 0.78920  0.26870  0.43050  Biso   1.000  N
  N26      1.0000 0.73630  0.30530  0.35740  Biso   1.000  N
  C29      1.0000 0.67760  0.35470  0.39920  Biso   1.000  C
  C30      1.0000 0.57050  0.33660  0.43490  Biso   1.000  C
  C31      1.0000 0.57450  0.29440  0.52820  Biso   1.000  C
  N27      1.0000 0.47420  0.27050  0.55830  Biso   1.000  N
  N28      1.0000 0.41490  0.24200  0.48320  Biso   1.000  N
  C32      1.0000 0.33410  0.22180  0.53660  Biso   1.000  C
  N29      1.0000 0.34350  0.23780  0.64470  Biso   1.000  N
  Ag6      1.0000 0.11678  0.79892  0.89013  Biso   1.000  Ag
  Ag7      1.0000 0.75966  0.78860  0.22693  Biso   1.000  Ag
  N30      1.0000 0.52130  0.97100  0.66920  Biso   1.000  N
  N31      1.0000 0.58370  0.95710  0.83380  Biso   1.000  N
  N32      1.0000 0.48710  0.94280  0.84500  Biso   1.000  N
  N33      1.0000 0.85820  0.87550  0.05220  Biso   1.000  N
  N34      1.0000 0.99270  0.82880  0.99370  Biso   1.000  N
  N35      1.0000 0.85020  0.82080  0.09480  Biso   1.000  N
  C33      1.0000 0.77770  0.92030  0.06330  Biso   1.000  C
  H41      1.0000 0.80820  0.95880  0.06290  Biso   1.000  H
  H42      1.0000 0.74350  0.91520  0.13420  Biso   1.000  H
  C34      1.0000 0.70030  0.91400  0.96340  Biso   1.000  C
  H43      1.0000 0.73630  0.90260  0.89640  Biso   1.000  H
  H44      1.0000 0.65190  0.88340  0.98020  Biso   1.000  H
  C35      1.0000 0.45430  0.94960  0.74400  Biso   1.000  C
  H45      1.0000 0.61280  0.05970  0.27860  Biso   1.000  H
  C36      1.0000 0.64520  0.96700  0.94010  Biso   1.000  C
  H46      1.0000 0.30760  0.00090  0.06920  Biso   1.000  H
  H47      1.0000 0.39930  0.02380  0.99810  Biso   1.000  H
  C37      1.0000 0.94240  0.88010  0.99260  Biso   1.000  C
  H48      1.0000 0.96350  0.91370  0.95580  Biso   1.000  H
  C38      1.0000 0.39920  0.02630  0.26760  Biso   1.000  C
  H49      1.0000 0.33570  0.01390  0.29150  Biso   1.000  H
  C39      1.0000 0.93090  0.79560  0.05720  Biso   1.000  C
  H50      1.0000 0.94570  0.75670  0.07300  Biso   1.000  H
  C40      1.0000 0.17240  0.76810  0.63760  Biso   1.000  C
  H51      1.0000 0.13160  0.79900  0.61200  Biso   1.000  H
  C41      1.0000 0.25320  0.71280  0.74510  Biso   1.000  C
  H52      1.0000 0.28320  0.69500  0.80880  Biso   1.000  H
  H53      1.0000 0.32880  0.61600  0.65980  Biso   1.000  H
  H54      1.0000 0.28560  0.62810  0.53650  Biso   1.000  H
  H55      1.0000 0.46680  0.62910  0.54190  Biso   1.000  H
  H56      1.0000 0.46660  0.68040  0.62960  Biso   1.000  H
  N36      1.0000 0.19470  0.75950  0.74800  Biso   1.000  N
  H57      1.0000 0.39450  0.68690  0.40540  Biso   1.000  H
  H58      1.0000 0.38120  0.73760  0.49230  Biso   1.000  H
  H59      1.0000 0.71950  0.79980  0.49600  Biso   1.000  H
  C42      1.0000 0.56990  0.73210  0.34190  Biso   1.000  C
  H60      1.0000 0.54460  0.71580  0.27450  Biso   1.000  H
  N37      1.0000 0.21080  0.73130  0.56950  Biso   1.000  N
  N38      1.0000 0.26370  0.69470  0.64260  Biso   1.000  N
  C43      1.0000 0.32240  0.64530  0.60080  Biso   1.000  C
  C44      1.0000 0.42950  0.66340  0.56510  Biso   1.000  C
  C45      1.0000 0.42550  0.70560  0.47180  Biso   1.000  C
  N39      1.0000 0.52580  0.72950  0.44170  Biso   1.000  N
  N40      1.0000 0.58510  0.75800  0.51680  Biso   1.000  N
  C46      1.0000 0.66590  0.77820  0.46340  Biso   1.000  C
  N41      1.0000 0.65650  0.76220  0.35530  Biso   1.000  N
  Ag8      1.0000 0.88322  0.20108  0.10987  Biso   1.000  Ag
  Ag9      1.0000 0.24034  0.21140  0.77307  Biso   1.000  Ag
  N42      1.0000 0.47870  0.02900  0.33080  Biso   1.000  N
  N43      1.0000 0.41630  0.04290  0.16620  Biso   1.000  N
  N44      1.0000 0.51290  0.05720  0.15500  Biso   1.000  N
  N45      1.0000 0.14180  0.12450  0.94780  Biso   1.000  N
  N46      1.0000 0.00730  0.17120  0.00630  Biso   1.000  N
  N47      1.0000 0.14980  0.17920  0.90520  Biso   1.000  N
  C47      1.0000 0.22230  0.07970  0.93670  Biso   1.000  C
  H61      1.0000 0.19180  0.04120  0.93710  Biso   1.000  H
  H62      1.0000 0.25650  0.08480  0.86580  Biso   1.000  H
  C48      1.0000 0.29970  0.08600  0.03660  Biso   1.000  C
  H63      1.0000 0.26370  0.09740  0.10360  Biso   1.000  H
  H64      1.0000 0.34810  0.11660  0.01980  Biso   1.000  H
  C49      1.0000 0.54570  0.05040  0.25600  Biso   1.000  C
  H65      1.0000 0.38720  0.94030  0.72140  Biso   1.000  H
  C50      1.0000 0.35480  0.03300  0.05990  Biso   1.000  C
  H66      1.0000 0.69240  0.99910  0.93080  Biso   1.000  H
  H67      1.0000 0.60070  0.97620  0.00190  Biso   1.000  H
  C51      1.0000 0.05760  0.11990  0.00740  Biso   1.000  C
  H68      1.0000 0.03650  0.08630  0.04420  Biso   1.000  H
  C52      1.0000 0.60080  0.97370  0.73240  Biso   1.000  C
  H69      1.0000 0.66430  0.98610  0.70850  Biso   1.000  H
  C53      1.0000 0.06910  0.20440  0.94280  Biso   1.000  C
  H70      1.0000 0.05430  0.24330  0.92700  Biso   1.000  H
  C54      1.0000 0.82760  0.23190  0.36240  Biso   1.000  C
  H71      1.0000 0.86840  0.20100  0.38800  Biso   1.000  H
  C55      1.0000 0.74680  0.28720  0.25490  Biso   1.000  C
  H72      1.0000 0.71680  0.30500  0.19120  Biso   1.000  H
  H73      1.0000 0.67120  0.38400  0.34020  Biso   1.000  H
  H74      1.0000 0.71440  0.37190  0.46350  Biso   1.000  H
  H75      1.0000 0.53320  0.37090  0.45810  Biso   1.000  H
  H76      1.0000 0.53340  0.31960  0.37040  Biso   1.000  H
  N48      1.0000 0.80530  0.24050  0.25200  Biso   1.000  N
  H77      1.0000 0.60550  0.31310  0.59460  Biso   1.000  H
  H78      1.0000 0.61880  0.26240  0.50770  Biso   1.000  H
  H79      1.0000 0.28050  0.20020  0.50400  Biso   1.000  H
  C56      1.0000 0.43010  0.26790  0.65810  Biso   1.000  C
  H80      1.0000 0.45540  0.28420  0.72550  Biso   1.000  H
  Ag10     1.0000 0.50000  0.00000  0.50000  Biso   1.000  Ag
