data_VAZKUE_clean
_audit_creation_date              2014-07-02
_audit_creation_method            'Materials Studio'
_symmetry_space_group_name_H-M    'P1'
_symmetry_Int_Tables_number       1
_symmetry_cell_setting            triclinic
loop_
_symmetry_equiv_pos_as_xyz
  x,y,z
_cell_length_a                    7.4786
_cell_length_b                    9.8320
_cell_length_c                    14.9333
_cell_angle_alpha                 90.0000
_cell_angle_beta                  100.0780
_cell_angle_gamma                 90.0000
loop_
_atom_site_label
_atom_site_type_symbol
_atom_site_fract_x
_atom_site_fract_y
_atom_site_fract_z
_atom_site_U_iso_or_equiv
_atom_site_adp_type
_atom_site_occupancy
Pr1    Pr    0.63139   0.44453   0.35634   0.01267  Uiso   1.00
Pr2    Pr    0.86861   0.94453   0.14366   0.01267  Uiso   1.00
Pr3    Pr    0.36861   0.55547   0.64366   0.01267  Uiso   1.00
Pr4    Pr    0.13139   0.05547   0.85634   0.01267  Uiso   1.00
H1     H     0.72140   0.95320   0.62260   0.01267  Uiso   1.00
H2     H     0.82160   0.16300   0.54530   0.01267  Uiso   1.00
H3     H     0.77860   0.45320   0.87740   0.01267  Uiso   1.00
H4     H     0.67840   0.66300   0.95470   0.01267  Uiso   1.00
H5     H     0.27860   0.04680   0.37740   0.01267  Uiso   1.00
H6     H     0.17840   0.83700   0.45470   0.01267  Uiso   1.00
H7     H     0.22140   0.54680   0.12260   0.01267  Uiso   1.00
H8     H     0.32160   0.33700   0.04530   0.01267  Uiso   1.00
C1     C     0.60620   0.72980   0.49540   0.01267  Uiso   1.00
C2     C     0.68590   0.86780   0.49580   0.01267  Uiso   1.00
C3     C     0.72810   0.96270   0.56130   0.01267  Uiso   1.00
C4     C     0.78510   0.08020   0.51800   0.01267  Uiso   1.00
C5     C     0.77540   0.04700   0.42890   0.01267  Uiso   1.00
C6     C     0.81600   0.12340   0.34970   0.01267  Uiso   1.00
C7     C     0.95830   0.46520   0.53840   0.01267  Uiso   1.00
C8     C     0.89380   0.22980   0.00460   0.01267  Uiso   1.00
C9     C     0.81410   0.36780   0.00420   0.01267  Uiso   1.00
C10    C     0.77190   0.46270   0.93870   0.01267  Uiso   1.00
C11    C     0.71490   0.58020   0.98200   0.01267  Uiso   1.00
C12    C     0.72460   0.54700   0.07110   0.01267  Uiso   1.00
C13    C     0.68400   0.62340   0.15030   0.01267  Uiso   1.00
C14    C     0.54170   0.96520   0.96160   0.01267  Uiso   1.00
C15    C     0.39380   0.27020   0.50460   0.01267  Uiso   1.00
C16    C     0.31410   0.13220   0.50420   0.01267  Uiso   1.00
C17    C     0.27190   0.03730   0.43870   0.01267  Uiso   1.00
C18    C     0.21490   0.91980   0.48200   0.01267  Uiso   1.00
C19    C     0.22460   0.95300   0.57110   0.01267  Uiso   1.00
C20    C     0.18400   0.87660   0.65030   0.01267  Uiso   1.00
C21    C     0.04170   0.53480   0.46160   0.01267  Uiso   1.00
C22    C     0.10620   0.77020   0.99540   0.01267  Uiso   1.00
C23    C     0.18590   0.63220   0.99580   0.01267  Uiso   1.00
C24    C     0.22810   0.53730   0.06130   0.01267  Uiso   1.00
C25    C     0.28510   0.41980   0.01800   0.01267  Uiso   1.00
C26    C     0.27540   0.45300   0.92890   0.01267  Uiso   1.00
C27    C     0.31600   0.37660   0.84970   0.01267  Uiso   1.00
C28    C     0.45830   0.03480   0.03840   0.01267  Uiso   1.00
O1     O     0.79550   0.42830   0.51870   0.01267  Uiso   1.00
O2     O     0.58090   0.66500   0.42160   0.01267  Uiso   1.00
O3     O     0.56580   0.69060   0.56910   0.01267  Uiso   1.00
O4     O     0.71650   0.91600   0.41410   0.01267  Uiso   1.00
O5     O     0.83880   0.25100   0.35900   0.01267  Uiso   1.00
O6     O     0.82670   0.05900   0.27890   0.01267  Uiso   1.00
O7     O     0.06000   0.45100   0.61410   0.01267  Uiso   1.00
O8     O     0.70450   0.92830   0.98130   0.01267  Uiso   1.00
O9     O     0.91910   0.16500   0.07840   0.01267  Uiso   1.00
O10    O     0.93420   0.19060   0.93090   0.01267  Uiso   1.00
O11    O     0.78350   0.41600   0.08590   0.01267  Uiso   1.00
O12    O     0.66120   0.75100   0.14100   0.01267  Uiso   1.00
O13    O     0.67330   0.55900   0.22110   0.01267  Uiso   1.00
O14    O     0.44000   0.95100   0.88590   0.01267  Uiso   1.00
O15    O     0.20450   0.57170   0.48130   0.01267  Uiso   1.00
O16    O     0.41910   0.33500   0.57840   0.01267  Uiso   1.00
O17    O     0.43420   0.30940   0.43090   0.01267  Uiso   1.00
O18    O     0.28350   0.08400   0.58590   0.01267  Uiso   1.00
O19    O     0.16120   0.74900   0.64100   0.01267  Uiso   1.00
O20    O     0.17330   0.94100   0.72110   0.01267  Uiso   1.00
O21    O     0.94000   0.54900   0.38590   0.01267  Uiso   1.00
O22    O     0.29550   0.07170   0.01870   0.01267  Uiso   1.00
O23    O     0.08090   0.83500   0.92160   0.01267  Uiso   1.00
O24    O     0.06580   0.80940   0.06910   0.01267  Uiso   1.00
O25    O     0.21650   0.58400   0.91410   0.01267  Uiso   1.00
O26    O     0.33880   0.24900   0.85900   0.01267  Uiso   1.00
O27    O     0.32670   0.44100   0.77890   0.01267  Uiso   1.00
O28    O     0.56000   0.04900   0.11410   0.01267  Uiso   1.00
