data_VAZLEP02_clean
_audit_creation_date              2015-10-16
_audit_creation_method            'Materials Studio'
_symmetry_space_group_name_H-M    'P1'
_symmetry_Int_Tables_number       1
_symmetry_cell_setting            triclinic
loop_
_symmetry_equiv_pos_as_xyz
  x,y,z
_cell_length_a                    9.9063
_cell_length_b                    9.9063
_cell_length_c                    13.3661
_cell_angle_alpha                 86.0709
_cell_angle_beta                  69.3023
_cell_angle_gamma                 115.5100
loop_
_atom_site_label
_atom_site_type_symbol
_atom_site_fract_x
_atom_site_fract_y
_atom_site_fract_z
_atom_site_U_iso_or_equiv
_atom_site_adp_type
_atom_site_occupancy
Eu1    Eu    0.23434   0.45990   0.49836   0.01267  Uiso   1.00
Eu2    Eu    0.45826   0.73269   0.00164   0.01267  Uiso   1.00
Eu3    Eu    0.54174   0.26730   0.99836   0.01267  Uiso   1.00
Eu4    Eu    0.76567   0.54010   0.50164   0.01267  Uiso   1.00
H1     H     0.49010   0.05320   0.64710   0.01267  Uiso   1.00
H2     H     0.20030   0.13720   0.85290   0.01267  Uiso   1.00
H3     H     0.68150   0.23920   0.31810   0.01267  Uiso   1.00
H4     H     0.05730   0.99960   0.18190   0.01267  Uiso   1.00
H5     H     0.50990   0.94680   0.35290   0.01267  Uiso   1.00
H6     H     0.94270   0.00040   0.81810   0.01267  Uiso   1.00
H7     H     0.31850   0.76080   0.68190   0.01267  Uiso   1.00
H8     H     0.79970   0.86280   0.14710   0.01267  Uiso   1.00
C1     C     0.01198   0.04727   0.14953   0.01267  Uiso   1.00
C2     C     0.94409   0.32380   0.39727   0.01267  Uiso   1.00
C3     C     0.56100   0.40512   0.76656   0.01267  Uiso   1.00
C4     C     0.81466   0.18414   0.38722   0.01267  Uiso   1.00
C5     C     0.77893   0.65864   0.89727   0.01267  Uiso   1.00
C6     C     0.92864   0.79812   0.88722   0.01267  Uiso   1.00
C7     C     0.43900   0.59488   0.23344   0.01267  Uiso   1.00
C8     C     0.39843   0.00053   0.63004   0.01267  Uiso   1.00
C9     C     0.66682   0.93383   0.41783   0.01267  Uiso   1.00
C10    C     0.73560   0.08242   0.03656   0.01267  Uiso   1.00
C11    C     0.14834   0.91535   0.91783   0.01267  Uiso   1.00
C12    C     0.69680   0.16151   0.35047   0.01267  Uiso   1.00
C13    C     0.85166   0.08465   0.08217   0.01267  Uiso   1.00
C14    C     0.33318   0.06617   0.58217   0.01267  Uiso   1.00
C15    C     0.61898   0.77216   0.46344   0.01267  Uiso   1.00
C16    C     0.86943   0.97153   0.13004   0.01267  Uiso   1.00
C17    C     0.26440   0.91758   0.96344   0.01267  Uiso   1.00
C18    C     0.98802   0.95273   0.85047   0.01267  Uiso   1.00
C19    C     0.30320   0.83849   0.64953   0.01267  Uiso   1.00
C20    C     0.67168   0.32756   0.73344   0.01267  Uiso   1.00
C21    C     0.60157   0.99947   0.36996   0.01267  Uiso   1.00
C22    C     0.32832   0.67244   0.26656   0.01267  Uiso   1.00
C23    C     0.18534   0.81586   0.61278   0.01267  Uiso   1.00
C24    C     0.22107   0.34136   0.10273   0.01267  Uiso   1.00
C25    C     0.13057   0.02847   0.86996   0.01267  Uiso   1.00
C26    C     0.05591   0.67620   0.60273   0.01267  Uiso   1.00
C27    C     0.07136   0.20188   0.11278   0.01267  Uiso   1.00
C28    C     0.38102   0.22784   0.53656   0.01267  Uiso   1.00
O1     O     0.75001   0.21164   0.00071   0.01267  Uiso   1.00
O2     O     0.02665   0.77256   0.92789   0.01267  Uiso   1.00
O3     O     0.57003   0.49386   0.68981   0.01267  Uiso   1.00
O4     O     0.68367   0.25984   0.81019   0.01267  Uiso   1.00
O5     O     0.49063   0.66778   0.46375   0.01267  Uiso   1.00
O6     O     0.24999   0.78836   0.99929   0.01267  Uiso   1.00
O7     O     0.93814   0.68388   0.59240   0.01267  Uiso   1.00
O8     O     0.77628   0.53054   0.90760   0.01267  Uiso   1.00
O9     O     0.06186   0.31612   0.40760   0.01267  Uiso   1.00
O10    O     0.22372   0.46946   0.09240   0.01267  Uiso   1.00
O11    O     0.07550   0.55882   0.60466   0.01267  Uiso   1.00
O12    O     0.50937   0.33222   0.53625   0.01267  Uiso   1.00
O13    O     0.42997   0.50614   0.31019   0.01267  Uiso   1.00
O14    O     0.26191   0.66440   0.36711   0.01267  Uiso   1.00
O15    O     0.53151   0.62902   0.13289   0.01267  Uiso   1.00
O16    O     0.33652   0.31984   0.10466   0.01267  Uiso   1.00
O17    O     0.97335   0.22744   0.07211   0.01267  Uiso   1.00
O18    O     0.46849   0.37098   0.86711   0.01267  Uiso   1.00
O19    O     0.63153   0.95438   0.03625   0.01267  Uiso   1.00
O20    O     0.71235   0.75072   0.49929   0.01267  Uiso   1.00
O21    O     0.36847   0.04562   0.96375   0.01267  Uiso   1.00
O22    O     0.73809   0.33560   0.63289   0.01267  Uiso   1.00
O23    O     0.20045   0.95454   0.57211   0.01267  Uiso   1.00
O24    O     0.31633   0.74016   0.18981   0.01267  Uiso   1.00
O25    O     0.28765   0.24928   0.50071   0.01267  Uiso   1.00
O26    O     0.92450   0.44118   0.39534   0.01267  Uiso   1.00
O27    O     0.66348   0.68016   0.89534   0.01267  Uiso   1.00
O28    O     0.79955   0.04546   0.42789   0.01267  Uiso   1.00
