data_VAZLOZ_clean
_audit_creation_date              2014-07-02
_audit_creation_method            'Materials Studio'
_symmetry_space_group_name_H-M    'P1'
_symmetry_Int_Tables_number       1
_symmetry_cell_setting            triclinic
loop_
_symmetry_equiv_pos_as_xyz
  x,y,z
_cell_length_a                    7.3108
_cell_length_b                    9.7220
_cell_length_c                    14.6825
_cell_angle_alpha                 90.0000
_cell_angle_beta                  99.3817
_cell_angle_gamma                 90.0000
loop_
_atom_site_label
_atom_site_type_symbol
_atom_site_fract_x
_atom_site_fract_y
_atom_site_fract_z
_atom_site_U_iso_or_equiv
_atom_site_adp_type
_atom_site_occupancy
Tb1    Tb    0.63728   0.44511   0.35767   0.01267  Uiso   1.00
Tb2    Tb    0.86272   0.94511   0.14233   0.01267  Uiso   1.00
Tb3    Tb    0.36272   0.55489   0.64233   0.01267  Uiso   1.00
Tb4    Tb    0.13728   0.05489   0.85767   0.01267  Uiso   1.00
H1     H     0.72290   0.95330   0.62490   0.01267  Uiso   1.00
H2     H     0.82300   0.16480   0.54540   0.01267  Uiso   1.00
H3     H     0.77710   0.45330   0.87510   0.01267  Uiso   1.00
H4     H     0.67700   0.66480   0.95460   0.01267  Uiso   1.00
H5     H     0.27710   0.04670   0.37510   0.01267  Uiso   1.00
H6     H     0.17700   0.83520   0.45460   0.01267  Uiso   1.00
H7     H     0.22290   0.54670   0.12490   0.01267  Uiso   1.00
H8     H     0.32300   0.33520   0.04540   0.01267  Uiso   1.00
C1     C     0.60670   0.72590   0.49680   0.01267  Uiso   1.00
C2     C     0.68720   0.86440   0.49630   0.01267  Uiso   1.00
C3     C     0.72960   0.96240   0.56250   0.01267  Uiso   1.00
C4     C     0.78580   0.08100   0.51800   0.01267  Uiso   1.00
C5     C     0.77430   0.04780   0.42770   0.01267  Uiso   1.00
C6     C     0.81260   0.12470   0.34690   0.01267  Uiso   1.00
C7     C     0.95670   0.46490   0.53840   0.01267  Uiso   1.00
C8     C     0.89330   0.22590   0.00320   0.01267  Uiso   1.00
C9     C     0.81280   0.36440   0.00370   0.01267  Uiso   1.00
C10    C     0.77040   0.46240   0.93750   0.01267  Uiso   1.00
C11    C     0.71420   0.58100   0.98200   0.01267  Uiso   1.00
C12    C     0.72570   0.54780   0.07230   0.01267  Uiso   1.00
C13    C     0.68740   0.62470   0.15310   0.01267  Uiso   1.00
C14    C     0.54330   0.96490   0.96160   0.01267  Uiso   1.00
C15    C     0.39330   0.27410   0.50320   0.01267  Uiso   1.00
C16    C     0.31280   0.13560   0.50370   0.01267  Uiso   1.00
C17    C     0.27040   0.03760   0.43750   0.01267  Uiso   1.00
C18    C     0.21420   0.91900   0.48200   0.01267  Uiso   1.00
C19    C     0.22570   0.95220   0.57230   0.01267  Uiso   1.00
C20    C     0.18740   0.87530   0.65310   0.01267  Uiso   1.00
C21    C     0.04330   0.53510   0.46160   0.01267  Uiso   1.00
C22    C     0.10670   0.77410   0.99680   0.01267  Uiso   1.00
C23    C     0.18720   0.63560   0.99630   0.01267  Uiso   1.00
C24    C     0.22960   0.53760   0.06250   0.01267  Uiso   1.00
C25    C     0.28580   0.41900   0.01800   0.01267  Uiso   1.00
C26    C     0.27430   0.45220   0.92770   0.01267  Uiso   1.00
C27    C     0.31260   0.37530   0.84690   0.01267  Uiso   1.00
C28    C     0.45670   0.03510   0.03840   0.01267  Uiso   1.00
O1     O     0.79250   0.42450   0.51780   0.01267  Uiso   1.00
O2     O     0.58866   0.65820   0.42326   0.01267  Uiso   1.00
O3     O     0.55943   0.68790   0.57073   0.01267  Uiso   1.00
O4     O     0.71652   0.91380   0.41312   0.01267  Uiso   1.00
O5     O     0.83535   0.25380   0.35645   0.01267  Uiso   1.00
O6     O     0.82020   0.06100   0.27400   0.01267  Uiso   1.00
O7     O     0.05660   0.45400   0.61600   0.01267  Uiso   1.00
O8     O     0.70750   0.92450   0.98220   0.01267  Uiso   1.00
O9     O     0.91134   0.15820   0.07674   0.01267  Uiso   1.00
O10    O     0.94057   0.18790   0.92927   0.01267  Uiso   1.00
O11    O     0.78348   0.41380   0.08688   0.01267  Uiso   1.00
O12    O     0.66465   0.75380   0.14355   0.01267  Uiso   1.00
O13    O     0.67980   0.56100   0.22600   0.01267  Uiso   1.00
O14    O     0.44340   0.95400   0.88400   0.01267  Uiso   1.00
O15    O     0.20750   0.57550   0.48220   0.01267  Uiso   1.00
O16    O     0.41134   0.34180   0.57674   0.01267  Uiso   1.00
O17    O     0.44057   0.31210   0.42927   0.01267  Uiso   1.00
O18    O     0.28348   0.08620   0.58688   0.01267  Uiso   1.00
O19    O     0.16465   0.74620   0.64355   0.01267  Uiso   1.00
O20    O     0.17980   0.93900   0.72600   0.01267  Uiso   1.00
O21    O     0.94340   0.54600   0.38400   0.01267  Uiso   1.00
O22    O     0.29250   0.07550   0.01780   0.01267  Uiso   1.00
O23    O     0.08866   0.84180   0.92326   0.01267  Uiso   1.00
O24    O     0.05943   0.81210   0.07073   0.01267  Uiso   1.00
O25    O     0.21652   0.58620   0.91312   0.01267  Uiso   1.00
O26    O     0.33535   0.24620   0.85645   0.01267  Uiso   1.00
O27    O     0.32020   0.43900   0.77400   0.01267  Uiso   1.00
O28    O     0.55660   0.04600   0.11600   0.01267  Uiso   1.00
