data_VAZLEP_clean
_audit_creation_date              2014-07-02
_audit_creation_method            'Materials Studio'
_symmetry_space_group_name_H-M    'P1'
_symmetry_Int_Tables_number       1
_symmetry_cell_setting            triclinic
loop_
_symmetry_equiv_pos_as_xyz
  x,y,z
_cell_length_a                    7.3519
_cell_length_b                    9.7295
_cell_length_c                    14.7661
_cell_angle_alpha                 90.0000
_cell_angle_beta                  99.6276
_cell_angle_gamma                 90.0000
loop_
_atom_site_label
_atom_site_type_symbol
_atom_site_fract_x
_atom_site_fract_y
_atom_site_fract_z
_atom_site_U_iso_or_equiv
_atom_site_adp_type
_atom_site_occupancy
Eu1    Eu    0.63539   0.44491   0.35726   0.01267  Uiso   1.00
Eu2    Eu    0.86461   0.94491   0.14274   0.01267  Uiso   1.00
Eu3    Eu    0.36461   0.55509   0.64274   0.01267  Uiso   1.00
Eu4    Eu    0.13539   0.05509   0.85726   0.01267  Uiso   1.00
H1     H     0.72440   0.95310   0.62430   0.01267  Uiso   1.00
H2     H     0.82200   0.16460   0.54520   0.01267  Uiso   1.00
H3     H     0.77560   0.45310   0.87570   0.01267  Uiso   1.00
H4     H     0.67800   0.66460   0.95480   0.01267  Uiso   1.00
H5     H     0.27560   0.04690   0.37570   0.01267  Uiso   1.00
H6     H     0.17800   0.83540   0.45480   0.01267  Uiso   1.00
H7     H     0.22440   0.54690   0.12430   0.01267  Uiso   1.00
H8     H     0.32200   0.33540   0.04520   0.01267  Uiso   1.00
C1     C     0.60710   0.72700   0.49640   0.01267  Uiso   1.00
C2     C     0.68700   0.86490   0.49600   0.01267  Uiso   1.00
C3     C     0.73000   0.96240   0.56210   0.01267  Uiso   1.00
C4     C     0.78540   0.08070   0.51790   0.01267  Uiso   1.00
C5     C     0.77440   0.04790   0.42800   0.01267  Uiso   1.00
C6     C     0.81360   0.12430   0.34770   0.01267  Uiso   1.00
C7     C     0.95740   0.46510   0.53810   0.01267  Uiso   1.00
C8     C     0.89290   0.22700   0.00360   0.01267  Uiso   1.00
C9     C     0.81300   0.36490   0.00400   0.01267  Uiso   1.00
C10    C     0.77000   0.46240   0.93790   0.01267  Uiso   1.00
C11    C     0.71460   0.58070   0.98210   0.01267  Uiso   1.00
C12    C     0.72560   0.54790   0.07200   0.01267  Uiso   1.00
C13    C     0.68640   0.62430   0.15230   0.01267  Uiso   1.00
C14    C     0.54260   0.96510   0.96190   0.01267  Uiso   1.00
C15    C     0.39290   0.27300   0.50360   0.01267  Uiso   1.00
C16    C     0.31300   0.13510   0.50400   0.01267  Uiso   1.00
C17    C     0.27000   0.03760   0.43790   0.01267  Uiso   1.00
C18    C     0.21460   0.91930   0.48210   0.01267  Uiso   1.00
C19    C     0.22560   0.95210   0.57200   0.01267  Uiso   1.00
C20    C     0.18640   0.87570   0.65230   0.01267  Uiso   1.00
C21    C     0.04260   0.53490   0.46190   0.01267  Uiso   1.00
C22    C     0.10710   0.77300   0.99640   0.01267  Uiso   1.00
C23    C     0.18700   0.63510   0.99600   0.01267  Uiso   1.00
C24    C     0.23000   0.53760   0.06210   0.01267  Uiso   1.00
C25    C     0.28540   0.41930   0.01790   0.01267  Uiso   1.00
C26    C     0.27440   0.45210   0.92800   0.01267  Uiso   1.00
C27    C     0.31360   0.37570   0.84770   0.01267  Uiso   1.00
C28    C     0.45740   0.03490   0.03810   0.01267  Uiso   1.00
O1     O     0.79290   0.42500   0.51820   0.01267  Uiso   1.00
O2     O     0.58660   0.65980   0.42290   0.01267  Uiso   1.00
O3     O     0.56240   0.68820   0.57080   0.01267  Uiso   1.00
O4     O     0.71680   0.91420   0.41320   0.01267  Uiso   1.00
O5     O     0.83550   0.25270   0.35720   0.01267  Uiso   1.00
O6     O     0.82270   0.06050   0.27560   0.01267  Uiso   1.00
O7     O     0.05820   0.45310   0.61520   0.01267  Uiso   1.00
O8     O     0.70710   0.92500   0.98180   0.01267  Uiso   1.00
O9     O     0.91340   0.15980   0.07710   0.01267  Uiso   1.00
O10    O     0.93760   0.18820   0.92920   0.01267  Uiso   1.00
O11    O     0.78320   0.41420   0.08680   0.01267  Uiso   1.00
O12    O     0.66450   0.75270   0.14280   0.01267  Uiso   1.00
O13    O     0.67730   0.56050   0.22440   0.01267  Uiso   1.00
O14    O     0.44180   0.95310   0.88480   0.01267  Uiso   1.00
O15    O     0.20710   0.57500   0.48180   0.01267  Uiso   1.00
O16    O     0.41340   0.34020   0.57710   0.01267  Uiso   1.00
O17    O     0.43760   0.31180   0.42920   0.01267  Uiso   1.00
O18    O     0.28320   0.08580   0.58680   0.01267  Uiso   1.00
O19    O     0.16450   0.74730   0.64280   0.01267  Uiso   1.00
O20    O     0.17730   0.93950   0.72440   0.01267  Uiso   1.00
O21    O     0.94180   0.54690   0.38480   0.01267  Uiso   1.00
O22    O     0.29290   0.07500   0.01820   0.01267  Uiso   1.00
O23    O     0.08660   0.84020   0.92290   0.01267  Uiso   1.00
O24    O     0.06240   0.81180   0.07080   0.01267  Uiso   1.00
O25    O     0.21680   0.58580   0.91320   0.01267  Uiso   1.00
O26    O     0.33550   0.24730   0.85720   0.01267  Uiso   1.00
O27    O     0.32270   0.43950   0.77560   0.01267  Uiso   1.00
O28    O     0.55820   0.04690   0.11520   0.01267  Uiso   1.00
