data_VAZLAL_clean
_audit_creation_date              2014-07-02
_audit_creation_method            'Materials Studio'
_symmetry_space_group_name_H-M    'P1'
_symmetry_Int_Tables_number       1
_symmetry_cell_setting            triclinic
loop_
_symmetry_equiv_pos_as_xyz
  x,y,z
_cell_length_a                    7.4128
_cell_length_b                    9.7710
_cell_length_c                    14.8383
_cell_angle_alpha                 90.0000
_cell_angle_beta                  99.9788
_cell_angle_gamma                 90.0000
loop_
_atom_site_label
_atom_site_type_symbol
_atom_site_fract_x
_atom_site_fract_y
_atom_site_fract_z
_atom_site_U_iso_or_equiv
_atom_site_adp_type
_atom_site_occupancy
Nd1    Nd    0.63246   0.44470   0.35660   0.01267  Uiso   1.00
Nd2    Nd    0.86754   0.94470   0.14340   0.01267  Uiso   1.00
Nd3    Nd    0.36754   0.55530   0.64340   0.01267  Uiso   1.00
Nd4    Nd    0.13246   0.05530   0.85660   0.01267  Uiso   1.00
H1     H     0.72270   0.95350   0.62310   0.01267  Uiso   1.00
H2     H     0.81800   0.16520   0.54520   0.01267  Uiso   1.00
H3     H     0.77730   0.45350   0.87690   0.01267  Uiso   1.00
H4     H     0.68200   0.66520   0.95480   0.01267  Uiso   1.00
H5     H     0.27730   0.04650   0.37690   0.01267  Uiso   1.00
H6     H     0.18200   0.83480   0.45480   0.01267  Uiso   1.00
H7     H     0.22270   0.54650   0.12310   0.01267  Uiso   1.00
H8     H     0.31800   0.33480   0.04520   0.01267  Uiso   1.00
C1     C     0.60750   0.72880   0.49610   0.01267  Uiso   1.00
C2     C     0.68640   0.86720   0.49620   0.01267  Uiso   1.00
C3     C     0.72850   0.96300   0.56130   0.01267  Uiso   1.00
C4     C     0.78350   0.08130   0.51800   0.01267  Uiso   1.00
C5     C     0.77560   0.04730   0.42880   0.01267  Uiso   1.00
C6     C     0.81580   0.12390   0.34930   0.01267  Uiso   1.00
C7     C     0.95730   0.46590   0.53820   0.01267  Uiso   1.00
C8     C     0.89250   0.22880   0.00390   0.01267  Uiso   1.00
C9     C     0.81360   0.36720   0.00380   0.01267  Uiso   1.00
C10    C     0.77150   0.46300   0.93870   0.01267  Uiso   1.00
C11    C     0.71650   0.58130   0.98200   0.01267  Uiso   1.00
C12    C     0.72440   0.54730   0.07120   0.01267  Uiso   1.00
C13    C     0.68420   0.62390   0.15070   0.01267  Uiso   1.00
C14    C     0.54270   0.96590   0.96180   0.01267  Uiso   1.00
C15    C     0.39250   0.27120   0.50390   0.01267  Uiso   1.00
C16    C     0.31360   0.13280   0.50380   0.01267  Uiso   1.00
C17    C     0.27150   0.03700   0.43870   0.01267  Uiso   1.00
C18    C     0.21650   0.91870   0.48200   0.01267  Uiso   1.00
C19    C     0.22440   0.95270   0.57120   0.01267  Uiso   1.00
C20    C     0.18420   0.87610   0.65070   0.01267  Uiso   1.00
C21    C     0.04270   0.53410   0.46180   0.01267  Uiso   1.00
C22    C     0.10750   0.77120   0.99610   0.01267  Uiso   1.00
C23    C     0.18640   0.63280   0.99620   0.01267  Uiso   1.00
C24    C     0.22850   0.53700   0.06130   0.01267  Uiso   1.00
C25    C     0.28350   0.41870   0.01800   0.01267  Uiso   1.00
C26    C     0.27560   0.45270   0.92880   0.01267  Uiso   1.00
C27    C     0.31580   0.37610   0.84930   0.01267  Uiso   1.00
C28    C     0.45730   0.03410   0.03820   0.01267  Uiso   1.00
O1     O     0.79460   0.42750   0.51850   0.01267  Uiso   1.00
O2     O     0.58270   0.66370   0.42210   0.01267  Uiso   1.00
O3     O     0.56460   0.68970   0.56950   0.01267  Uiso   1.00
O4     O     0.71640   0.91540   0.41380   0.01267  Uiso   1.00
O5     O     0.83780   0.25120   0.35850   0.01267  Uiso   1.00
O6     O     0.82640   0.05940   0.27840   0.01267  Uiso   1.00
O7     O     0.05900   0.45120   0.61410   0.01267  Uiso   1.00
O8     O     0.70540   0.92750   0.98150   0.01267  Uiso   1.00
O9     O     0.91730   0.16370   0.07790   0.01267  Uiso   1.00
O10    O     0.93540   0.18970   0.93050   0.01267  Uiso   1.00
O11    O     0.78360   0.41540   0.08620   0.01267  Uiso   1.00
O12    O     0.66220   0.75120   0.14150   0.01267  Uiso   1.00
O13    O     0.67360   0.55940   0.22160   0.01267  Uiso   1.00
O14    O     0.44100   0.95120   0.88590   0.01267  Uiso   1.00
O15    O     0.20540   0.57250   0.48150   0.01267  Uiso   1.00
O16    O     0.41730   0.33630   0.57790   0.01267  Uiso   1.00
O17    O     0.43540   0.31030   0.43050   0.01267  Uiso   1.00
O18    O     0.28360   0.08460   0.58620   0.01267  Uiso   1.00
O19    O     0.16220   0.74880   0.64150   0.01267  Uiso   1.00
O20    O     0.17360   0.94060   0.72160   0.01267  Uiso   1.00
O21    O     0.94100   0.54880   0.38590   0.01267  Uiso   1.00
O22    O     0.29460   0.07250   0.01850   0.01267  Uiso   1.00
O23    O     0.08270   0.83630   0.92210   0.01267  Uiso   1.00
O24    O     0.06460   0.81030   0.06950   0.01267  Uiso   1.00
O25    O     0.21640   0.58460   0.91380   0.01267  Uiso   1.00
O26    O     0.33780   0.24880   0.85850   0.01267  Uiso   1.00
O27    O     0.32640   0.44060   0.77840   0.01267  Uiso   1.00
O28    O     0.55900   0.04880   0.11410   0.01267  Uiso   1.00
