data_VAZMOA_clean
_audit_creation_date              2014-07-02
_audit_creation_method            'Materials Studio'
_symmetry_space_group_name_H-M    'P1'
_symmetry_Int_Tables_number       1
_symmetry_cell_setting            triclinic
loop_
_symmetry_equiv_pos_as_xyz
  x,y,z
_cell_length_a                    9.8184
_cell_length_b                    9.8184
_cell_length_c                    13.2616
_cell_angle_alpha                 84.7887
_cell_angle_beta                  70.7729
_cell_angle_gamma                 115.6270
loop_
_atom_site_label
_atom_site_type_symbol
_atom_site_fract_x
_atom_site_fract_y
_atom_site_fract_z
_atom_site_U_iso_or_equiv
_atom_site_adp_type
_atom_site_occupancy
Yb1    Yb    0.26497   0.53880   0.00349   0.01267  Uiso   1.00
Yb2    Yb    0.04229   0.26846   0.49651   0.01267  Uiso   1.00
Yb3    Yb    0.73503   0.46120   0.99651   0.01267  Uiso   1.00
Yb4    Yb    0.95771   0.73154   0.50349   0.01267  Uiso   1.00
H1     H     0.99210   0.05240   0.14930   0.01267  Uiso   1.00
H2     H     0.82280   0.75910   0.17930   0.01267  Uiso   1.00
H3     H     0.70170   0.14140   0.35070   0.01267  Uiso   1.00
H4     H     0.43840   0.00210   0.32070   0.01267  Uiso   1.00
H5     H     0.00790   0.94760   0.85070   0.01267  Uiso   1.00
H6     H     0.17720   0.24090   0.82070   0.01267  Uiso   1.00
H7     H     0.29830   0.85860   0.64930   0.01267  Uiso   1.00
H8     H     0.56160   0.99790   0.67930   0.01267  Uiso   1.00
C1     C     0.88410   0.23390   0.03980   0.01267  Uiso   1.00
C2     C     0.68930   0.81600   0.10950   0.01267  Uiso   1.00
C3     C     0.90230   0.00150   0.13120   0.01267  Uiso   1.00
C4     C     0.56240   0.67670   0.09610   0.01267  Uiso   1.00
C5     C     0.80730   0.83700   0.14810   0.01267  Uiso   1.00
C6     C     0.06830   0.41310   0.26500   0.01267  Uiso   1.00
C7     C     0.83590   0.06910   0.08380   0.01267  Uiso   1.00
C8     C     0.77370   0.92390   0.46020   0.01267  Uiso   1.00
C9     C     0.42550   0.79880   0.39050   0.01267  Uiso   1.00
C10    C     0.63270   0.03350   0.36880   0.01267  Uiso   1.00
C11    C     0.27280   0.65850   0.40390   0.01267  Uiso   1.00
C12    C     0.48510   0.95540   0.35190   0.01267  Uiso   1.00
C13    C     0.17810   0.33330   0.23500   0.01267  Uiso   1.00
C14    C     0.65290   0.91970   0.41620   0.01267  Uiso   1.00
C15    C     0.11590   0.76610   0.96020   0.01267  Uiso   1.00
C16    C     0.31070   0.18400   0.89050   0.01267  Uiso   1.00
C17    C     0.09770   0.99850   0.86880   0.01267  Uiso   1.00
C18    C     0.43760   0.32330   0.90390   0.01267  Uiso   1.00
C19    C     0.19270   0.16300   0.85190   0.01267  Uiso   1.00
C20    C     0.93170   0.58690   0.73500   0.01267  Uiso   1.00
C21    C     0.16410   0.93090   0.91620   0.01267  Uiso   1.00
C22    C     0.22630   0.07610   0.53980   0.01267  Uiso   1.00
C23    C     0.57450   0.20120   0.60950   0.01267  Uiso   1.00
C24    C     0.36730   0.96650   0.63120   0.01267  Uiso   1.00
C25    C     0.72720   0.34150   0.59610   0.01267  Uiso   1.00
C26    C     0.51490   0.04460   0.64810   0.01267  Uiso   1.00
C27    C     0.82190   0.66670   0.76500   0.01267  Uiso   1.00
C28    C     0.34710   0.08030   0.58380   0.01267  Uiso   1.00
O1     O     0.01430   0.33820   0.04030   0.01267  Uiso   1.00
O2     O     0.78810   0.25850   0.00600   0.01267  Uiso   1.00
O3     O     0.08040   0.50340   0.18520   0.01267  Uiso   1.00
O4     O     0.58570   0.56060   0.09450   0.01267  Uiso   1.00
O5     O     0.70240   0.95730   0.07110   0.01267  Uiso   1.00
O6     O     0.44170   0.68210   0.08600   0.01267  Uiso   1.00
O7     O     0.97580   0.37810   0.36410   0.01267  Uiso   1.00
O8     O     0.87850   0.05460   0.45970   0.01267  Uiso   1.00
O9     O     0.76450   0.79410   0.49400   0.01267  Uiso   1.00
O10    O     0.18860   0.26560   0.31480   0.01267  Uiso   1.00
O11    O     0.15510   0.68020   0.40550   0.01267  Uiso   1.00
O12    O     0.52840   0.77350   0.42890   0.01267  Uiso   1.00
O13    O     0.26810   0.52770   0.41400   0.01267  Uiso   1.00
O14    O     0.24220   0.33990   0.13590   0.01267  Uiso   1.00
O15    O     0.98570   0.66180   0.95970   0.01267  Uiso   1.00
O16    O     0.21190   0.74150   0.99400   0.01267  Uiso   1.00
O17    O     0.91960   0.49660   0.81480   0.01267  Uiso   1.00
O18    O     0.41430   0.43940   0.90550   0.01267  Uiso   1.00
O19    O     0.29760   0.04270   0.92890   0.01267  Uiso   1.00
O20    O     0.55830   0.31790   0.91400   0.01267  Uiso   1.00
O21    O     0.02420   0.62190   0.63590   0.01267  Uiso   1.00
O22    O     0.12150   0.94540   0.54030   0.01267  Uiso   1.00
O23    O     0.23550   0.20590   0.50600   0.01267  Uiso   1.00
O24    O     0.81140   0.73440   0.68520   0.01267  Uiso   1.00
O25    O     0.84490   0.31980   0.59450   0.01267  Uiso   1.00
O26    O     0.47160   0.22650   0.57110   0.01267  Uiso   1.00
O27    O     0.73190   0.47230   0.58600   0.01267  Uiso   1.00
O28    O     0.75780   0.66010   0.86410   0.01267  Uiso   1.00
