data_VAZMIU_clean
_audit_creation_date              2014-07-02
_audit_creation_method            'Materials Studio'
_symmetry_space_group_name_H-M    'P1'
_symmetry_Int_Tables_number       1
_symmetry_cell_setting            triclinic
loop_
_symmetry_equiv_pos_as_xyz
  x,y,z
_cell_length_a                    9.8546
_cell_length_b                    9.8546
_cell_length_c                    13.3095
_cell_angle_alpha                 85.1613
_cell_angle_beta                  70.3512
_cell_angle_gamma                 115.5910
loop_
_atom_site_label
_atom_site_type_symbol
_atom_site_fract_x
_atom_site_fract_y
_atom_site_fract_z
_atom_site_U_iso_or_equiv
_atom_site_adp_type
_atom_site_occupancy
Ho1    Ho    0.26526   0.53879   0.00287   0.01267  Uiso   1.00
Ho2    Ho    0.04166   0.26813   0.49713   0.01267  Uiso   1.00
Ho3    Ho    0.73474   0.46121   0.99713   0.01267  Uiso   1.00
Ho4    Ho    0.95834   0.73187   0.50287   0.01267  Uiso   1.00
H1     H     0.98970   0.05380   0.14770   0.01267  Uiso   1.00
H2     H     0.82170   0.76130   0.17940   0.01267  Uiso   1.00
H3     H     0.70150   0.13740   0.35230   0.01267  Uiso   1.00
H4     H     0.44070   0.00110   0.32060   0.01267  Uiso   1.00
H5     H     0.01030   0.94620   0.85230   0.01267  Uiso   1.00
H6     H     0.17830   0.23870   0.82060   0.01267  Uiso   1.00
H7     H     0.29850   0.86260   0.64770   0.01267  Uiso   1.00
H8     H     0.55930   0.99890   0.67940   0.01267  Uiso   1.00
C1     C     0.88180   0.23180   0.03900   0.01267  Uiso   1.00
C2     C     0.68840   0.81660   0.11020   0.01267  Uiso   1.00
C3     C     0.90010   0.00220   0.13010   0.01267  Uiso   1.00
C4     C     0.55970   0.67680   0.09850   0.01267  Uiso   1.00
C5     C     0.80590   0.83810   0.14800   0.01267  Uiso   1.00
C6     C     0.06620   0.41040   0.26520   0.01267  Uiso   1.00
C7     C     0.83520   0.06820   0.08300   0.01267  Uiso   1.00
C8     C     0.77080   0.92080   0.46100   0.01267  Uiso   1.00
C9     C     0.42680   0.79860   0.38980   0.01267  Uiso   1.00
C10    C     0.63230   0.03020   0.36990   0.01267  Uiso   1.00
C11    C     0.27530   0.65820   0.40150   0.01267  Uiso   1.00
C12    C     0.48610   0.95390   0.35200   0.01267  Uiso   1.00
C13    C     0.17560   0.33140   0.23480   0.01267  Uiso   1.00
C14    C     0.65120   0.91820   0.41700   0.01267  Uiso   1.00
C15    C     0.11820   0.76820   0.96100   0.01267  Uiso   1.00
C16    C     0.31160   0.18340   0.88980   0.01267  Uiso   1.00
C17    C     0.09990   0.99780   0.86990   0.01267  Uiso   1.00
C18    C     0.44030   0.32320   0.90150   0.01267  Uiso   1.00
C19    C     0.19410   0.16190   0.85200   0.01267  Uiso   1.00
C20    C     0.93380   0.58960   0.73480   0.01267  Uiso   1.00
C21    C     0.16480   0.93180   0.91700   0.01267  Uiso   1.00
C22    C     0.22920   0.07920   0.53900   0.01267  Uiso   1.00
C23    C     0.57320   0.20140   0.61020   0.01267  Uiso   1.00
C24    C     0.36770   0.96980   0.63010   0.01267  Uiso   1.00
C25    C     0.72470   0.34180   0.59850   0.01267  Uiso   1.00
C26    C     0.51390   0.04610   0.64800   0.01267  Uiso   1.00
C27    C     0.82440   0.66860   0.76520   0.01267  Uiso   1.00
C28    C     0.34880   0.08180   0.58300   0.01267  Uiso   1.00
O1     O     0.01160   0.33560   0.03920   0.01267  Uiso   1.00
O2     O     0.78810   0.25570   0.00440   0.01267  Uiso   1.00
O3     O     0.07760   0.50020   0.18680   0.01267  Uiso   1.00
O4     O     0.58270   0.56090   0.09780   0.01267  Uiso   1.00
O5     O     0.70170   0.95670   0.07160   0.01267  Uiso   1.00
O6     O     0.44150   0.68290   0.08680   0.01267  Uiso   1.00
O7     O     0.97360   0.37560   0.36460   0.01267  Uiso   1.00
O8     O     0.87480   0.05080   0.46080   0.01267  Uiso   1.00
O9     O     0.76010   0.79250   0.49560   0.01267  Uiso   1.00
O10    O     0.18700   0.26440   0.31320   0.01267  Uiso   1.00
O11    O     0.15870   0.68050   0.40220   0.01267  Uiso   1.00
O12    O     0.52830   0.77330   0.42840   0.01267  Uiso   1.00
O13    O     0.26970   0.52830   0.41320   0.01267  Uiso   1.00
O14    O     0.24020   0.33820   0.13540   0.01267  Uiso   1.00
O15    O     0.98840   0.66440   0.96080   0.01267  Uiso   1.00
O16    O     0.21190   0.74430   0.99560   0.01267  Uiso   1.00
O17    O     0.92240   0.49980   0.81320   0.01267  Uiso   1.00
O18    O     0.41730   0.43910   0.90220   0.01267  Uiso   1.00
O19    O     0.29830   0.04330   0.92840   0.01267  Uiso   1.00
O20    O     0.55850   0.31710   0.91320   0.01267  Uiso   1.00
O21    O     0.02640   0.62440   0.63540   0.01267  Uiso   1.00
O22    O     0.12520   0.94920   0.53920   0.01267  Uiso   1.00
O23    O     0.23990   0.20750   0.50440   0.01267  Uiso   1.00
O24    O     0.81300   0.73560   0.68680   0.01267  Uiso   1.00
O25    O     0.84130   0.31950   0.59780   0.01267  Uiso   1.00
O26    O     0.47170   0.22670   0.57160   0.01267  Uiso   1.00
O27    O     0.73030   0.47170   0.58680   0.01267  Uiso   1.00
O28    O     0.75980   0.66180   0.86460   0.01267  Uiso   1.00
