data_VEBHUG_clean
_audit_creation_date              2015-05-20
_audit_creation_method            'Materials Studio'
_symmetry_space_group_name_H-M    'P1'
_symmetry_Int_Tables_number       1
_symmetry_cell_setting            triclinic
loop_
_symmetry_equiv_pos_as_xyz
  x,y,z
_cell_length_a                    20.6362
_cell_length_b                    20.6362
_cell_length_c                    20.6362
_cell_angle_alpha                 120.0000
_cell_angle_beta                  120.0000
_cell_angle_gamma                 60.0000
loop_
_atom_site_label
_atom_site_type_symbol
_atom_site_fract_x
_atom_site_fract_y
_atom_site_fract_z
_atom_site_U_iso_or_equiv
_atom_site_adp_type
_atom_site_occupancy
Zn1    Zn    0.21161   0.21160   0.78839   0.01267  Uiso   1.00
Zn2    Zn    0.21161   0.36517   0.78839   0.01267  Uiso   1.00
Zn3    Zn    0.21161   0.21160   0.63482   0.01267  Uiso   1.00
Zn4    Zn    0.36518   0.21160   0.78839   0.01267  Uiso   1.00
H5     H     0.53740   0.34860   0.94300   0.01267  Uiso   1.00
H6     H     0.05700   0.05700   0.65140   0.01267  Uiso   1.00
H7     H     0.34860   0.05700   0.46260   0.01267  Uiso   1.00
H8     H     0.05700   0.53740   0.94300   0.01267  Uiso   1.00
H9     H     0.53740   0.05700   0.94300   0.01267  Uiso   1.00
H10    H     0.05700   0.53740   0.65140   0.01267  Uiso   1.00
S11    S     0.04740   0.04740   0.49600   0.01267  Uiso   1.00
C12    C     0.50400   0.40120   0.95260   0.01267  Uiso   1.00
C13    C     0.04740   0.04740   0.59880   0.01267  Uiso   1.00
S14    S     0.40120   0.50400   0.95260   0.01267  Uiso   1.00
S15    S     0.50400   0.04740   0.59880   0.01267  Uiso   1.00
S16    S     0.04740   0.40120   0.95260   0.01267  Uiso   1.00
C17    C     0.40120   0.04740   0.49600   0.01267  Uiso   1.00
C18    C     0.04740   0.50400   0.95260   0.01267  Uiso   1.00
S19    S     0.40120   0.04740   0.95260   0.01267  Uiso   1.00
S20    S     0.04740   0.40120   0.49600   0.01267  Uiso   1.00
C21    C     0.50400   0.04740   0.95260   0.01267  Uiso   1.00
C22    C     0.04740   0.50400   0.59880   0.01267  Uiso   1.00
C23    C     0.12824   0.12824   0.62824   0.01267  Uiso   1.00
C24    C     0.07711   0.07711   0.57711   0.01267  Uiso   1.00
C25    C     0.37176   0.37176   0.87176   0.01267  Uiso   1.00
C26    C     0.42289   0.42289   0.92289   0.01267  Uiso   1.00
C27    C     0.37176   0.12824   0.62824   0.01267  Uiso   1.00
C28    C     0.42289   0.07711   0.57711   0.01267  Uiso   1.00
C29    C     0.12824   0.37176   0.87176   0.01267  Uiso   1.00
C30    C     0.07711   0.42289   0.92289   0.01267  Uiso   1.00
C31    C     0.37176   0.12824   0.87176   0.01267  Uiso   1.00
C32    C     0.42289   0.07711   0.92289   0.01267  Uiso   1.00
C33    C     0.12824   0.37176   0.62824   0.01267  Uiso   1.00
C34    C     0.07711   0.42289   0.57711   0.01267  Uiso   1.00
C35    C    -0.00000  -0.00000   0.46688   0.01267  Uiso   1.00
C36    C     0.53312   0.46688  -0.00000   0.01267  Uiso   1.00
C37    C     0.53312  -0.00000   0.53312   0.01267  Uiso   1.00
C38    C    -0.00000   0.46688  -0.00000   0.01267  Uiso   1.00
C39    C     0.46688   0.00000  -0.00000   0.01267  Uiso   1.00
C40    C    -0.00000   0.46688   0.46688   0.01267  Uiso   1.00
O41    O     0.25000   0.25000   0.75000   0.01267  Uiso   1.00
O42    O     0.14684   0.14684   0.70284   0.01267  Uiso   1.00
O43    O     0.29716   0.40916   0.85316   0.01267  Uiso   1.00
O44    O     0.14684   0.14684   0.59084   0.01267  Uiso   1.00
O45    O     0.40916   0.29716   0.85316   0.01267  Uiso   1.00
O46    O     0.29716   0.14684   0.59084   0.01267  Uiso   1.00
O47    O     0.14684   0.40916   0.85316   0.01267  Uiso   1.00
O48    O     0.40916   0.14684   0.70284   0.01267  Uiso   1.00
O49    O     0.14684   0.29716   0.85316   0.01267  Uiso   1.00
O50    O     0.40916   0.14684   0.85316   0.01267  Uiso   1.00
O51    O     0.14684   0.40916   0.70284   0.01267  Uiso   1.00
O52    O     0.29716   0.14684   0.85316   0.01267  Uiso   1.00
O53    O     0.14684   0.29716   0.59084   0.01267  Uiso   1.00
Zn54   Zn    0.78839   0.78840   0.21161   0.01267  Uiso   1.00
Zn55   Zn    0.78839   0.63483   0.21161   0.01267  Uiso   1.00
Zn56   Zn    0.78839   0.78840   0.36518   0.01267  Uiso   1.00
Zn57   Zn    0.63482   0.78840   0.21161   0.01267  Uiso   1.00
H58    H     0.46260   0.65140   0.05700   0.01267  Uiso   1.00
H59    H     0.94300   0.94300   0.34860   0.01267  Uiso   1.00
H60    H     0.65140   0.94300   0.53740   0.01267  Uiso   1.00
H61    H     0.94300   0.46260   0.05700   0.01267  Uiso   1.00
H62    H     0.46260   0.94300   0.05700   0.01267  Uiso   1.00
H63    H     0.94300   0.46260   0.34860   0.01267  Uiso   1.00
S64    S     0.95260   0.95260   0.50400   0.01267  Uiso   1.00
C65    C     0.49600   0.59880   0.04740   0.01267  Uiso   1.00
C66    C     0.95260   0.95260   0.40120   0.01267  Uiso   1.00
S67    S     0.59880   0.49600   0.04740   0.01267  Uiso   1.00
S68    S     0.49600   0.95260   0.40120   0.01267  Uiso   1.00
S69    S     0.95260   0.59880   0.04740   0.01267  Uiso   1.00
C70    C     0.59880   0.95260   0.50400   0.01267  Uiso   1.00
C71    C     0.95260   0.49600   0.04740   0.01267  Uiso   1.00
S72    S     0.59880   0.95260   0.04740   0.01267  Uiso   1.00
S73    S     0.95260   0.59880   0.50400   0.01267  Uiso   1.00
C74    C     0.49600   0.95260   0.04740   0.01267  Uiso   1.00
C75    C     0.95260   0.49600   0.40120   0.01267  Uiso   1.00
C76    C     0.87176   0.87176   0.37176   0.01267  Uiso   1.00
C77    C     0.92289   0.92289   0.42289   0.01267  Uiso   1.00
C78    C     0.62824   0.62824   0.12824   0.01267  Uiso   1.00
C79    C     0.57711   0.57711   0.07711   0.01267  Uiso   1.00
C80    C     0.62824   0.87176   0.37176   0.01267  Uiso   1.00
C81    C     0.57711   0.92289   0.42289   0.01267  Uiso   1.00
C82    C     0.87176   0.62824   0.12824   0.01267  Uiso   1.00
C83    C     0.92289   0.57711   0.07711   0.01267  Uiso   1.00
C84    C     0.62824   0.87176   0.12824   0.01267  Uiso   1.00
C85    C     0.57711   0.92289   0.07711   0.01267  Uiso   1.00
C86    C     0.87176   0.62824   0.37176   0.01267  Uiso   1.00
C87    C     0.92289   0.57711   0.42289   0.01267  Uiso   1.00
C88    C    -0.00000  -0.00000   0.53312   0.01267  Uiso   1.00
C89    C     0.46688   0.53312   0.00000   0.01267  Uiso   1.00
C90    C     0.46688   0.00000   0.46688   0.01267  Uiso   1.00
C91    C     0.00000   0.53312  -0.00000   0.01267  Uiso   1.00
C92    C     0.53312   0.00000   0.00000   0.01267  Uiso   1.00
C93    C    -0.00000   0.53312   0.53312   0.01267  Uiso   1.00
O94    O     0.75000   0.75000   0.25000   0.01267  Uiso   1.00
O95    O     0.85316   0.85316   0.29716   0.01267  Uiso   1.00
O96    O     0.70284   0.59084   0.14684   0.01267  Uiso   1.00
O97    O     0.85316   0.85316   0.40916   0.01267  Uiso   1.00
O98    O     0.59084   0.70284   0.14684   0.01267  Uiso   1.00
O99    O     0.70284   0.85316   0.40916   0.01267  Uiso   1.00
O100   O     0.85316   0.59084   0.14684   0.01267  Uiso   1.00
O101   O     0.59084   0.85316   0.29716   0.01267  Uiso   1.00
O102   O     0.85316   0.70284   0.14684   0.01267  Uiso   1.00
O103   O     0.59084   0.85316   0.14684   0.01267  Uiso   1.00
O104   O     0.85316   0.59084   0.29716   0.01267  Uiso   1.00
O105   O     0.70284   0.85316   0.14684   0.01267  Uiso   1.00
O106   O     0.85316   0.70284   0.40916   0.01267  Uiso   1.00
