data_VECWUX_clean
_audit_creation_date              2014-07-02
_audit_creation_method            'Materials Studio'
_symmetry_space_group_name_H-M    'P1'
_symmetry_Int_Tables_number       1
_symmetry_cell_setting            triclinic
loop_
_symmetry_equiv_pos_as_xyz
  x,y,z
_cell_length_a                    11.3373
_cell_length_b                    11.3373
_cell_length_c                    30.7460
_cell_angle_alpha                 90.0000
_cell_angle_beta                  90.0000
_cell_angle_gamma                 118.5430
loop_
_atom_site_label
_atom_site_type_symbol
_atom_site_fract_x
_atom_site_fract_y
_atom_site_fract_z
_atom_site_U_iso_or_equiv
_atom_site_adp_type
_atom_site_occupancy
Ni1    Ni    0.68661   0.23365   0.57295   0.01267  Uiso   1.00
Ni2    Ni    0.73365   0.18661   0.07295   0.01267  Uiso   1.00
H1     H     0.38200   0.12000   0.72670   0.01267  Uiso   1.00
H2     H     0.77800   0.27140   0.70710   0.01267  Uiso   1.00
H3     H     0.70260   0.45380   0.92830   0.01267  Uiso   1.00
H4     H     0.71300   0.10640   0.93280   0.01267  Uiso   1.00
H5     H     0.53570   0.36870   0.61360   0.01267  Uiso   1.00
H6     H     0.53190   0.56550   0.61570   0.01267  Uiso   1.00
H7     H     0.85060   0.71940   0.53670   0.01267  Uiso   1.00
H8     H     0.84530   0.51470   0.53620   0.01267  Uiso   1.00
H9     H     0.86660   0.91020   0.54530   0.01267  Uiso   1.00
H10    H     0.85890   0.10790   0.54510   0.01267  Uiso   1.00
H11    H     0.51300   0.94300   0.60350   0.01267  Uiso   1.00
H12    H     0.50850   0.73970   0.60450   0.01267  Uiso   1.00
H13    H     0.62000   0.88200   0.22670   0.01267  Uiso   1.00
H14    H     0.77140   0.27800   0.20710   0.01267  Uiso   1.00
H15    H     0.95380   0.20260   0.42830   0.01267  Uiso   1.00
H16    H     0.60640   0.21300   0.43280   0.01267  Uiso   1.00
H17    H     0.86870   0.03570   0.11360   0.01267  Uiso   1.00
H18    H     0.06550   0.03190   0.11570   0.01267  Uiso   1.00
H19    H     0.21940   0.35060   0.03670   0.01267  Uiso   1.00
H20    H     0.01470   0.34530   0.03620   0.01267  Uiso   1.00
H21    H     0.41020   0.36660   0.04530   0.01267  Uiso   1.00
H22    H     0.60790   0.35890   0.04510   0.01267  Uiso   1.00
H23    H     0.44300   0.01300   0.10350   0.01267  Uiso   1.00
H24    H     0.23970   0.00850   0.10450   0.01267  Uiso   1.00
C1     C     0.55340   0.17300   0.66122   0.01267  Uiso   1.00
C2     C     0.57610   0.19210   0.70981   0.01267  Uiso   1.00
C3     C     0.46890   0.15490   0.73751   0.01267  Uiso   1.00
C4     C     0.49370   0.17110   0.78262   0.01267  Uiso   1.00
C5     C     0.62260   0.22360   0.80053   0.01267  Uiso   1.00
C6     C     0.72570   0.25870   0.77020   0.01267  Uiso   1.00
C7     C     0.70560   0.24520   0.72597   0.01267  Uiso   1.00
C8     C     0.64680   0.24300   0.84880   0.01267  Uiso   1.00
C9     C     0.66070   0.35410   0.87046   0.01267  Uiso   1.00
C10    C     0.69610   0.37770   0.91474   0.01267  Uiso   1.00
C11    C     0.72110   0.28730   0.93808   0.01267  Uiso   1.00
C12    C     0.70290   0.17150   0.91737   0.01267  Uiso   1.00
C13    C     0.66970   0.15290   0.87380   0.01267  Uiso   1.00
C14    C     0.76720   0.31420   0.98446   0.01267  Uiso   1.00
C15    C     0.59920   0.44000   0.59730   0.01267  Uiso   1.00
C16    C     0.59610   0.55810   0.59880   0.01267  Uiso   1.00
C17    C     0.68820   0.66820   0.57510   0.01267  Uiso   1.00
C18    C     0.78380   0.64840   0.55210   0.01267  Uiso   1.00
C19    C     0.78070   0.52470   0.55210   0.01267  Uiso   1.00
C20    C     0.68730   0.79970   0.57544   0.01267  Uiso   1.00
C21    C     0.79310   0.91390   0.55720   0.01267  Uiso   1.00
C22    C     0.78710   0.03250   0.55710   0.01267  Uiso   1.00
C23    C     0.58440   0.93600   0.59120   0.01267  Uiso   1.00
C24    C     0.58170   0.81350   0.59230   0.01267  Uiso   1.00
C25    C     0.67300   0.05340   0.16122   0.01267  Uiso   1.00
C26    C     0.69210   0.07610   0.20981   0.01267  Uiso   1.00
C27    C     0.65490   0.96890   0.23751   0.01267  Uiso   1.00
C28    C     0.67110   0.99370   0.28262   0.01267  Uiso   1.00
C29    C     0.72360   0.12260   0.30053   0.01267  Uiso   1.00
C30    C     0.75870   0.22570   0.27020   0.01267  Uiso   1.00
C31    C     0.74520   0.20560   0.22597   0.01267  Uiso   1.00
C32    C     0.74300   0.14680   0.34880   0.01267  Uiso   1.00
C33    C     0.85410   0.16070   0.37046   0.01267  Uiso   1.00
C34    C     0.87770   0.19610   0.41474   0.01267  Uiso   1.00
C35    C     0.78730   0.22110   0.43808   0.01267  Uiso   1.00
C36    C     0.67150   0.20290   0.41737   0.01267  Uiso   1.00
C37    C     0.65290   0.16970   0.37380   0.01267  Uiso   1.00
C38    C     0.81420   0.26720   0.48446   0.01267  Uiso   1.00
C39    C     0.94000   0.09920   0.09730   0.01267  Uiso   1.00
C40    C     0.05810   0.09610   0.09880   0.01267  Uiso   1.00
C41    C     0.16820   0.18820   0.07510   0.01267  Uiso   1.00
C42    C     0.14840   0.28380   0.05210   0.01267  Uiso   1.00
C43    C     0.02470   0.28070   0.05210   0.01267  Uiso   1.00
C44    C     0.29970   0.18730   0.07544   0.01267  Uiso   1.00
C45    C     0.41390   0.29310   0.05720   0.01267  Uiso   1.00
C46    C     0.53250   0.28710   0.05710   0.01267  Uiso   1.00
C47    C     0.43600   0.08440   0.09120   0.01267  Uiso   1.00
C48    C     0.31350   0.08170   0.09230   0.01267  Uiso   1.00
N1     N     0.86690   0.30930   0.78430   0.01267  Uiso   1.00
N2     N     0.37450   0.12990   0.81030   0.01267  Uiso   1.00
N3     N     0.64080   0.45960   0.84780   0.01267  Uiso   1.00
N4     N     0.66780   0.03100   0.85420   0.01267  Uiso   1.00
N5     N     0.68820   0.41900   0.57394   0.01267  Uiso   1.00
N6     N     0.68420   0.04580   0.57324   0.01267  Uiso   1.00
N7     N     0.80930   0.36690   0.28430   0.01267  Uiso   1.00
N8     N     0.62990   0.87450   0.31030   0.01267  Uiso   1.00
N9     N     0.95960   0.14080   0.34780   0.01267  Uiso   1.00
N10    N     0.53100   0.16780   0.35420   0.01267  Uiso   1.00
N11    N     0.91900   0.18820   0.07394   0.01267  Uiso   1.00
N12    N     0.54580   0.18420   0.07324   0.01267  Uiso   1.00
O1     O     0.65890   0.21830   0.63812   0.01267  Uiso   1.00
O2     O     0.43480   0.11700   0.64779   0.01267  Uiso   1.00
O3     O     0.82740   0.43360   0.99693   0.01267  Uiso   1.00
O4     O     0.74100   0.21240   0.00692   0.01267  Uiso   1.00
O5     O     0.89290   0.28370   0.81900   0.01267  Uiso   1.00
O6     O     0.95490   0.37930   0.75980   0.01267  Uiso   1.00
O7     O     0.26570   0.04430   0.79690   0.01267  Uiso   1.00
O8     O     0.38550   0.19730   0.84280   0.01267  Uiso   1.00
O9     O     0.65030   0.46810   0.80896   0.01267  Uiso   1.00
O10    O     0.61620   0.53240   0.87050   0.01267  Uiso   1.00
O11    O     0.59860   0.98440   0.82220   0.01267  Uiso   1.00
O12    O     0.73680   0.98540   0.87030   0.01267  Uiso   1.00
O13    O     0.71830   0.15890   0.13812   0.01267  Uiso   1.00
O14    O     0.61700   0.93480   0.14779   0.01267  Uiso   1.00
O15    O     0.93360   0.32740   0.49693   0.01267  Uiso   1.00
O16    O     0.71240   0.24100   0.50692   0.01267  Uiso   1.00
O17    O     0.78370   0.39290   0.31900   0.01267  Uiso   1.00
O18    O     0.87930   0.45490   0.25980   0.01267  Uiso   1.00
O19    O     0.54430   0.76570   0.29690   0.01267  Uiso   1.00
O20    O     0.69730   0.88550   0.34280   0.01267  Uiso   1.00
O21    O     0.96810   0.15030   0.30896   0.01267  Uiso   1.00
O22    O     0.03240   0.11620   0.37050   0.01267  Uiso   1.00
O23    O     0.48440   0.09860   0.32220   0.01267  Uiso   1.00
O24    O     0.48540   0.23680   0.37030   0.01267  Uiso   1.00
Ni3    Ni    0.23365   0.68661   0.42705   0.01267  Uiso   1.00
Ni4    Ni    0.18661   0.73365   0.92705   0.01267  Uiso   1.00
H25    H     0.12000   0.38200   0.27330   0.01267  Uiso   1.00
H26    H     0.27140   0.77800   0.29290   0.01267  Uiso   1.00
H27    H     0.45380   0.70260   0.07170   0.01267  Uiso   1.00
H28    H     0.10640   0.71300   0.06720   0.01267  Uiso   1.00
H29    H     0.36870   0.53570   0.38640   0.01267  Uiso   1.00
H30    H     0.56550   0.53190   0.38430   0.01267  Uiso   1.00
H31    H     0.71940   0.85060   0.46330   0.01267  Uiso   1.00
H32    H     0.51470   0.84530   0.46380   0.01267  Uiso   1.00
H33    H     0.91020   0.86660   0.45470   0.01267  Uiso   1.00
H34    H     0.10790   0.85890   0.45490   0.01267  Uiso   1.00
H35    H     0.94300   0.51300   0.39650   0.01267  Uiso   1.00
H36    H     0.73970   0.50850   0.39550   0.01267  Uiso   1.00
H37    H     0.88200   0.62000   0.77330   0.01267  Uiso   1.00
H38    H     0.27800   0.77140   0.79290   0.01267  Uiso   1.00
H39    H     0.20260   0.95380   0.57170   0.01267  Uiso   1.00
H40    H     0.21300   0.60640   0.56720   0.01267  Uiso   1.00
H41    H     0.03570   0.86870   0.88640   0.01267  Uiso   1.00
H42    H     0.03190   0.06550   0.88430   0.01267  Uiso   1.00
H43    H     0.35060   0.21940   0.96330   0.01267  Uiso   1.00
H44    H     0.34530   0.01470   0.96380   0.01267  Uiso   1.00
H45    H     0.36660   0.41020   0.95470   0.01267  Uiso   1.00
H46    H     0.35890   0.60790   0.95490   0.01267  Uiso   1.00
H47    H     0.01300   0.44300   0.89650   0.01267  Uiso   1.00
H48    H     0.00850   0.23970   0.89550   0.01267  Uiso   1.00
C49    C     0.17300   0.55340   0.33878   0.01267  Uiso   1.00
C50    C     0.19210   0.57610   0.29019   0.01267  Uiso   1.00
C51    C     0.15490   0.46890   0.26249   0.01267  Uiso   1.00
C52    C     0.17110   0.49370   0.21738   0.01267  Uiso   1.00
C53    C     0.22360   0.62260   0.19947   0.01267  Uiso   1.00
C54    C     0.25870   0.72570   0.22980   0.01267  Uiso   1.00
C55    C     0.24520   0.70560   0.27403   0.01267  Uiso   1.00
C56    C     0.24300   0.64680   0.15120   0.01267  Uiso   1.00
C57    C     0.35410   0.66070   0.12954   0.01267  Uiso   1.00
C58    C     0.37770   0.69610   0.08526   0.01267  Uiso   1.00
C59    C     0.28730   0.72110   0.06192   0.01267  Uiso   1.00
C60    C     0.17150   0.70290   0.08263   0.01267  Uiso   1.00
C61    C     0.15290   0.66970   0.12620   0.01267  Uiso   1.00
C62    C     0.31420   0.76720   0.01554   0.01267  Uiso   1.00
C63    C     0.44000   0.59920   0.40270   0.01267  Uiso   1.00
C64    C     0.55810   0.59610   0.40120   0.01267  Uiso   1.00
C65    C     0.66820   0.68820   0.42490   0.01267  Uiso   1.00
C66    C     0.64840   0.78380   0.44790   0.01267  Uiso   1.00
C67    C     0.52470   0.78070   0.44790   0.01267  Uiso   1.00
C68    C     0.79970   0.68730   0.42456   0.01267  Uiso   1.00
C69    C     0.91390   0.79310   0.44280   0.01267  Uiso   1.00
C70    C     0.03250   0.78710   0.44290   0.01267  Uiso   1.00
C71    C     0.93600   0.58440   0.40880   0.01267  Uiso   1.00
C72    C     0.81350   0.58170   0.40770   0.01267  Uiso   1.00
C73    C     0.05340   0.67300   0.83878   0.01267  Uiso   1.00
C74    C     0.07610   0.69210   0.79019   0.01267  Uiso   1.00
C75    C     0.96890   0.65490   0.76249   0.01267  Uiso   1.00
C76    C     0.99370   0.67110   0.71738   0.01267  Uiso   1.00
C77    C     0.12260   0.72360   0.69947   0.01267  Uiso   1.00
C78    C     0.22570   0.75870   0.72980   0.01267  Uiso   1.00
C79    C     0.20560   0.74520   0.77403   0.01267  Uiso   1.00
C80    C     0.14680   0.74300   0.65120   0.01267  Uiso   1.00
C81    C     0.16070   0.85410   0.62954   0.01267  Uiso   1.00
C82    C     0.19610   0.87770   0.58526   0.01267  Uiso   1.00
C83    C     0.22110   0.78730   0.56192   0.01267  Uiso   1.00
C84    C     0.20290   0.67150   0.58263   0.01267  Uiso   1.00
C85    C     0.16970   0.65290   0.62620   0.01267  Uiso   1.00
C86    C     0.26720   0.81420   0.51554   0.01267  Uiso   1.00
C87    C     0.09920   0.94000   0.90270   0.01267  Uiso   1.00
C88    C     0.09610   0.05810   0.90120   0.01267  Uiso   1.00
C89    C     0.18820   0.16820   0.92490   0.01267  Uiso   1.00
C90    C     0.28380   0.14840   0.94790   0.01267  Uiso   1.00
C91    C     0.28070   0.02470   0.94790   0.01267  Uiso   1.00
C92    C     0.18730   0.29970   0.92456   0.01267  Uiso   1.00
C93    C     0.29310   0.41390   0.94280   0.01267  Uiso   1.00
C94    C     0.28710   0.53250   0.94290   0.01267  Uiso   1.00
C95    C     0.08440   0.43600   0.90880   0.01267  Uiso   1.00
C96    C     0.08170   0.31350   0.90770   0.01267  Uiso   1.00
N13    N     0.30930   0.86690   0.21570   0.01267  Uiso   1.00
N14    N     0.12990   0.37450   0.18970   0.01267  Uiso   1.00
N15    N     0.45960   0.64080   0.15220   0.01267  Uiso   1.00
N16    N     0.03100   0.66780   0.14580   0.01267  Uiso   1.00
N17    N     0.41900   0.68820   0.42606   0.01267  Uiso   1.00
N18    N     0.04580   0.68420   0.42676   0.01267  Uiso   1.00
N19    N     0.36690   0.80930   0.71570   0.01267  Uiso   1.00
N20    N     0.87450   0.62990   0.68970   0.01267  Uiso   1.00
N21    N     0.14080   0.95960   0.65220   0.01267  Uiso   1.00
N22    N     0.16780   0.53100   0.64580   0.01267  Uiso   1.00
N23    N     0.18820   0.91900   0.92606   0.01267  Uiso   1.00
N24    N     0.18420   0.54580   0.92676   0.01267  Uiso   1.00
O25    O     0.21830   0.65890   0.36188   0.01267  Uiso   1.00
O26    O     0.11700   0.43480   0.35221   0.01267  Uiso   1.00
O27    O     0.43360   0.82740   0.00307   0.01267  Uiso   1.00
O28    O     0.21240   0.74100   0.99308   0.01267  Uiso   1.00
O29    O     0.28370   0.89290   0.18100   0.01267  Uiso   1.00
O30    O     0.37930   0.95490   0.24020   0.01267  Uiso   1.00
O31    O     0.04430   0.26570   0.20310   0.01267  Uiso   1.00
O32    O     0.19730   0.38550   0.15720   0.01267  Uiso   1.00
O33    O     0.46810   0.65030   0.19104   0.01267  Uiso   1.00
O34    O     0.53240   0.61620   0.12950   0.01267  Uiso   1.00
O35    O     0.98440   0.59860   0.17780   0.01267  Uiso   1.00
O36    O     0.98540   0.73680   0.12970   0.01267  Uiso   1.00
O37    O     0.15890   0.71830   0.86188   0.01267  Uiso   1.00
O38    O     0.93480   0.61700   0.85221   0.01267  Uiso   1.00
O39    O     0.32740   0.93360   0.50307   0.01267  Uiso   1.00
O40    O     0.24100   0.71240   0.49308   0.01267  Uiso   1.00
O41    O     0.39290   0.78370   0.68100   0.01267  Uiso   1.00
O42    O     0.45490   0.87930   0.74020   0.01267  Uiso   1.00
O43    O     0.76570   0.54430   0.70310   0.01267  Uiso   1.00
O44    O     0.88550   0.69730   0.65720   0.01267  Uiso   1.00
O45    O     0.15030   0.96810   0.69104   0.01267  Uiso   1.00
O46    O     0.11620   0.03240   0.62950   0.01267  Uiso   1.00
O47    O     0.09860   0.48440   0.67780   0.01267  Uiso   1.00
O48    O     0.23680   0.48540   0.62970   0.01267  Uiso   1.00
