data_image0
_cell_length_a       10.0393
_cell_length_b       13.9688
_cell_length_c       19.893
_cell_angle_alpha    90
_cell_angle_beta     102.369
_cell_angle_gamma    90

_symmetry_space_group_name_H-M    "P 1"
_symmetry_int_tables_number       1

loop_
  _symmetry_equiv_pos_as_xyz
  'x, y, z'

loop_
  _atom_site_label
  _atom_site_occupancy
  _atom_site_fract_x
  _atom_site_fract_y
  _atom_site_fract_z
  _atom_site_thermal_displace_type
  _atom_site_B_iso_or_equiv
  _atom_site_type_symbol
  Ag1      1.0000 0.42250  0.63630  0.13982  Biso   1.000  Ag
  Ag2      1.0000 0.52240  0.45770  0.07160  Biso   1.000  Ag
  Ag3      1.0000 0.89220  0.47907  0.04622  Biso   1.000  Ag
  Ag4      1.0000 0.60800  0.84571  0.27445  Biso   1.000  Ag
  S1       1.0000 0.74520  0.47690  0.14620  Biso   1.000  S
  S2       1.0000 0.28060  0.50980  0.06310  Biso   1.000  S
  N1       1.0000 0.64800  0.64290  0.19130  Biso   1.000  N
  N2       1.0000 0.69800  0.71680  0.23190  Biso   1.000  N
  N3       1.0000 0.83100  0.70760  0.25280  Biso   1.000  N
  N4       1.0000 0.86100  0.62260  0.22700  Biso   1.000  N
  N5       1.0000 0.08500  0.42710  0.11810  Biso   1.000  N
  N6       1.0000 0.07500  0.36670  0.17030  Biso   1.000  N
  N7       1.0000 0.19000  0.34030  0.20210  Biso   1.000  N
  N8       1.0000 0.28000  0.37570  0.16830  Biso   1.000  N
  C1       1.0000 0.75000  0.58600  0.18870  Biso   1.000  C
  C2       1.0000 0.00000  0.59100  0.23970  Biso   1.000  C
  H1       1.0000 0.00330  0.52260  0.24550  Biso   1.000  H
  H2       1.0000 0.05090  0.62070  0.28070  Biso   1.000  H
  H3       1.0000 0.03950  0.60790  0.20140  Biso   1.000  H
  C3       1.0000 0.21500  0.43500  0.11820  Biso   1.000  C
  C4       1.0000 0.42500  0.35900  0.19420  Biso   1.000  C
  H4       1.0000 0.43840  0.32870  0.23860  Biso   1.000  H
  H5       1.0000 0.47290  0.41830  0.19810  Biso   1.000  H
  H6       1.0000 0.45840  0.31730  0.16300  Biso   1.000  H
  Ag5      1.0000 0.07750  0.13630  0.36018  Biso   1.000  Ag
  Ag6      1.0000 0.97760  0.95770  0.42840  Biso   1.000  Ag
  Ag7      1.0000 0.60780  0.97907  0.45378  Biso   1.000  Ag
  Ag8      1.0000 0.89200  0.34571  0.22555  Biso   1.000  Ag
  S3       1.0000 0.75480  0.97690  0.35380  Biso   1.000  S
  S4       1.0000 0.21940  0.00980  0.43690  Biso   1.000  S
  N9       1.0000 0.85200  0.14290  0.30870  Biso   1.000  N
  N10      1.0000 0.80200  0.21680  0.26810  Biso   1.000  N
  N11      1.0000 0.66900  0.20760  0.24720  Biso   1.000  N
  N12      1.0000 0.63900  0.12260  0.27300  Biso   1.000  N
  N13      1.0000 0.41500  0.92710  0.38190  Biso   1.000  N
  N14      1.0000 0.42500  0.86670  0.32970  Biso   1.000  N
  N15      1.0000 0.31000  0.84030  0.29790  Biso   1.000  N
  N16      1.0000 0.22000  0.87570  0.33170  Biso   1.000  N
  C5       1.0000 0.75000  0.08600  0.31130  Biso   1.000  C
  C6       1.0000 0.50000  0.09100  0.26030  Biso   1.000  C
  H7       1.0000 0.49670  0.02260  0.25450  Biso   1.000  H
  H8       1.0000 0.44910  0.12070  0.21930  Biso   1.000  H
  H9       1.0000 0.46050  0.10790  0.29860  Biso   1.000  H
  C7       1.0000 0.28500  0.93500  0.38180  Biso   1.000  C
  C8       1.0000 0.07500  0.85900  0.30580  Biso   1.000  C
  H10      1.0000 0.06160  0.82870  0.26140  Biso   1.000  H
  H11      1.0000 0.02710  0.91830  0.30190  Biso   1.000  H
  H12      1.0000 0.04160  0.81730  0.33700  Biso   1.000  H
  Ag9      1.0000 0.57750  0.36370  0.86018  Biso   1.000  Ag
  Ag10     1.0000 0.47760  0.54230  0.92840  Biso   1.000  Ag
  Ag11     1.0000 0.10780  0.52093  0.95378  Biso   1.000  Ag
  Ag12     1.0000 0.39200  0.15429  0.72555  Biso   1.000  Ag
  S5       1.0000 0.25480  0.52310  0.85380  Biso   1.000  S
  S6       1.0000 0.71940  0.49020  0.93690  Biso   1.000  S
  N17      1.0000 0.35200  0.35710  0.80870  Biso   1.000  N
  N18      1.0000 0.30200  0.28320  0.76810  Biso   1.000  N
  N19      1.0000 0.16900  0.29240  0.74720  Biso   1.000  N
  N20      1.0000 0.13900  0.37740  0.77300  Biso   1.000  N
  N21      1.0000 0.91500  0.57290  0.88190  Biso   1.000  N
  N22      1.0000 0.92500  0.63330  0.82970  Biso   1.000  N
  N23      1.0000 0.81000  0.65970  0.79790  Biso   1.000  N
  N24      1.0000 0.72000  0.62430  0.83170  Biso   1.000  N
  C9       1.0000 0.25000  0.41400  0.81130  Biso   1.000  C
  C10      1.0000 0.00000  0.40900  0.76030  Biso   1.000  C
  H13      1.0000 0.99670  0.47740  0.75450  Biso   1.000  H
  H14      1.0000 0.94910  0.37930  0.71930  Biso   1.000  H
  H15      1.0000 0.96050  0.39210  0.79860  Biso   1.000  H
  C11      1.0000 0.78500  0.56500  0.88180  Biso   1.000  C
  C12      1.0000 0.57500  0.64100  0.80580  Biso   1.000  C
  H16      1.0000 0.56160  0.67130  0.76140  Biso   1.000  H
  H17      1.0000 0.52710  0.58170  0.80190  Biso   1.000  H
  H18      1.0000 0.54160  0.68270  0.83700  Biso   1.000  H
  Ag13     1.0000 0.92250  0.86370  0.63982  Biso   1.000  Ag
  Ag14     1.0000 0.02240  0.04230  0.57160  Biso   1.000  Ag
  Ag15     1.0000 0.39220  0.02093  0.54622  Biso   1.000  Ag
  Ag16     1.0000 0.10800  0.65429  0.77445  Biso   1.000  Ag
  S7       1.0000 0.24520  0.02310  0.64620  Biso   1.000  S
  S8       1.0000 0.78060  0.99020  0.56310  Biso   1.000  S
  N25      1.0000 0.14800  0.85710  0.69130  Biso   1.000  N
  N26      1.0000 0.19800  0.78320  0.73190  Biso   1.000  N
  N27      1.0000 0.33100  0.79240  0.75280  Biso   1.000  N
  N28      1.0000 0.36100  0.87740  0.72700  Biso   1.000  N
  N29      1.0000 0.58500  0.07290  0.61810  Biso   1.000  N
  N30      1.0000 0.57500  0.13330  0.67030  Biso   1.000  N
  N31      1.0000 0.69000  0.15970  0.70210  Biso   1.000  N
  N32      1.0000 0.78000  0.12430  0.66830  Biso   1.000  N
  C13      1.0000 0.25000  0.91400  0.68870  Biso   1.000  C
  C14      1.0000 0.50000  0.90900  0.73970  Biso   1.000  C
  H19      1.0000 0.50330  0.97740  0.74550  Biso   1.000  H
  H20      1.0000 0.55090  0.87930  0.78070  Biso   1.000  H
  H21      1.0000 0.53950  0.89210  0.70140  Biso   1.000  H
  C15      1.0000 0.71500  0.06500  0.61820  Biso   1.000  C
  C16      1.0000 0.92500  0.14100  0.69420  Biso   1.000  C
  H22      1.0000 0.93840  0.17130  0.73860  Biso   1.000  H
  H23      1.0000 0.97290  0.08170  0.69810  Biso   1.000  H
  H24      1.0000 0.95840  0.18270  0.66300  Biso   1.000  H
