data_image0
_cell_length_a       9.9493
_cell_length_b       14.0796
_cell_length_c       19.906
_cell_angle_alpha    90
_cell_angle_beta     101.585
_cell_angle_gamma    90

_symmetry_space_group_name_H-M    "P 1"
_symmetry_int_tables_number       1

loop_
  _symmetry_equiv_pos_as_xyz
  'x, y, z'

loop_
  _atom_site_label
  _atom_site_occupancy
  _atom_site_fract_x
  _atom_site_fract_y
  _atom_site_fract_z
  _atom_site_thermal_displace_type
  _atom_site_B_iso_or_equiv
  _atom_site_type_symbol
  Ag1      1.0000 0.61117  0.02239  0.45144  Biso   1.000  Ag
  Ag2      1.0000 0.61242  0.14922  0.27907  Biso   1.000  Ag
  Ag3      1.0000 0.93291  0.12975  0.63471  Biso   1.000  Ag
  S1       1.0000 0.78020  0.01640  0.56020  Biso   1.000  S
  S2       1.0000 0.76420  0.01870  0.35270  Biso   1.000  S
  N1       1.0000 0.58480  0.93130  0.61750  Biso   1.000  N
  N2       1.0000 0.57920  0.86880  0.66960  Biso   1.000  N
  N3       1.0000 0.69820  0.84180  0.69600  Biso   1.000  N
  N4       1.0000 0.78550  0.88590  0.66290  Biso   1.000  N
  N5       1.0000 0.85270  0.85210  0.30620  Biso   1.000  N
  N6       1.0000 0.79880  0.77830  0.26660  Biso   1.000  N
  N7       1.0000 0.66830  0.78960  0.24580  Biso   1.000  N
  N8       1.0000 0.63690  0.87360  0.27200  Biso   1.000  N
  C1       1.0000 0.70920  0.94270  0.61400  Biso   1.000  C
  C2       1.0000 0.93100  0.86730  0.68380  Biso   1.000  C
  H1       1.0000 0.94640  0.82240  0.72080  Biso   1.000  H
  H2       1.0000 0.97840  0.92550  0.69860  Biso   1.000  H
  H3       1.0000 0.96530  0.84180  0.64570  Biso   1.000  H
  C3       1.0000 0.75050  0.91010  0.31080  Biso   1.000  C
  C4       1.0000 0.49660  0.90800  0.26100  Biso   1.000  C
  H4       1.0000 0.43800  0.86620  0.23000  Biso   1.000  H
  H5       1.0000 0.46690  0.91000  0.30390  Biso   1.000  H
  H6       1.0000 0.49210  0.97070  0.24160  Biso   1.000  H
  Ag4      1.0000 0.88883  0.52239  0.04856  Biso   1.000  Ag
  Ag5      1.0000 0.88758  0.64922  0.22093  Biso   1.000  Ag
  Ag6      1.0000 0.56709  0.62975  0.86529  Biso   1.000  Ag
  S3       1.0000 0.71980  0.51640  0.93980  Biso   1.000  S
  S4       1.0000 0.73580  0.51870  0.14730  Biso   1.000  S
  N9       1.0000 0.91520  0.43130  0.88250  Biso   1.000  N
  N10      1.0000 0.92080  0.36880  0.83040  Biso   1.000  N
  N11      1.0000 0.80180  0.34180  0.80400  Biso   1.000  N
  N12      1.0000 0.71450  0.38590  0.83710  Biso   1.000  N
  N13      1.0000 0.64730  0.35210  0.19380  Biso   1.000  N
  N14      1.0000 0.70120  0.27830  0.23340  Biso   1.000  N
  N15      1.0000 0.83170  0.28960  0.25420  Biso   1.000  N
  N16      1.0000 0.86310  0.37360  0.22800  Biso   1.000  N
  C5       1.0000 0.79080  0.44270  0.88600  Biso   1.000  C
  C6       1.0000 0.56900  0.36730  0.81620  Biso   1.000  C
  H7       1.0000 0.55360  0.32240  0.77920  Biso   1.000  H
  H8       1.0000 0.52160  0.42550  0.80140  Biso   1.000  H
  H9       1.0000 0.53470  0.34180  0.85430  Biso   1.000  H
  C7       1.0000 0.74950  0.41010  0.18920  Biso   1.000  C
  C8       1.0000 0.00340  0.40800  0.23900  Biso   1.000  C
  H10      1.0000 0.06200  0.36620  0.27000  Biso   1.000  H
  H11      1.0000 0.03310  0.41000  0.19610  Biso   1.000  H
  H12      1.0000 0.00790  0.47070  0.25840  Biso   1.000  H
  Ag7      1.0000 0.38883  0.97761  0.54856  Biso   1.000  Ag
  Ag8      1.0000 0.38758  0.85078  0.72093  Biso   1.000  Ag
  Ag9      1.0000 0.06709  0.87025  0.36529  Biso   1.000  Ag
  S5       1.0000 0.21980  0.98360  0.43980  Biso   1.000  S
  S6       1.0000 0.23580  0.98130  0.64730  Biso   1.000  S
  N17      1.0000 0.41520  0.06870  0.38250  Biso   1.000  N
  N18      1.0000 0.42080  0.13120  0.33040  Biso   1.000  N
  N19      1.0000 0.30180  0.15820  0.30400  Biso   1.000  N
  N20      1.0000 0.21450  0.11410  0.33710  Biso   1.000  N
  N21      1.0000 0.14730  0.14790  0.69380  Biso   1.000  N
  N22      1.0000 0.20120  0.22170  0.73340  Biso   1.000  N
  N23      1.0000 0.33170  0.21040  0.75420  Biso   1.000  N
  N24      1.0000 0.36310  0.12640  0.72800  Biso   1.000  N
  C9       1.0000 0.29080  0.05730  0.38600  Biso   1.000  C
  C10      1.0000 0.06900  0.13270  0.31620  Biso   1.000  C
  H13      1.0000 0.05360  0.17760  0.27920  Biso   1.000  H
  H14      1.0000 0.02160  0.07450  0.30140  Biso   1.000  H
  H15      1.0000 0.03470  0.15820  0.35430  Biso   1.000  H
  C11      1.0000 0.24950  0.08990  0.68920  Biso   1.000  C
  C12      1.0000 0.50340  0.09200  0.73900  Biso   1.000  C
  H16      1.0000 0.56200  0.13380  0.77000  Biso   1.000  H
  H17      1.0000 0.53310  0.09000  0.69610  Biso   1.000  H
  H18      1.0000 0.50790  0.02930  0.75840  Biso   1.000  H
  Ag10     1.0000 0.11117  0.47761  0.95144  Biso   1.000  Ag
  Ag11     1.0000 0.11242  0.35078  0.77907  Biso   1.000  Ag
  Ag12     1.0000 0.43291  0.37025  0.13471  Biso   1.000  Ag
  S7       1.0000 0.28020  0.48360  0.06020  Biso   1.000  S
  S8       1.0000 0.26420  0.48130  0.85270  Biso   1.000  S
  N25      1.0000 0.08480  0.56870  0.11750  Biso   1.000  N
  N26      1.0000 0.07920  0.63120  0.16960  Biso   1.000  N
  N27      1.0000 0.19820  0.65820  0.19600  Biso   1.000  N
  N28      1.0000 0.28550  0.61410  0.16290  Biso   1.000  N
  N29      1.0000 0.35270  0.64790  0.80620  Biso   1.000  N
  N30      1.0000 0.29880  0.72170  0.76660  Biso   1.000  N
  N31      1.0000 0.16830  0.71040  0.74580  Biso   1.000  N
  N32      1.0000 0.13690  0.62640  0.77200  Biso   1.000  N
  C13      1.0000 0.20920  0.55730  0.11400  Biso   1.000  C
  C14      1.0000 0.43100  0.63270  0.18380  Biso   1.000  C
  H19      1.0000 0.44640  0.67760  0.22080  Biso   1.000  H
  H20      1.0000 0.47840  0.57450  0.19860  Biso   1.000  H
  H21      1.0000 0.46530  0.65820  0.14570  Biso   1.000  H
  C15      1.0000 0.25050  0.58990  0.81080  Biso   1.000  C
  C16      1.0000 0.99660  0.59200  0.76100  Biso   1.000  C
  H22      1.0000 0.93800  0.63380  0.73000  Biso   1.000  H
  H23      1.0000 0.96690  0.59000  0.80390  Biso   1.000  H
  H24      1.0000 0.99210  0.52930  0.74160  Biso   1.000  H
