data_image0
_cell_length_a       9.366
_cell_length_b       9.366
_cell_length_c       6.947
_cell_angle_alpha    90
_cell_angle_beta     90
_cell_angle_gamma    90

_symmetry_space_group_name_H-M    "P 1"
_symmetry_int_tables_number       1

loop_
  _symmetry_equiv_pos_as_xyz
  'x, y, z'

loop_
  _atom_site_label
  _atom_site_occupancy
  _atom_site_fract_x
  _atom_site_fract_y
  _atom_site_fract_z
  _atom_site_thermal_displace_type
  _atom_site_B_iso_or_equiv
  _atom_site_type_symbol
  Ca1      1.0000 0.25000  0.25000  0.90710  Biso   1.000  Ca
  N1       1.0000 0.25000  0.25000  0.24200  Biso   1.000  N
  N2       1.0000 0.25000  0.25000  0.40420  Biso   1.000  N
  N3       1.0000 0.25000  0.25000  0.56990  Biso   1.000  N
  Ca2      1.0000 0.75000  0.75000  0.09290  Biso   1.000  Ca
  N4       1.0000 0.75000  0.75000  0.75800  Biso   1.000  N
  N5       1.0000 0.75000  0.75000  0.59580  Biso   1.000  N
  N6       1.0000 0.75000  0.75000  0.43010  Biso   1.000  N
  N7       1.0000 0.07210  0.07210  0.91090  Biso   1.000  N
  N8       1.0000 0.42790  0.42790  0.91090  Biso   1.000  N
  N9       1.0000 0.42790  0.07210  0.91090  Biso   1.000  N
  N10      1.0000 0.07210  0.42790  0.91090  Biso   1.000  N
  N11      1.0000 0.92790  0.57210  0.08910  Biso   1.000  N
  N12      1.0000 0.57210  0.92790  0.08910  Biso   1.000  N
  N13      1.0000 0.57210  0.57210  0.08910  Biso   1.000  N
  N14      1.0000 0.92790  0.92790  0.08910  Biso   1.000  N
  N15      1.0000 0.00000  0.00000  0.00000  Biso   1.000  N
  N16      1.0000 0.50000  0.50000  0.00000  Biso   1.000  N
  N17      1.0000 0.50000  0.00000  0.00000  Biso   1.000  N
  N18      1.0000 0.00000  0.50000  0.00000  Biso   1.000  N
