data_VEDDIT_charged
_audit_creation_date              2014-07-02
_audit_creation_method            'Materials Studio'
_symmetry_space_group_name_H-M    'P1'
_symmetry_Int_Tables_number       1
_symmetry_cell_setting            triclinic
loop_
_symmetry_equiv_pos_as_xyz
  x,y,z
_cell_length_a                    12.0510
_cell_length_b                    12.0510
_cell_length_c                    21.4272
_cell_angle_alpha                 77.4218
_cell_angle_beta                  77.4218
_cell_angle_gamma                 87.7111
loop_
_atom_site_label
_atom_site_type_symbol
_atom_site_fract_x
_atom_site_fract_y
_atom_site_fract_z
_atom_site_U_iso_or_equiv
_atom_site_adp_type
_atom_site_occupancy
Dy1    Dy    0.95398   0.08938   0.06909   0.01267  Uiso   1.00
Dy2    Dy    0.91062   0.04602   0.43091   0.01267  Uiso   1.00
Dy3    Dy    0.04602   0.91062   0.93091   0.01267  Uiso   1.00
Dy4    Dy    0.08938   0.95398   0.56909   0.01267  Uiso   1.00
Zn1    Zn    0.56101   0.43899   0.75000   0.01267  Uiso   1.00
Zn2    Zn    0.43899   0.56101   0.25000   0.01267  Uiso   1.00
H1     H     0.30840   0.08500   0.86560   0.01267  Uiso   1.00
H2     H     0.21960   0.36840   0.93270   0.01267  Uiso   1.00
H3     H     0.45310   0.80430   0.83630   0.01267  Uiso   1.00
H4     H     0.83740   0.13980   0.80380   0.01267  Uiso   1.00
H5     H     0.57940   0.68320   0.78960   0.01267  Uiso   1.00
H6     H     0.64770   0.43750   0.87850   0.01267  Uiso   1.00
H7     H     0.75520   0.32320   0.94290   0.01267  Uiso   1.00
H8     H     0.45780   0.18680   0.79130   0.01267  Uiso   1.00
H9     H     0.22240   0.55340   0.89740   0.01267  Uiso   1.00
H10    H     0.89180   0.03420   0.21130   0.01267  Uiso   1.00
H11    H     0.90140   0.91900   0.19150   0.01267  Uiso   1.00
H12    H     0.08970   0.11290   0.16320   0.01267  Uiso   1.00
H13    H     0.01100   0.21080   0.16220   0.01267  Uiso   1.00
H14    H     0.91500   0.69160   0.63440   0.01267  Uiso   1.00
H15    H     0.63160   0.78040   0.56730   0.01267  Uiso   1.00
H16    H     0.19570   0.54690   0.66370   0.01267  Uiso   1.00
H17    H     0.86020   0.16260   0.69620   0.01267  Uiso   1.00
H18    H     0.31680   0.42060   0.71040   0.01267  Uiso   1.00
H19    H     0.56250   0.35230   0.62150   0.01267  Uiso   1.00
H20    H     0.67680   0.24480   0.55710   0.01267  Uiso   1.00
H21    H     0.81320   0.54220   0.70870   0.01267  Uiso   1.00
H22    H     0.44660   0.77760   0.60260   0.01267  Uiso   1.00
H23    H     0.96580   0.10820   0.28870   0.01267  Uiso   1.00
H24    H     0.08100   0.09860   0.30850   0.01267  Uiso   1.00
H25    H     0.88710   0.91030   0.33680   0.01267  Uiso   1.00
H26    H     0.78920   0.98900   0.33780   0.01267  Uiso   1.00
H27    H     0.69160   0.91500   0.13440   0.01267  Uiso   1.00
H28    H     0.78040   0.63160   0.06730   0.01267  Uiso   1.00
H29    H     0.54690   0.19570   0.16370   0.01267  Uiso   1.00
H30    H     0.16260   0.86020   0.19620   0.01267  Uiso   1.00
H31    H     0.42060   0.31680   0.21040   0.01267  Uiso   1.00
H32    H     0.35230   0.56250   0.12150   0.01267  Uiso   1.00
H33    H     0.24480   0.67680   0.05710   0.01267  Uiso   1.00
H34    H     0.54220   0.81320   0.20870   0.01267  Uiso   1.00
H35    H     0.77760   0.44660   0.10260   0.01267  Uiso   1.00
H36    H     0.10820   0.96580   0.78870   0.01267  Uiso   1.00
H37    H     0.09860   0.08100   0.80850   0.01267  Uiso   1.00
H38    H     0.91030   0.88710   0.83680   0.01267  Uiso   1.00
H39    H     0.98900   0.78920   0.83780   0.01267  Uiso   1.00
H40    H     0.08500   0.30840   0.36560   0.01267  Uiso   1.00
H41    H     0.36840   0.21960   0.43270   0.01267  Uiso   1.00
H42    H     0.80430   0.45310   0.33630   0.01267  Uiso   1.00
H43    H     0.13980   0.83740   0.30380   0.01267  Uiso   1.00
H44    H     0.68320   0.57940   0.28960   0.01267  Uiso   1.00
H45    H     0.43750   0.64770   0.37850   0.01267  Uiso   1.00
H46    H     0.32320   0.75520   0.44290   0.01267  Uiso   1.00
H47    H     0.18680   0.45780   0.29130   0.01267  Uiso   1.00
H48    H     0.55340   0.22240   0.39740   0.01267  Uiso   1.00
H49    H     0.03420   0.89180   0.71130   0.01267  Uiso   1.00
H50    H     0.91900   0.90140   0.69150   0.01267  Uiso   1.00
H51    H     0.11290   0.08970   0.66320   0.01267  Uiso   1.00
H52    H     0.21080   0.01100   0.66220   0.01267  Uiso   1.00
C1     C     0.37600   0.50920   0.84910   0.01267  Uiso   1.00
C2     C     0.31860   0.16160   0.86450   0.01267  Uiso   1.00
C3     C     0.24630   0.21610   0.90750   0.01267  Uiso   1.00
C4     C     0.26540   0.33000   0.90350   0.01267  Uiso   1.00
C5     C     0.87750   0.14030   0.92260   0.01267  Uiso   1.00
C6     C     0.43140   0.73000   0.83880   0.01267  Uiso   1.00
C7     C     0.80080   0.20060   0.81960   0.01267  Uiso   1.00
C8     C     0.80920   0.21880   0.88100   0.01267  Uiso   1.00
C9     C     0.50690   0.65670   0.81160   0.01267  Uiso   1.00
C10    C     0.68740   0.37760   0.86330   0.01267  Uiso   1.00
C11    C     0.32150   0.69170   0.87030   0.01267  Uiso   1.00
C12    C     0.73750   0.27430   0.78360   0.01267  Uiso   1.00
C13    C     0.23110   0.77130   0.89560   0.01267  Uiso   1.00
C14    C     0.35360   0.38660   0.85540   0.01267  Uiso   1.00
C15    C     0.75140   0.30880   0.90250   0.01267  Uiso   1.00
C16    C     0.40750   0.22430   0.81910   0.01267  Uiso   1.00
C17    C     0.29470   0.58110   0.87580   0.01267  Uiso   1.00
C18    C     0.14770   0.15950   0.95950   0.01267  Uiso   1.00
C19    C     0.49080   0.62400   0.65090   0.01267  Uiso   1.00
C20    C     0.83840   0.68140   0.63550   0.01267  Uiso   1.00
C21    C     0.78390   0.75370   0.59250   0.01267  Uiso   1.00
C22    C     0.67000   0.73460   0.59650   0.01267  Uiso   1.00
C23    C     0.85970   0.12250   0.57740   0.01267  Uiso   1.00
C24    C     0.27000   0.56860   0.66120   0.01267  Uiso   1.00
C25    C     0.79940   0.19920   0.68040   0.01267  Uiso   1.00
C26    C     0.78120   0.19080   0.61900   0.01267  Uiso   1.00
C27    C     0.34330   0.49310   0.68840   0.01267  Uiso   1.00
C28    C     0.62240   0.31260   0.63670   0.01267  Uiso   1.00
C29    C     0.30830   0.67850   0.62970   0.01267  Uiso   1.00
C30    C     0.72570   0.26250   0.71640   0.01267  Uiso   1.00
C31    C     0.22870   0.76890   0.60440   0.01267  Uiso   1.00
C32    C     0.61340   0.64640   0.64460   0.01267  Uiso   1.00
C33    C     0.69120   0.24860   0.59750   0.01267  Uiso   1.00
C34    C     0.77570   0.59250   0.68090   0.01267  Uiso   1.00
C35    C     0.41890   0.70530   0.62420   0.01267  Uiso   1.00
C36    C     0.84050   0.85230   0.54050   0.01267  Uiso   1.00
C37    C     0.62400   0.49080   0.15090   0.01267  Uiso   1.00
C38    C     0.68140   0.83840   0.13550   0.01267  Uiso   1.00
C39    C     0.75370   0.78390   0.09250   0.01267  Uiso   1.00
C40    C     0.73460   0.67000   0.09650   0.01267  Uiso   1.00
C41    C     0.12250   0.85970   0.07740   0.01267  Uiso   1.00
C42    C     0.56860   0.27000   0.16120   0.01267  Uiso   1.00
C43    C     0.19920   0.79940   0.18040   0.01267  Uiso   1.00
C44    C     0.19080   0.78120   0.11900   0.01267  Uiso   1.00
C45    C     0.49310   0.34330   0.18840   0.01267  Uiso   1.00
C46    C     0.31260   0.62240   0.13670   0.01267  Uiso   1.00
C47    C     0.67850   0.30830   0.12970   0.01267  Uiso   1.00
C48    C     0.26250   0.72570   0.21640   0.01267  Uiso   1.00
C49    C     0.76890   0.22870   0.10440   0.01267  Uiso   1.00
C50    C     0.64640   0.61340   0.14460   0.01267  Uiso   1.00
C51    C     0.24860   0.69120   0.09750   0.01267  Uiso   1.00
C52    C     0.59250   0.77570   0.18090   0.01267  Uiso   1.00
C53    C     0.70530   0.41890   0.12420   0.01267  Uiso   1.00
C54    C     0.85230   0.84050   0.04050   0.01267  Uiso   1.00
C55    C     0.50920   0.37600   0.34910   0.01267  Uiso   1.00
C56    C     0.16160   0.31860   0.36450   0.01267  Uiso   1.00
C57    C     0.21610   0.24630   0.40750   0.01267  Uiso   1.00
C58    C     0.33000   0.26540   0.40350   0.01267  Uiso   1.00
C59    C     0.14030   0.87750   0.42260   0.01267  Uiso   1.00
C60    C     0.73000   0.43140   0.33880   0.01267  Uiso   1.00
C61    C     0.20060   0.80080   0.31960   0.01267  Uiso   1.00
C62    C     0.21880   0.80920   0.38100   0.01267  Uiso   1.00
C63    C     0.65670   0.50690   0.31160   0.01267  Uiso   1.00
C64    C     0.37760   0.68740   0.36330   0.01267  Uiso   1.00
C65    C     0.69170   0.32150   0.37030   0.01267  Uiso   1.00
C66    C     0.27430   0.73750   0.28360   0.01267  Uiso   1.00
C67    C     0.77130   0.23110   0.39560   0.01267  Uiso   1.00
C68    C     0.38660   0.35360   0.35540   0.01267  Uiso   1.00
C69    C     0.30880   0.75140   0.40250   0.01267  Uiso   1.00
C70    C     0.22430   0.40750   0.31910   0.01267  Uiso   1.00
C71    C     0.58110   0.29470   0.37580   0.01267  Uiso   1.00
C72    C     0.15950   0.14770   0.45950   0.01267  Uiso   1.00
N1     N     0.68040   0.36140   0.80490   0.01267  Uiso   1.00
N2     N     0.42360   0.33360   0.81380   0.01267  Uiso   1.00
N3     N     0.48040   0.54840   0.81550   0.01267  Uiso   1.00
N4     N     0.63860   0.31960   0.69510   0.01267  Uiso   1.00
N5     N     0.66640   0.57640   0.68620   0.01267  Uiso   1.00
N6     N     0.45160   0.51960   0.68450   0.01267  Uiso   1.00
N7     N     0.31960   0.63860   0.19510   0.01267  Uiso   1.00
N8     N     0.57640   0.66640   0.18620   0.01267  Uiso   1.00
N9     N     0.51960   0.45160   0.18450   0.01267  Uiso   1.00
N10    N     0.36140   0.68040   0.30490   0.01267  Uiso   1.00
N11    N     0.33360   0.42360   0.31380   0.01267  Uiso   1.00
N12    N     0.54840   0.48040   0.31550   0.01267  Uiso   1.00
O1     O     0.89200   0.16880   0.97320   0.01267  Uiso   1.00
O2     O     0.10240   0.21220   0.00230   0.01267  Uiso   1.00
O3     O     0.11650   0.06270   0.95860   0.01267  Uiso   1.00
O4     O     0.25690   0.86910   0.89900   0.01267  Uiso   1.00
O5     O     0.13020   0.73540   0.91150   0.01267  Uiso   1.00
O6     O     0.91700   0.05220   0.90280   0.01267  Uiso   1.00
O7     O     0.87540   0.99680   0.17840   0.01267  Uiso   1.00
O8     O     0.05700   0.16840   0.13540   0.01267  Uiso   1.00
O9     O     0.83120   0.10800   0.52680   0.01267  Uiso   1.00
O10    O     0.78780   0.89760   0.49770   0.01267  Uiso   1.00
O11    O     0.93730   0.88350   0.54140   0.01267  Uiso   1.00
O12    O     0.13090   0.74310   0.60100   0.01267  Uiso   1.00
O13    O     0.26460   0.86980   0.58850   0.01267  Uiso   1.00
O14    O     0.94780   0.08300   0.59720   0.01267  Uiso   1.00
O15    O     0.00320   0.12460   0.32160   0.01267  Uiso   1.00
O16    O     0.83160   0.94300   0.36460   0.01267  Uiso   1.00
O17    O     0.10800   0.83120   0.02680   0.01267  Uiso   1.00
O18    O     0.89760   0.78780   0.99770   0.01267  Uiso   1.00
O19    O     0.88350   0.93730   0.04140   0.01267  Uiso   1.00
O20    O     0.74310   0.13090   0.10100   0.01267  Uiso   1.00
O21    O     0.86980   0.26460   0.08850   0.01267  Uiso   1.00
O22    O     0.08300   0.94780   0.09720   0.01267  Uiso   1.00
O23    O     0.12460   0.00320   0.82160   0.01267  Uiso   1.00
O24    O     0.94300   0.83160   0.86460   0.01267  Uiso   1.00
O25    O     0.16880   0.89200   0.47320   0.01267  Uiso   1.00
O26    O     0.21220   0.10240   0.50230   0.01267  Uiso   1.00
O27    O     0.06270   0.11650   0.45860   0.01267  Uiso   1.00
O28    O     0.86910   0.25690   0.39900   0.01267  Uiso   1.00
O29    O     0.73540   0.13020   0.41150   0.01267  Uiso   1.00
O30    O     0.05220   0.91700   0.40280   0.01267  Uiso   1.00
O31    O     0.99680   0.87540   0.67840   0.01267  Uiso   1.00
O32    O     0.16840   0.05700   0.63540   0.01267  Uiso   1.00
Cl1    Cl    0.08560   0.28820   0.72082   0.01267  Uiso   1.00
O33    O     0.99660   0.37020   0.70610   0.01267  Uiso   1.00
O34    O     0.11980   0.30100   0.77780   0.01267  Uiso   1.00
O35    O     0.04470   0.17090   0.73030   0.01267  Uiso   1.00
O36    O     0.17710   0.30750   0.66410   0.01267  Uiso   1.00
Cl2    Cl    0.71180   0.91440   0.77918   0.01267  Uiso   1.00
O37    O     0.62980   0.00340   0.79390   0.01267  Uiso   1.00
O38    O     0.69900   0.88020   0.72220   0.01267  Uiso   1.00
O39    O     0.82910   0.95530   0.76970   0.01267  Uiso   1.00
O40    O     0.69250   0.82290   0.83590   0.01267  Uiso   1.00
Cl3    Cl    0.91440   0.71180   0.27918   0.01267  Uiso   1.00
O41    O     0.00340   0.62980   0.29390   0.01267  Uiso   1.00
O42    O     0.88020   0.69900   0.22220   0.01267  Uiso   1.00
O43    O     0.95530   0.82910   0.26970   0.01267  Uiso   1.00
O44    O     0.82290   0.69250   0.33590   0.01267  Uiso   1.00
Cl4    Cl    0.28820   0.08560   0.22082   0.01267  Uiso   1.00
O45    O     0.37020   0.99660   0.20610   0.01267  Uiso   1.00
O46    O     0.30100   0.11980   0.27780   0.01267  Uiso   1.00
O47    O     0.17090   0.04470   0.23030   0.01267  Uiso   1.00
O48    O     0.30750   0.17710   0.16410   0.01267  Uiso   1.00
