data_image0
_cell_length_a       11.379
_cell_length_b       13.386
_cell_length_c       25.904
_cell_angle_alpha    90
_cell_angle_beta     90
_cell_angle_gamma    90

_symmetry_space_group_name_H-M    "P 1"
_symmetry_int_tables_number       1

loop_
  _symmetry_equiv_pos_as_xyz
  'x, y, z'

loop_
  _atom_site_label
  _atom_site_occupancy
  _atom_site_fract_x
  _atom_site_fract_y
  _atom_site_fract_z
  _atom_site_thermal_displace_type
  _atom_site_B_iso_or_equiv
  _atom_site_type_symbol
  Co1      1.0000 0.84432  0.44353  0.42199  Biso   1.000  Co
  Co2      1.0000 0.09813  0.55392  0.36133  Biso   1.000  Co
  O1       1.0000 0.91630  0.57300  0.38498  Biso   1.000  O
  H1       1.0000 0.91120  0.63040  0.40900  Biso   1.000  H
  H2       1.0000 0.86830  0.58900  0.35420  Biso   1.000  H
  O2       1.0000 0.47150  0.76950  0.56333  Biso   1.000  O
  O3       1.0000 0.71960  0.60330  0.33633  Biso   1.000  O
  O4       1.0000 0.69850  0.45100  0.37352  Biso   1.000  O
  O5       1.0000 0.64600  0.82620  0.59254  Biso   1.000  O
  O6       1.0000 0.92560  0.34950  0.36743  Biso   1.000  O
  O7       1.0000 0.04920  0.43630  0.31623  Biso   1.000  O
  O8       1.0000 0.14070  0.45350  0.42034  Biso   1.000  O
  O9       1.0000 0.98420  0.43630  0.47309  Biso   1.000  O
  N1       1.0000 0.26570  0.18200  0.54101  Biso   1.000  N
  N2       1.0000 0.93170  0.15440  0.20251  Biso   1.000  N
  N3       1.0000 0.75750  0.54210  0.47677  Biso   1.000  N
  N4       1.0000 0.28260  0.54360  0.34269  Biso   1.000  N
  C1       1.0000 0.34000  0.45560  0.34660  Biso   1.000  C
  H3       1.0000 0.29490  0.39590  0.34780  Biso   1.000  H
  C2       1.0000 0.28860  0.19820  0.49090  Biso   1.000  C
  H4       1.0000 0.34470  0.15700  0.47400  Biso   1.000  H
  C3       1.0000 0.99300  0.23960  0.19600  Biso   1.000  C
  H5       1.0000 0.02540  0.25360  0.16300  Biso   1.000  H
  C4       1.0000 0.23220  0.27490  0.46210  Biso   1.000  C
  H6       1.0000 0.24890  0.28480  0.42660  Biso   1.000  H
  C5       1.0000 0.63820  0.54960  0.47760  Biso   1.000  C
  H7       1.0000 0.59350  0.50240  0.45840  Biso   1.000  H
  C6       1.0000 0.64240  0.68660  0.53530  Biso   1.000  C
  C7       1.0000 0.98050  0.36540  0.32683  Biso   1.000  C
  C8       1.0000 0.15050  0.33540  0.48830  Biso   1.000  C
  C9       1.0000 0.01080  0.30740  0.23550  Biso   1.000  C
  H8       1.0000 0.05430  0.36670  0.22910  Biso   1.000  H
  C10      1.0000 0.88760  0.13550  0.24960  Biso   1.000  C
  H9       1.0000 0.84530  0.07520  0.25500  Biso   1.000  H
  C11      1.0000 0.34720  0.62620  0.33910  Biso   1.000  C
  H10      1.0000 0.30830  0.68870  0.33620  Biso   1.000  H
  C12      1.0000 0.76530  0.67860  0.53590  Biso   1.000  C
  H11      1.0000 0.81130  0.72270  0.55630  Biso   1.000  H
  C13      1.0000 0.18570  0.23930  0.56410  Biso   1.000  C
  H12      1.0000 0.16930  0.22800  0.59960  Biso   1.000  H
  C14      1.0000 0.08650  0.41510  0.45779  Biso   1.000  C
  C15      1.0000 0.96620  0.28980  0.28350  Biso   1.000  C
  C16      1.0000 0.57950  0.76780  0.56560  Biso   1.000  C
  C17      1.0000 0.81910  0.60450  0.50590  Biso   1.000  C
  H13      1.0000 0.90230  0.59870  0.50650  Biso   1.000  H
  C18      1.0000 0.12480  0.31550  0.53870  Biso   1.000  C
  H14      1.0000 0.06620  0.35290  0.55630  Biso   1.000  H
  C19      1.0000 0.57890  0.62270  0.50510  Biso   1.000  C
  H15      1.0000 0.49580  0.62830  0.50300  Biso   1.000  H
  C20      1.0000 0.90190  0.20210  0.29130  Biso   1.000  C
  H16      1.0000 0.86850  0.18760  0.32410  Biso   1.000  H
  C21      1.0000 0.47090  0.62430  0.33940  Biso   1.000  C
  H17      1.0000 0.51490  0.68430  0.33600  Biso   1.000  H
  C22      1.0000 0.45870  0.44830  0.34897  Biso   1.000  C
  H18      1.0000 0.49500  0.38500  0.35350  Biso   1.000  H
  C23      1.0000 0.52690  0.53370  0.34475  Biso   1.000  C
  C24      1.0000 0.65860  0.53020  0.35149  Biso   1.000  C
  Co3      1.0000 0.65568  0.55647  0.92199  Biso   1.000  Co
  Co4      1.0000 0.40187  0.44608  0.86133  Biso   1.000  Co
  O10      1.0000 0.58370  0.42700  0.88498  Biso   1.000  O
  H19      1.0000 0.58880  0.36960  0.90900  Biso   1.000  H
  H20      1.0000 0.63170  0.41100  0.85420  Biso   1.000  H
  O11      1.0000 0.02850  0.23050  0.06333  Biso   1.000  O
  O12      1.0000 0.78040  0.39670  0.83633  Biso   1.000  O
  O13      1.0000 0.80150  0.54900  0.87352  Biso   1.000  O
  O14      1.0000 0.85400  0.17380  0.09254  Biso   1.000  O
  O15      1.0000 0.57440  0.65050  0.86743  Biso   1.000  O
  O16      1.0000 0.45080  0.56370  0.81623  Biso   1.000  O
  O17      1.0000 0.35930  0.54650  0.92034  Biso   1.000  O
  O18      1.0000 0.51580  0.56370  0.97309  Biso   1.000  O
  N5       1.0000 0.23430  0.81800  0.04101  Biso   1.000  N
  N6       1.0000 0.56830  0.84560  0.70251  Biso   1.000  N
  N7       1.0000 0.74250  0.45790  0.97677  Biso   1.000  N
  N8       1.0000 0.21740  0.45640  0.84269  Biso   1.000  N
  C25      1.0000 0.16000  0.54440  0.84660  Biso   1.000  C
  H21      1.0000 0.20510  0.60410  0.84780  Biso   1.000  H
  C26      1.0000 0.21140  0.80180  0.99090  Biso   1.000  C
  H22      1.0000 0.15530  0.84300  0.97400  Biso   1.000  H
  C27      1.0000 0.50700  0.76040  0.69600  Biso   1.000  C
  H23      1.0000 0.47460  0.74640  0.66300  Biso   1.000  H
  C28      1.0000 0.26780  0.72510  0.96210  Biso   1.000  C
  H24      1.0000 0.25110  0.71520  0.92660  Biso   1.000  H
  C29      1.0000 0.86180  0.45040  0.97760  Biso   1.000  C
  H25      1.0000 0.90650  0.49760  0.95840  Biso   1.000  H
  C30      1.0000 0.85760  0.31340  0.03530  Biso   1.000  C
  C31      1.0000 0.51950  0.63460  0.82683  Biso   1.000  C
  C32      1.0000 0.34950  0.66460  0.98830  Biso   1.000  C
  C33      1.0000 0.48920  0.69260  0.73550  Biso   1.000  C
  H26      1.0000 0.44570  0.63330  0.72910  Biso   1.000  H
  C34      1.0000 0.61240  0.86450  0.74960  Biso   1.000  C
  H27      1.0000 0.65470  0.92480  0.75500  Biso   1.000  H
  C35      1.0000 0.15280  0.37380  0.83910  Biso   1.000  C
  H28      1.0000 0.19170  0.31130  0.83620  Biso   1.000  H
  C36      1.0000 0.73470  0.32140  0.03590  Biso   1.000  C
  H29      1.0000 0.68870  0.27730  0.05630  Biso   1.000  H
  C37      1.0000 0.31430  0.76070  0.06410  Biso   1.000  C
  H30      1.0000 0.33070  0.77200  0.09960  Biso   1.000  H
  C38      1.0000 0.41350  0.58490  0.95779  Biso   1.000  C
  C39      1.0000 0.53380  0.71020  0.78350  Biso   1.000  C
  C40      1.0000 0.92050  0.23220  0.06560  Biso   1.000  C
  C41      1.0000 0.68090  0.39550  0.00590  Biso   1.000  C
  H31      1.0000 0.59770  0.40130  0.00650  Biso   1.000  H
  C42      1.0000 0.37520  0.68450  0.03870  Biso   1.000  C
  H32      1.0000 0.43380  0.64710  0.05630  Biso   1.000  H
  C43      1.0000 0.92110  0.37730  0.00510  Biso   1.000  C
  H33      1.0000 0.00420  0.37170  0.00300  Biso   1.000  H
  C44      1.0000 0.59810  0.79790  0.79130  Biso   1.000  C
  H34      1.0000 0.63150  0.81240  0.82410  Biso   1.000  H
  C45      1.0000 0.02910  0.37570  0.83940  Biso   1.000  C
  H35      1.0000 0.98510  0.31570  0.83600  Biso   1.000  H
  C46      1.0000 0.04130  0.55170  0.84897  Biso   1.000  C
  H36      1.0000 0.00500  0.61500  0.85350  Biso   1.000  H
  C47      1.0000 0.97310  0.46630  0.84475  Biso   1.000  C
  C48      1.0000 0.84140  0.46980  0.85149  Biso   1.000  C
  Co5      1.0000 0.15568  0.94353  0.07801  Biso   1.000  Co
  Co6      1.0000 0.90187  0.05392  0.13867  Biso   1.000  Co
  O19      1.0000 0.08370  0.07300  0.11502  Biso   1.000  O
  H37      1.0000 0.08880  0.13040  0.09100  Biso   1.000  H
  H38      1.0000 0.13170  0.08900  0.14580  Biso   1.000  H
  O20      1.0000 0.52850  0.26950  0.93667  Biso   1.000  O
  O21      1.0000 0.28040  0.10330  0.16367  Biso   1.000  O
  O22      1.0000 0.30150  0.95100  0.12648  Biso   1.000  O
  O23      1.0000 0.35400  0.32620  0.90746  Biso   1.000  O
  O24      1.0000 0.07440  0.84950  0.13257  Biso   1.000  O
  O25      1.0000 0.95080  0.93630  0.18377  Biso   1.000  O
  O26      1.0000 0.85930  0.95350  0.07966  Biso   1.000  O
  O27      1.0000 0.01580  0.93630  0.02691  Biso   1.000  O
  N9       1.0000 0.73430  0.68200  0.95899  Biso   1.000  N
  N10      1.0000 0.06830  0.65440  0.29749  Biso   1.000  N
  N11      1.0000 0.24250  0.04210  0.02323  Biso   1.000  N
  N12      1.0000 0.71740  0.04360  0.15731  Biso   1.000  N
  C49      1.0000 0.66000  0.95560  0.15340  Biso   1.000  C
  H39      1.0000 0.70510  0.89590  0.15220  Biso   1.000  H
  C50      1.0000 0.71140  0.69820  0.00910  Biso   1.000  C
  H40      1.0000 0.65530  0.65700  0.02600  Biso   1.000  H
  C51      1.0000 0.00700  0.73960  0.30400  Biso   1.000  C
  H41      1.0000 0.97460  0.75360  0.33700  Biso   1.000  H
  C52      1.0000 0.76780  0.77490  0.03790  Biso   1.000  C
  H42      1.0000 0.75110  0.78480  0.07340  Biso   1.000  H
  C53      1.0000 0.36180  0.04960  0.02240  Biso   1.000  C
  H43      1.0000 0.40650  0.00240  0.04160  Biso   1.000  H
  C54      1.0000 0.35760  0.18660  0.96470  Biso   1.000  C
  C55      1.0000 0.01950  0.86540  0.17317  Biso   1.000  C
  C56      1.0000 0.84950  0.83540  0.01170  Biso   1.000  C
  C57      1.0000 0.98920  0.80740  0.26450  Biso   1.000  C
  H44      1.0000 0.94570  0.86670  0.27090  Biso   1.000  H
  C58      1.0000 0.11240  0.63550  0.25040  Biso   1.000  C
  H45      1.0000 0.15470  0.57520  0.24500  Biso   1.000  H
  C59      1.0000 0.65280  0.12620  0.16090  Biso   1.000  C
  H46      1.0000 0.69170  0.18870  0.16380  Biso   1.000  H
  C60      1.0000 0.23470  0.17860  0.96410  Biso   1.000  C
  H47      1.0000 0.18870  0.22270  0.94370  Biso   1.000  H
  C61      1.0000 0.81430  0.73930  0.93590  Biso   1.000  C
  H48      1.0000 0.83070  0.72800  0.90040  Biso   1.000  H
  C62      1.0000 0.91350  0.91510  0.04221  Biso   1.000  C
  C63      1.0000 0.03380  0.78980  0.21650  Biso   1.000  C
  C64      1.0000 0.42050  0.26780  0.93440  Biso   1.000  C
  C65      1.0000 0.18090  0.10450  0.99410  Biso   1.000  C
  H49      1.0000 0.09770  0.09870  0.99350  Biso   1.000  H
  C66      1.0000 0.87520  0.81550  0.96130  Biso   1.000  C
  H50      1.0000 0.93380  0.85290  0.94370  Biso   1.000  H
  C67      1.0000 0.42110  0.12270  0.99490  Biso   1.000  C
  H51      1.0000 0.50420  0.12830  0.99700  Biso   1.000  H
  C68      1.0000 0.09810  0.70210  0.20870  Biso   1.000  C
  H52      1.0000 0.13150  0.68760  0.17590  Biso   1.000  H
  C69      1.0000 0.52910  0.12430  0.16060  Biso   1.000  C
  H53      1.0000 0.48510  0.18430  0.16400  Biso   1.000  H
  C70      1.0000 0.54130  0.94830  0.15103  Biso   1.000  C
  H54      1.0000 0.50500  0.88500  0.14650  Biso   1.000  H
  C71      1.0000 0.47310  0.03370  0.15525  Biso   1.000  C
  C72      1.0000 0.34140  0.03020  0.14851  Biso   1.000  C
  Co7      1.0000 0.34432  0.05647  0.57801  Biso   1.000  Co
  Co8      1.0000 0.59813  0.94608  0.63867  Biso   1.000  Co
  O28      1.0000 0.41630  0.92700  0.61502  Biso   1.000  O
  H55      1.0000 0.41120  0.86960  0.59100  Biso   1.000  H
  H56      1.0000 0.36830  0.91100  0.64580  Biso   1.000  H
  O29      1.0000 0.97150  0.73050  0.43667  Biso   1.000  O
  O30      1.0000 0.21960  0.89670  0.66367  Biso   1.000  O
  O31      1.0000 0.19850  0.04900  0.62648  Biso   1.000  O
  O32      1.0000 0.14600  0.67380  0.40746  Biso   1.000  O
  O33      1.0000 0.42560  0.15050  0.63257  Biso   1.000  O
  O34      1.0000 0.54920  0.06370  0.68377  Biso   1.000  O
  O35      1.0000 0.64070  0.04650  0.57966  Biso   1.000  O
  O36      1.0000 0.48420  0.06370  0.52691  Biso   1.000  O
  N13      1.0000 0.76570  0.31800  0.45899  Biso   1.000  N
  N14      1.0000 0.43170  0.34560  0.79749  Biso   1.000  N
  N15      1.0000 0.25750  0.95790  0.52323  Biso   1.000  N
  N16      1.0000 0.78260  0.95640  0.65731  Biso   1.000  N
  C73      1.0000 0.84000  0.04440  0.65340  Biso   1.000  C
  H57      1.0000 0.79490  0.10410  0.65220  Biso   1.000  H
  C74      1.0000 0.78860  0.30180  0.50910  Biso   1.000  C
  H58      1.0000 0.84470  0.34300  0.52600  Biso   1.000  H
  C75      1.0000 0.49300  0.26040  0.80400  Biso   1.000  C
  H59      1.0000 0.52540  0.24640  0.83700  Biso   1.000  H
  C76      1.0000 0.73220  0.22510  0.53790  Biso   1.000  C
  H60      1.0000 0.74890  0.21520  0.57340  Biso   1.000  H
  C77      1.0000 0.13820  0.95040  0.52240  Biso   1.000  C
  H61      1.0000 0.09350  0.99760  0.54160  Biso   1.000  H
  C78      1.0000 0.14240  0.81340  0.46470  Biso   1.000  C
  C79      1.0000 0.48050  0.13460  0.67317  Biso   1.000  C
  C80      1.0000 0.65050  0.16460  0.51170  Biso   1.000  C
  C81      1.0000 0.51080  0.19260  0.76450  Biso   1.000  C
  H62      1.0000 0.55430  0.13330  0.77090  Biso   1.000  H
  C82      1.0000 0.38760  0.36450  0.75040  Biso   1.000  C
  H63      1.0000 0.34530  0.42480  0.74500  Biso   1.000  H
  C83      1.0000 0.84720  0.87380  0.66090  Biso   1.000  C
  H64      1.0000 0.80830  0.81130  0.66380  Biso   1.000  H
  C84      1.0000 0.26530  0.82140  0.46410  Biso   1.000  C
  H65      1.0000 0.31130  0.77730  0.44370  Biso   1.000  H
  C85      1.0000 0.68570  0.26070  0.43590  Biso   1.000  C
  H66      1.0000 0.66930  0.27200  0.40040  Biso   1.000  H
  C86      1.0000 0.58650  0.08490  0.54221  Biso   1.000  C
  C87      1.0000 0.46620  0.21020  0.71650  Biso   1.000  C
  C88      1.0000 0.07950  0.73220  0.43440  Biso   1.000  C
  C89      1.0000 0.31910  0.89550  0.49410  Biso   1.000  C
  H67      1.0000 0.40230  0.90130  0.49350  Biso   1.000  H
  C90      1.0000 0.62480  0.18450  0.46130  Biso   1.000  C
  H68      1.0000 0.56620  0.14710  0.44370  Biso   1.000  H
  C91      1.0000 0.07890  0.87730  0.49490  Biso   1.000  C
  H69      1.0000 0.99580  0.87170  0.49700  Biso   1.000  H
  C92      1.0000 0.40190  0.29790  0.70870  Biso   1.000  C
  H70      1.0000 0.36850  0.31240  0.67590  Biso   1.000  H
  C93      1.0000 0.97090  0.87570  0.66060  Biso   1.000  C
  H71      1.0000 0.01490  0.81570  0.66400  Biso   1.000  H
  C94      1.0000 0.95870  0.05170  0.65103  Biso   1.000  C
  H72      1.0000 0.99500  0.11500  0.64650  Biso   1.000  H
  C95      1.0000 0.02690  0.96630  0.65525  Biso   1.000  C
  C96      1.0000 0.15860  0.96980  0.64851  Biso   1.000  C
