data_VEFLUP_clean
_audit_creation_date              2014-07-02
_audit_creation_method            'Materials Studio'
_symmetry_space_group_name_H-M    'P1'
_symmetry_Int_Tables_number       1
_symmetry_cell_setting            triclinic
loop_
_symmetry_equiv_pos_as_xyz
  x,y,z
_cell_length_a                    8.0020
_cell_length_b                    9.0910
_cell_length_c                    12.9350
_cell_angle_alpha                 107.8050
_cell_angle_beta                  100.0420
_cell_angle_gamma                 104.1060
loop_
_atom_site_label
_atom_site_type_symbol
_atom_site_fract_x
_atom_site_fract_y
_atom_site_fract_z
_atom_site_U_iso_or_equiv
_atom_site_adp_type
_atom_site_occupancy
Co1    Co    0.24973   0.50272   0.49989   0.01267  Uiso   1.00
Co2    Co    0.74974   0.50250   0.49979   0.01267  Uiso   1.00
H1     H     0.57410   0.68160   0.58600   0.01267  Uiso   1.00
H2     H     0.53810   0.66380   0.47580   0.01267  Uiso   1.00
H3     H     0.93030   0.32890   0.41210   0.01267  Uiso   1.00
H4     H     0.96490   0.34260   0.52130   0.01267  Uiso   1.00
H5     H     0.63090   0.99480   0.91450   0.01267  Uiso   1.00
H6     H     0.59750   0.13590   0.09050   0.01267  Uiso   1.00
H7     H     0.10130   0.78280   0.79760   0.01267  Uiso   1.00
H8     H     0.40120   0.22990   0.20430   0.01267  Uiso   1.00
H9     H     0.86990   0.02220   0.07840   0.01267  Uiso   1.00
H10    H     0.89960   0.86680   0.91830   0.01267  Uiso   1.00
H11    H     0.95040   0.26630   0.84140   0.01267  Uiso   1.00
H12    H     0.92350   0.29730   0.01710   0.01267  Uiso   1.00
H13    H     0.67810   0.58080   0.82190   0.01267  Uiso   1.00
H14    H     0.80460   0.41720   0.17660   0.01267  Uiso   1.00
H15    H     0.54840   0.73700   0.16330   0.01267  Uiso   1.00
H16    H     0.57430   0.71010   0.98520   0.01267  Uiso   1.00
C1     C     0.39790   0.77120   0.72931   0.01267  Uiso   1.00
C2     C     0.36880   0.87056   0.83982   0.01267  Uiso   1.00
C3     C     0.51740   0.98030   0.92606   0.01267  Uiso   1.00
C4     C     0.49790   0.06960   0.03045   0.01267  Uiso   1.00
C5     C     0.32600   0.05626   0.04170   0.01267  Uiso   1.00
C6     C     0.17510   0.94580   0.95289   0.01267  Uiso   1.00
C7     C     0.20040   0.85620   0.85556   0.01267  Uiso   1.00
C8     C     0.30190   0.15600   0.14674   0.01267  Uiso   1.00
C9     C     0.13510   0.14120   0.16072   0.01267  Uiso   1.00
C10    C     0.98430   0.03010   0.06970   0.01267  Uiso   1.00
C11    C     0.00200   0.93870   0.97425   0.01267  Uiso   1.00
C12    C     0.10550   0.23200   0.26728   0.01267  Uiso   1.00
C13    C     0.83780   0.40610   0.69767   0.01267  Uiso   1.00
C14    C     0.82110   0.42360   0.81164   0.01267  Uiso   1.00
C15    C     0.89160   0.33720   0.87396   0.01267  Uiso   1.00
C16    C     0.87550   0.35540   0.97884   0.01267  Uiso   1.00
C17    C     0.78870   0.45920   0.03047   0.01267  Uiso   1.00
C18    C     0.71570   0.54570   0.97099   0.01267  Uiso   1.00
C19    C     0.72970   0.52580   0.86140   0.01267  Uiso   1.00
C20    C     0.76320   0.47810   0.13810   0.01267  Uiso   1.00
C21    C     0.68100   0.58150   0.18651   0.01267  Uiso   1.00
C22    C     0.60800   0.66810   0.12911   0.01267  Uiso   1.00
C23    C     0.62330   0.65230   0.02333   0.01267  Uiso   1.00
C24    C     0.66350   0.59900   0.30560   0.01267  Uiso   1.00
O1     O     0.26002   0.67553   0.65219   0.01267  Uiso   1.00
O2     O     0.55558   0.79871   0.72401   0.01267  Uiso   1.00
O3     O     0.24006   0.33154   0.34642   0.01267  Uiso   1.00
O4     O     0.95080   0.21440   0.27592   0.01267  Uiso   1.00
O5     O     0.79220   0.50655   0.65741   0.01267  Uiso   1.00
O6     O     0.90100   0.30025   0.64647   0.01267  Uiso   1.00
O7     O     0.71350   0.50497   0.34257   0.01267  Uiso   1.00
O8     O     0.60270   0.70765   0.35301   0.01267  Uiso   1.00
O9     O     0.53562   0.61042   0.51953   0.01267  Uiso   1.00
O10    O     0.96811   0.39825   0.47911   0.01267  Uiso   1.00
