data_VEGMOK01_charged
_audit_creation_date              2014-07-02
_audit_creation_method            'Materials Studio'
_symmetry_space_group_name_H-M    'P1'
_symmetry_Int_Tables_number       1
_symmetry_cell_setting            triclinic
loop_
_symmetry_equiv_pos_as_xyz
  x,y,z
_cell_length_a                    9.8105
_cell_length_b                    17.3723
_cell_length_c                    18.1988
_cell_angle_alpha                 92.4481
_cell_angle_beta                  90.0000
_cell_angle_gamma                 106.4010
loop_
_atom_site_label
_atom_site_type_symbol
_atom_site_fract_x
_atom_site_fract_y
_atom_site_fract_z
_atom_site_U_iso_or_equiv
_atom_site_adp_type
_atom_site_occupancy
Zn1    Zn    0.14748   0.69314   0.00332   0.01267  Uiso   1.00
Zn2    Zn    0.45434   0.30686   0.49668   0.01267  Uiso   1.00
Zn3    Zn    0.85252   0.30686   0.99668   0.01267  Uiso   1.00
Zn4    Zn    0.54566   0.69314   0.50332   0.01267  Uiso   1.00
Zn5    Zn    0.00000   0.50000   0.00000   0.01267  Uiso   1.00
Zn6    Zn    0.50000   0.50000   0.50000   0.01267  Uiso   1.00
H1     H     0.58740   0.93160   0.08640   0.01267  Uiso   1.00
H2     H     0.30310   0.93360   0.92880   0.01267  Uiso   1.00
H3     H     0.52920   0.56740   0.89100   0.01267  Uiso   1.00
H4     H     0.31670   0.50600   0.07870   0.01267  Uiso   1.00
H5     H     0.99360   0.73360   0.22490   0.01267  Uiso   1.00
H6     H     0.87160   0.72840   0.33430   0.01267  Uiso   1.00
H7     H     0.63360   0.50600   0.27560   0.01267  Uiso   1.00
H8     H     0.75130   0.51180   0.16520   0.01267  Uiso   1.00
H9     H     0.65580   0.06840   0.41360   0.01267  Uiso   1.00
H10    H     0.36950   0.06640   0.57120   0.01267  Uiso   1.00
H11    H     0.96180   0.43260   0.60900   0.01267  Uiso   1.00
H12    H     0.81070   0.49400   0.42130   0.01267  Uiso   1.00
H13    H     0.26000   0.26640   0.27510   0.01267  Uiso   1.00
H14    H     0.14320   0.27160   0.16570   0.01267  Uiso   1.00
H15    H     0.12760   0.49400   0.22440   0.01267  Uiso   1.00
H16    H     0.23950   0.48820   0.33480   0.01267  Uiso   1.00
H17    H     0.41260   0.06840   0.91360   0.01267  Uiso   1.00
H18    H     0.69690   0.06640   0.07120   0.01267  Uiso   1.00
H19    H     0.47080   0.43260   0.10900   0.01267  Uiso   1.00
H20    H     0.68330   0.49400   0.92130   0.01267  Uiso   1.00
H21    H     0.00640   0.26640   0.77510   0.01267  Uiso   1.00
H22    H     0.12840   0.27160   0.66570   0.01267  Uiso   1.00
H23    H     0.36640   0.49400   0.72440   0.01267  Uiso   1.00
H24    H     0.24870   0.48820   0.83480   0.01267  Uiso   1.00
H25    H     0.34420   0.93160   0.58640   0.01267  Uiso   1.00
H26    H     0.63050   0.93360   0.42880   0.01267  Uiso   1.00
H27    H     0.03820   0.56740   0.39100   0.01267  Uiso   1.00
H28    H     0.18930   0.50600   0.57870   0.01267  Uiso   1.00
H29    H     0.74000   0.73360   0.72490   0.01267  Uiso   1.00
H30    H     0.85680   0.72840   0.83430   0.01267  Uiso   1.00
H31    H     0.87240   0.50600   0.77560   0.01267  Uiso   1.00
H32    H     0.76050   0.51180   0.66520   0.01267  Uiso   1.00
C1     C     0.35997   0.83134   0.02107   0.01267  Uiso   1.00
C2     C     0.43299   0.91878   0.00995   0.01267  Uiso   1.00
C3     C     0.55181   0.95902   0.05179   0.01267  Uiso   1.00
C4     C     0.38202   0.96024   0.95760   0.01267  Uiso   1.00
C5     C     0.31058   0.59296   0.96227   0.01267  Uiso   1.00
C6     C     0.40685   0.54390   0.98185   0.01267  Uiso   1.00
C7     C     0.51759   0.54038   0.93456   0.01267  Uiso   1.00
C8     C     0.39007   0.50354   0.04718   0.01267  Uiso   1.00
C9     C     0.95430   0.62900   0.10984   0.01267  Uiso   1.00
C10    C     0.88218   0.62436   0.18305   0.01267  Uiso   1.00
C11    C     0.91990   0.68840   0.23465   0.01267  Uiso   1.00
C12    C     0.84789   0.68498   0.30047   0.01267  Uiso   1.00
C13    C     0.73959   0.61618   0.31577   0.01267  Uiso   1.00
C14    C     0.70502   0.55204   0.26514   0.01267  Uiso   1.00
C15    C     0.77533   0.55546   0.19895   0.01267  Uiso   1.00
C16    C     0.65923   0.61186   0.38642   0.01267  Uiso   1.00
C17    C     0.52863   0.16866   0.47893   0.01267  Uiso   1.00
C18    C     0.51421   0.08122   0.49005   0.01267  Uiso   1.00
C19    C     0.59279   0.04098   0.44821   0.01267  Uiso   1.00
C20    C     0.42178   0.03976   0.54240   0.01267  Uiso   1.00
C21    C     0.71762   0.40704   0.53773   0.01267  Uiso   1.00
C22    C     0.86295   0.45610   0.51815   0.01267  Uiso   1.00
C23    C     0.97721   0.45962   0.56544   0.01267  Uiso   1.00
C24    C     0.88653   0.49646   0.45282   0.01267  Uiso   1.00
C25    C     0.32530   0.37100   0.39016   0.01267  Uiso   1.00
C26    C     0.25782   0.37564   0.31695   0.01267  Uiso   1.00
C27    C     0.23150   0.31160   0.26535   0.01267  Uiso   1.00
C28    C     0.16291   0.31502   0.19953   0.01267  Uiso   1.00
C29    C     0.12341   0.38382   0.18423   0.01267  Uiso   1.00
C30    C     0.15298   0.44796   0.23486   0.01267  Uiso   1.00
C31    C     0.21987   0.44454   0.30105   0.01267  Uiso   1.00
C32    C     0.04737   0.38814   0.11358   0.01267  Uiso   1.00
C33    C     0.64003   0.16866   0.97893   0.01267  Uiso   1.00
C34    C     0.56701   0.08122   0.99005   0.01267  Uiso   1.00
C35    C     0.44819   0.04098   0.94821   0.01267  Uiso   1.00
C36    C     0.61798   0.03976   0.04240   0.01267  Uiso   1.00
C37    C     0.68942   0.40704   0.03773   0.01267  Uiso   1.00
C38    C     0.59315   0.45610   0.01815   0.01267  Uiso   1.00
C39    C     0.48241   0.45962   0.06544   0.01267  Uiso   1.00
C40    C     0.60993   0.49646   0.95282   0.01267  Uiso   1.00
C41    C     0.04570   0.37100   0.89016   0.01267  Uiso   1.00
C42    C     0.11782   0.37564   0.81695   0.01267  Uiso   1.00
C43    C     0.08010   0.31160   0.76535   0.01267  Uiso   1.00
C44    C     0.15211   0.31502   0.69953   0.01267  Uiso   1.00
C45    C     0.26041   0.38382   0.68423   0.01267  Uiso   1.00
C46    C     0.29498   0.44796   0.73486   0.01267  Uiso   1.00
C47    C     0.22467   0.44454   0.80105   0.01267  Uiso   1.00
C48    C     0.34077   0.38814   0.61358   0.01267  Uiso   1.00
C49    C     0.47137   0.83134   0.52107   0.01267  Uiso   1.00
C50    C     0.48579   0.91878   0.50995   0.01267  Uiso   1.00
C51    C     0.40721   0.95902   0.55179   0.01267  Uiso   1.00
C52    C     0.57822   0.96024   0.45760   0.01267  Uiso   1.00
C53    C     0.28238   0.59296   0.46227   0.01267  Uiso   1.00
C54    C     0.13705   0.54390   0.48185   0.01267  Uiso   1.00
C55    C     0.02279   0.54038   0.43456   0.01267  Uiso   1.00
C56    C     0.11347   0.50354   0.54718   0.01267  Uiso   1.00
C57    C     0.67470   0.62900   0.60984   0.01267  Uiso   1.00
C58    C     0.74218   0.62436   0.68305   0.01267  Uiso   1.00
C59    C     0.76850   0.68840   0.73465   0.01267  Uiso   1.00
C60    C     0.83709   0.68498   0.80047   0.01267  Uiso   1.00
C61    C     0.87659   0.61618   0.81577   0.01267  Uiso   1.00
C62    C     0.84702   0.55204   0.76514   0.01267  Uiso   1.00
C63    C     0.78013   0.55546   0.69895   0.01267  Uiso   1.00
C64    C     0.95263   0.61186   0.88642   0.01267  Uiso   1.00
O1     O     0.25661   0.79842   0.97575   0.01267  Uiso   1.00
O2     O     0.39660   0.79600   0.07144   0.01267  Uiso   1.00
O3     O     0.20928   0.59396   0.00799   0.01267  Uiso   1.00
O4     O     0.33351   0.63302   0.90664   0.01267  Uiso   1.00
O5     O     0.05622   0.69184   0.09958   0.01267  Uiso   1.00
O6     O     0.09062   0.42784   0.93629   0.01267  Uiso   1.00
O7     O     0.66898   0.67776   0.42118   0.01267  Uiso   1.00
O8     O     0.58870   0.54332   0.40431   0.01267  Uiso   1.00
O9     O     0.45819   0.20158   0.52425   0.01267  Uiso   1.00
O10    O     0.60060   0.20400   0.42856   0.01267  Uiso   1.00
O11    O     0.61532   0.40604   0.49201   0.01267  Uiso   1.00
O12    O     0.70049   0.36698   0.59336   0.01267  Uiso   1.00
O13    O     0.36438   0.30816   0.40042   0.01267  Uiso   1.00
O14    O     0.66278   0.57216   0.56371   0.01267  Uiso   1.00
O15    O     0.99122   0.32224   0.07882   0.01267  Uiso   1.00
O16    O     0.04538   0.45668   0.09569   0.01267  Uiso   1.00
O17    O     0.74339   0.20158   0.02425   0.01267  Uiso   1.00
O18    O     0.60340   0.20400   0.92856   0.01267  Uiso   1.00
O19    O     0.79072   0.40604   0.99201   0.01267  Uiso   1.00
O20    O     0.66649   0.36698   0.09336   0.01267  Uiso   1.00
O21    O     0.94378   0.30816   0.90042   0.01267  Uiso   1.00
O22    O     0.90938   0.57216   0.06371   0.01267  Uiso   1.00
O23    O     0.33102   0.32224   0.57882   0.01267  Uiso   1.00
O24    O     0.41130   0.45668   0.59569   0.01267  Uiso   1.00
O25    O     0.54181   0.79842   0.47575   0.01267  Uiso   1.00
O26    O     0.39940   0.79600   0.57144   0.01267  Uiso   1.00
O27    O     0.38468   0.59396   0.50799   0.01267  Uiso   1.00
O28    O     0.29951   0.63302   0.40664   0.01267  Uiso   1.00
O29    O     0.63562   0.69184   0.59958   0.01267  Uiso   1.00
O30    O     0.33722   0.42784   0.43629   0.01267  Uiso   1.00
O31    O     0.00878   0.67776   0.92118   0.01267  Uiso   1.00
O32    O     0.95462   0.54332   0.90431   0.01267  Uiso   1.00
H33    H     0.42390   0.78140   0.83090   0.01267  Uiso   1.00
H34    H     0.29770   0.71440   0.83760   0.01267  Uiso   1.00
H35    H     0.43610   0.75040   0.70710   0.01267  Uiso   1.00
H36    H     0.45510   0.68240   0.75660   0.01267  Uiso   1.00
H37    H     0.20510   0.67960   0.68040   0.01267  Uiso   1.00
H38    H     0.30040   0.62220   0.66390   0.01267  Uiso   1.00
H39    H     0.21180   0.61460   0.73630   0.01267  Uiso   1.00
H40    H     0.17450   0.77680   0.76120   0.01267  Uiso   1.00
H41    H     0.21650   0.82040   0.83860   0.01267  Uiso   1.00
H42    H     0.37370   0.86640   0.70980   0.01267  Uiso   1.00
H43    H     0.27600   0.91400   0.74680   0.01267  Uiso   1.00
H44    H     0.41500   0.91020   0.78720   0.01267  Uiso   1.00
C65    C     0.38802   0.71044   0.74117   0.01267  Uiso   1.00
C66    C     0.26529   0.65138   0.70191   0.01267  Uiso   1.00
C67    C     0.25419   0.80558   0.79256   0.01267  Uiso   1.00
C68    C     0.33741   0.88102   0.75571   0.01267  Uiso   1.00
N1     N     0.34474   0.75208   0.80707   0.01267  Uiso   1.00
H45    H     0.64250   0.21860   0.66910   0.01267  Uiso   1.00
H46    H     0.58330   0.28560   0.66240   0.01267  Uiso   1.00
H47    H     0.68570   0.24960   0.79290   0.01267  Uiso   1.00
H48    H     0.77270   0.31760   0.74340   0.01267  Uiso   1.00
H49    H     0.52550   0.32040   0.81960   0.01267  Uiso   1.00
H50    H     0.67820   0.37780   0.83610   0.01267  Uiso   1.00
H51    H     0.59720   0.38540   0.76370   0.01267  Uiso   1.00
H52    H     0.39770   0.22320   0.73880   0.01267  Uiso   1.00
H53    H     0.39610   0.17960   0.66140   0.01267  Uiso   1.00
H54    H     0.50730   0.13360   0.79020   0.01267  Uiso   1.00
H55    H     0.36200   0.08600   0.75320   0.01267  Uiso   1.00
H56    H     0.50480   0.08980   0.71280   0.01267  Uiso   1.00
C69    C     0.67758   0.28956   0.75883   0.01267  Uiso   1.00
C70    C     0.61391   0.34862   0.79809   0.01267  Uiso   1.00
C71    C     0.44861   0.19442   0.70744   0.01267  Uiso   1.00
C72    C     0.45639   0.11898   0.74429   0.01267  Uiso   1.00
N2     N     0.59266   0.24792   0.69293   0.01267  Uiso   1.00
H57    H     0.57610   0.21860   0.16910   0.01267  Uiso   1.00
H58    H     0.70230   0.28560   0.16240   0.01267  Uiso   1.00
H59    H     0.56390   0.24960   0.29290   0.01267  Uiso   1.00
H60    H     0.54490   0.31760   0.24340   0.01267  Uiso   1.00
H61    H     0.79490   0.32040   0.31960   0.01267  Uiso   1.00
H62    H     0.69960   0.37780   0.33610   0.01267  Uiso   1.00
H63    H     0.78820   0.38540   0.26370   0.01267  Uiso   1.00
H64    H     0.82550   0.22320   0.23880   0.01267  Uiso   1.00
H65    H     0.78350   0.17960   0.16140   0.01267  Uiso   1.00
H66    H     0.62630   0.13360   0.29020   0.01267  Uiso   1.00
H67    H     0.72400   0.08600   0.25320   0.01267  Uiso   1.00
H68    H     0.58500   0.08980   0.21280   0.01267  Uiso   1.00
C73    C     0.61198   0.28956   0.25883   0.01267  Uiso   1.00
C74    C     0.73471   0.34862   0.29809   0.01267  Uiso   1.00
C75    C     0.74581   0.19442   0.20744   0.01267  Uiso   1.00
C76    C     0.66259   0.11898   0.24429   0.01267  Uiso   1.00
N3     N     0.65526   0.24792   0.19293   0.01267  Uiso   1.00
H69    H     0.35750   0.78140   0.33090   0.01267  Uiso   1.00
H70    H     0.41670   0.71440   0.33760   0.01267  Uiso   1.00
H71    H     0.31430   0.75040   0.20710   0.01267  Uiso   1.00
H72    H     0.22730   0.68240   0.25660   0.01267  Uiso   1.00
H73    H     0.47450   0.67960   0.18040   0.01267  Uiso   1.00
H74    H     0.32180   0.62220   0.16390   0.01267  Uiso   1.00
H75    H     0.40280   0.61460   0.23630   0.01267  Uiso   1.00
H76    H     0.60230   0.77680   0.26120   0.01267  Uiso   1.00
H77    H     0.60390   0.82040   0.33860   0.01267  Uiso   1.00
H78    H     0.49270   0.86640   0.20980   0.01267  Uiso   1.00
H79    H     0.63800   0.91400   0.24680   0.01267  Uiso   1.00
H80    H     0.49520   0.91020   0.28720   0.01267  Uiso   1.00
C77    C     0.32242   0.71044   0.24117   0.01267  Uiso   1.00
C78    C     0.38609   0.65138   0.20191   0.01267  Uiso   1.00
C79    C     0.55139   0.80558   0.29256   0.01267  Uiso   1.00
C80    C     0.54361   0.88102   0.25571   0.01267  Uiso   1.00
N4     N     0.40734   0.75208   0.30707   0.01267  Uiso   1.00
