data_VEGMOK02_charged
_audit_creation_date              2014-07-02
_audit_creation_method            'Materials Studio'
_symmetry_space_group_name_H-M    'P1'
_symmetry_Int_Tables_number       1
_symmetry_cell_setting            triclinic
loop_
_symmetry_equiv_pos_as_xyz
  x,y,z
_cell_length_a                    9.8455
_cell_length_b                    17.4197
_cell_length_c                    18.1908
_cell_angle_alpha                 92.3932
_cell_angle_beta                  90.0000
_cell_angle_gamma                 106.4150
loop_
_atom_site_label
_atom_site_type_symbol
_atom_site_fract_x
_atom_site_fract_y
_atom_site_fract_z
_atom_site_U_iso_or_equiv
_atom_site_adp_type
_atom_site_occupancy
Zn1    Zn    0.14848   0.69334   0.00352   0.01267  Uiso   1.00
Zn2    Zn    0.45514   0.30666   0.49648   0.01267  Uiso   1.00
Zn3    Zn    0.85152   0.30666   0.99648   0.01267  Uiso   1.00
Zn4    Zn    0.54486   0.69334   0.50352   0.01267  Uiso   1.00
Zn5    Zn    0.00000   0.50000   0.00000   0.01267  Uiso   1.00
Zn6    Zn    0.50000   0.50000   0.50000   0.01267  Uiso   1.00
H1     H     0.58690   0.93060   0.08530   0.01267  Uiso   1.00
H2     H     0.30040   0.93560   0.93130   0.01267  Uiso   1.00
H3     H     0.52900   0.56800   0.89160   0.01267  Uiso   1.00
H4     H     0.31770   0.50620   0.07890   0.01267  Uiso   1.00
H5     H     0.99130   0.73300   0.22410   0.01267  Uiso   1.00
H6     H     0.86810   0.72780   0.33340   0.01267  Uiso   1.00
H7     H     0.63330   0.50600   0.27520   0.01267  Uiso   1.00
H8     H     0.75280   0.51220   0.16510   0.01267  Uiso   1.00
H9     H     0.65630   0.06940   0.41470   0.01267  Uiso   1.00
H10    H     0.36480   0.06440   0.56870   0.01267  Uiso   1.00
H11    H     0.96100   0.43200   0.60840   0.01267  Uiso   1.00
H12    H     0.81150   0.49380   0.42110   0.01267  Uiso   1.00
H13    H     0.25830   0.26700   0.27590   0.01267  Uiso   1.00
H14    H     0.14030   0.27220   0.16660   0.01267  Uiso   1.00
H15    H     0.12730   0.49400   0.22480   0.01267  Uiso   1.00
H16    H     0.24060   0.48780   0.33490   0.01267  Uiso   1.00
H17    H     0.41310   0.06940   0.91470   0.01267  Uiso   1.00
H18    H     0.69960   0.06440   0.06870   0.01267  Uiso   1.00
H19    H     0.47100   0.43200   0.10840   0.01267  Uiso   1.00
H20    H     0.68230   0.49380   0.92110   0.01267  Uiso   1.00
H21    H     0.00870   0.26700   0.77590   0.01267  Uiso   1.00
H22    H     0.13190   0.27220   0.66660   0.01267  Uiso   1.00
H23    H     0.36670   0.49400   0.72480   0.01267  Uiso   1.00
H24    H     0.24720   0.48780   0.83490   0.01267  Uiso   1.00
H25    H     0.34370   0.93060   0.58530   0.01267  Uiso   1.00
H26    H     0.63520   0.93560   0.43130   0.01267  Uiso   1.00
H27    H     0.03900   0.56800   0.39160   0.01267  Uiso   1.00
H28    H     0.18850   0.50620   0.57890   0.01267  Uiso   1.00
H29    H     0.74170   0.73300   0.72410   0.01267  Uiso   1.00
H30    H     0.85970   0.72780   0.83340   0.01267  Uiso   1.00
H31    H     0.87270   0.50600   0.77520   0.01267  Uiso   1.00
H32    H     0.75940   0.51220   0.66510   0.01267  Uiso   1.00
C1     C     0.35835   0.83190   0.02133   0.01267  Uiso   1.00
C2     C     0.43218   0.91916   0.00987   0.01267  Uiso   1.00
C3     C     0.55151   0.95822   0.05089   0.01267  Uiso   1.00
C4     C     0.38094   0.96128   0.95908   0.01267  Uiso   1.00
C5     C     0.31226   0.59372   0.96343   0.01267  Uiso   1.00
C6     C     0.40779   0.54438   0.98234   0.01267  Uiso   1.00
C7     C     0.51728   0.54076   0.93504   0.01267  Uiso   1.00
C8     C     0.39070   0.50380   0.04720   0.01267  Uiso   1.00
C9     C     0.95487   0.62874   0.11005   0.01267  Uiso   1.00
C10    C     0.88127   0.62394   0.18324   0.01267  Uiso   1.00
C11    C     0.91784   0.68768   0.23394   0.01267  Uiso   1.00
C12    C     0.84487   0.68434   0.29978   0.01267  Uiso   1.00
C13    C     0.73767   0.61634   0.31538   0.01267  Uiso   1.00
C14    C     0.70431   0.55202   0.26478   0.01267  Uiso   1.00
C15    C     0.77581   0.55562   0.19877   0.01267  Uiso   1.00
C16    C     0.65678   0.61176   0.38571   0.01267  Uiso   1.00
C17    C     0.52645   0.16810   0.47867   0.01267  Uiso   1.00
C18    C     0.51302   0.08084   0.49013   0.01267  Uiso   1.00
C19    C     0.59329   0.04178   0.44911   0.01267  Uiso   1.00
C20    C     0.41966   0.03872   0.54092   0.01267  Uiso   1.00
C21    C     0.71854   0.40628   0.53657   0.01267  Uiso   1.00
C22    C     0.86341   0.45562   0.51766   0.01267  Uiso   1.00
C23    C     0.97652   0.45924   0.56496   0.01267  Uiso   1.00
C24    C     0.88690   0.49620   0.45280   0.01267  Uiso   1.00
C25    C     0.32613   0.37126   0.38995   0.01267  Uiso   1.00
C26    C     0.25733   0.37606   0.31676   0.01267  Uiso   1.00
C27    C     0.23016   0.31232   0.26606   0.01267  Uiso   1.00
C28    C     0.16053   0.31566   0.20022   0.01267  Uiso   1.00
C29    C     0.12133   0.38366   0.18462   0.01267  Uiso   1.00
C30    C     0.15229   0.44798   0.23522   0.01267  Uiso   1.00
C31    C     0.22019   0.44438   0.30123   0.01267  Uiso   1.00
C32    C     0.04502   0.38824   0.11429   0.01267  Uiso   1.00
C33    C     0.64165   0.16810   0.97867   0.01267  Uiso   1.00
C34    C     0.56782   0.08084   0.99013   0.01267  Uiso   1.00
C35    C     0.44849   0.04178   0.94911   0.01267  Uiso   1.00
C36    C     0.61906   0.03872   0.04092   0.01267  Uiso   1.00
C37    C     0.68774   0.40628   0.03657   0.01267  Uiso   1.00
C38    C     0.59221   0.45562   0.01766   0.01267  Uiso   1.00
C39    C     0.48272   0.45924   0.06496   0.01267  Uiso   1.00
C40    C     0.60930   0.49620   0.95280   0.01267  Uiso   1.00
C41    C     0.04513   0.37126   0.88995   0.01267  Uiso   1.00
C42    C     0.11873   0.37606   0.81676   0.01267  Uiso   1.00
C43    C     0.08216   0.31232   0.76606   0.01267  Uiso   1.00
C44    C     0.15513   0.31566   0.70022   0.01267  Uiso   1.00
C45    C     0.26233   0.38366   0.68462   0.01267  Uiso   1.00
C46    C     0.29569   0.44798   0.73522   0.01267  Uiso   1.00
C47    C     0.22419   0.44438   0.80123   0.01267  Uiso   1.00
C48    C     0.34322   0.38824   0.61429   0.01267  Uiso   1.00
C49    C     0.47355   0.83190   0.52133   0.01267  Uiso   1.00
C50    C     0.48698   0.91916   0.50987   0.01267  Uiso   1.00
C51    C     0.40671   0.95822   0.55089   0.01267  Uiso   1.00
C52    C     0.58034   0.96128   0.45908   0.01267  Uiso   1.00
C53    C     0.28146   0.59372   0.46343   0.01267  Uiso   1.00
C54    C     0.13659   0.54438   0.48234   0.01267  Uiso   1.00
C55    C     0.02348   0.54076   0.43504   0.01267  Uiso   1.00
C56    C     0.11310   0.50380   0.54720   0.01267  Uiso   1.00
C57    C     0.67387   0.62874   0.61005   0.01267  Uiso   1.00
C58    C     0.74267   0.62394   0.68324   0.01267  Uiso   1.00
C59    C     0.76984   0.68768   0.73394   0.01267  Uiso   1.00
C60    C     0.83947   0.68434   0.79978   0.01267  Uiso   1.00
C61    C     0.87867   0.61634   0.81538   0.01267  Uiso   1.00
C62    C     0.84771   0.55202   0.76478   0.01267  Uiso   1.00
C63    C     0.77981   0.55562   0.69877   0.01267  Uiso   1.00
C64    C     0.95498   0.61176   0.88571   0.01267  Uiso   1.00
O1     O     0.25396   0.79932   0.97705   0.01267  Uiso   1.00
O2     O     0.39564   0.79628   0.07112   0.01267  Uiso   1.00
O3     O     0.20995   0.59450   0.00857   0.01267  Uiso   1.00
O4     O     0.33539   0.63438   0.90815   0.01267  Uiso   1.00
O5     O     0.05494   0.69088   0.09940   0.01267  Uiso   1.00
O6     O     0.09043   0.42866   0.93598   0.01267  Uiso   1.00
O7     O     0.66467   0.67754   0.41997   0.01267  Uiso   1.00
O8     O     0.58864   0.54348   0.40425   0.01267  Uiso   1.00
O9     O     0.45464   0.20068   0.52295   0.01267  Uiso   1.00
O10    O     0.59936   0.20372   0.42888   0.01267  Uiso   1.00
O11    O     0.61545   0.40550   0.49143   0.01267  Uiso   1.00
O12    O     0.70101   0.36562   0.59185   0.01267  Uiso   1.00
O13    O     0.36406   0.30912   0.40060   0.01267  Uiso   1.00
O14    O     0.66177   0.57134   0.56402   0.01267  Uiso   1.00
O15    O     0.98713   0.32246   0.08003   0.01267  Uiso   1.00
O16    O     0.04516   0.45652   0.09575   0.01267  Uiso   1.00
O17    O     0.74604   0.20068   0.02295   0.01267  Uiso   1.00
O18    O     0.60436   0.20372   0.92888   0.01267  Uiso   1.00
O19    O     0.79005   0.40550   0.99143   0.01267  Uiso   1.00
O20    O     0.66461   0.36562   0.09185   0.01267  Uiso   1.00
O21    O     0.94506   0.30912   0.90060   0.01267  Uiso   1.00
O22    O     0.90957   0.57134   0.06402   0.01267  Uiso   1.00
O23    O     0.33533   0.32246   0.58003   0.01267  Uiso   1.00
O24    O     0.41136   0.45652   0.59575   0.01267  Uiso   1.00
O25    O     0.54536   0.79932   0.47705   0.01267  Uiso   1.00
O26    O     0.40064   0.79628   0.57112   0.01267  Uiso   1.00
O27    O     0.38455   0.59450   0.50857   0.01267  Uiso   1.00
O28    O     0.29899   0.63438   0.40815   0.01267  Uiso   1.00
O29    O     0.63594   0.69088   0.59940   0.01267  Uiso   1.00
O30    O     0.33823   0.42866   0.43598   0.01267  Uiso   1.00
O31    O     0.01287   0.67754   0.91997   0.01267  Uiso   1.00
O32    O     0.95484   0.54348   0.90425   0.01267  Uiso   1.00
H33    H     0.29880   0.71580   0.83830   0.01267  Uiso   1.00
H34    H     0.42640   0.78120   0.83080   0.01267  Uiso   1.00
H35    H     0.43370   0.74880   0.70700   0.01267  Uiso   1.00
H36    H     0.45420   0.68220   0.75750   0.01267  Uiso   1.00
H37    H     0.20440   0.67820   0.68230   0.01267  Uiso   1.00
H38    H     0.29820   0.62000   0.66730   0.01267  Uiso   1.00
H39    H     0.21120   0.61500   0.74000   0.01267  Uiso   1.00
H40    H     0.17880   0.77980   0.76130   0.01267  Uiso   1.00
H41    H     0.22160   0.82280   0.83880   0.01267  Uiso   1.00
H42    H     0.37390   0.86720   0.70930   0.01267  Uiso   1.00
H43    H     0.28480   0.91700   0.75040   0.01267  Uiso   1.00
H44    H     0.42370   0.90840   0.78680   0.01267  Uiso   1.00
C65    C     0.38690   0.70980   0.74200   0.01267  Uiso   1.00
C66    C     0.26421   0.65042   0.70450   0.01267  Uiso   1.00
C67    C     0.25865   0.80770   0.79280   0.01267  Uiso   1.00
C68    C     0.34288   0.88176   0.75650   0.01267  Uiso   1.00
N1     N     0.34643   0.75266   0.80735   0.01267  Uiso   1.00
H45    H     0.58300   0.28420   0.66170   0.01267  Uiso   1.00
H46    H     0.64520   0.21880   0.66920   0.01267  Uiso   1.00
H47    H     0.68490   0.25120   0.79300   0.01267  Uiso   1.00
H48    H     0.77200   0.31780   0.74250   0.01267  Uiso   1.00
H49    H     0.52620   0.32180   0.81770   0.01267  Uiso   1.00
H50    H     0.67820   0.38000   0.83270   0.01267  Uiso   1.00
H51    H     0.59620   0.38500   0.76000   0.01267  Uiso   1.00
H52    H     0.39900   0.22020   0.73870   0.01267  Uiso   1.00
H53    H     0.39880   0.17720   0.66120   0.01267  Uiso   1.00
H54    H     0.50670   0.13280   0.79070   0.01267  Uiso   1.00
H55    H     0.36780   0.08300   0.74960   0.01267  Uiso   1.00
H56    H     0.51530   0.09160   0.71320   0.01267  Uiso   1.00
C69    C     0.67710   0.29020   0.75800   0.01267  Uiso   1.00
C70    C     0.61379   0.34958   0.79550   0.01267  Uiso   1.00
C71    C     0.45095   0.19230   0.70720   0.01267  Uiso   1.00
C72    C     0.46112   0.11824   0.74350   0.01267  Uiso   1.00
N2     N     0.59377   0.24734   0.69265   0.01267  Uiso   1.00
H57    H     0.70120   0.28420   0.16170   0.01267  Uiso   1.00
H58    H     0.57360   0.21880   0.16920   0.01267  Uiso   1.00
H59    H     0.56630   0.25120   0.29300   0.01267  Uiso   1.00
H60    H     0.54580   0.31780   0.24250   0.01267  Uiso   1.00
H61    H     0.79560   0.32180   0.31770   0.01267  Uiso   1.00
H62    H     0.70180   0.38000   0.33270   0.01267  Uiso   1.00
H63    H     0.78880   0.38500   0.26000   0.01267  Uiso   1.00
H64    H     0.82120   0.22020   0.23870   0.01267  Uiso   1.00
H65    H     0.77840   0.17720   0.16120   0.01267  Uiso   1.00
H66    H     0.62610   0.13280   0.29070   0.01267  Uiso   1.00
H67    H     0.71520   0.08300   0.24960   0.01267  Uiso   1.00
H68    H     0.57630   0.09160   0.21320   0.01267  Uiso   1.00
C73    C     0.61310   0.29020   0.25800   0.01267  Uiso   1.00
C74    C     0.73579   0.34958   0.29550   0.01267  Uiso   1.00
C75    C     0.74135   0.19230   0.20720   0.01267  Uiso   1.00
C76    C     0.65712   0.11824   0.24350   0.01267  Uiso   1.00
N3     N     0.65357   0.24734   0.19265   0.01267  Uiso   1.00
H69    H     0.41700   0.71580   0.33830   0.01267  Uiso   1.00
H70    H     0.35480   0.78120   0.33080   0.01267  Uiso   1.00
H71    H     0.31510   0.74880   0.20700   0.01267  Uiso   1.00
H72    H     0.22800   0.68220   0.25750   0.01267  Uiso   1.00
H73    H     0.47380   0.67820   0.18230   0.01267  Uiso   1.00
H74    H     0.32180   0.62000   0.16730   0.01267  Uiso   1.00
H75    H     0.40380   0.61500   0.24000   0.01267  Uiso   1.00
H76    H     0.60100   0.77980   0.26130   0.01267  Uiso   1.00
H77    H     0.60120   0.82280   0.33880   0.01267  Uiso   1.00
H78    H     0.49330   0.86720   0.20930   0.01267  Uiso   1.00
H79    H     0.63220   0.91700   0.25040   0.01267  Uiso   1.00
H80    H     0.48470   0.90840   0.28680   0.01267  Uiso   1.00
C77    C     0.32290   0.70980   0.24200   0.01267  Uiso   1.00
C78    C     0.38621   0.65042   0.20450   0.01267  Uiso   1.00
C79    C     0.54905   0.80770   0.29280   0.01267  Uiso   1.00
C80    C     0.53888   0.88176   0.25650   0.01267  Uiso   1.00
N4     N     0.40623   0.75266   0.30735   0.01267  Uiso   1.00
