data_VEGMIE01_charged
_audit_creation_date              2014-07-02
_audit_creation_method            'Materials Studio'
_symmetry_space_group_name_H-M    'P1'
_symmetry_Int_Tables_number       1
_symmetry_cell_setting            triclinic
loop_
_symmetry_equiv_pos_as_xyz
  x,y,z
_cell_length_a                    9.7794
_cell_length_b                    17.3026
_cell_length_c                    18.2274
_cell_angle_alpha                 92.4172
_cell_angle_beta                  90.0000
_cell_angle_gamma                 106.4150
loop_
_atom_site_label
_atom_site_type_symbol
_atom_site_fract_x
_atom_site_fract_y
_atom_site_fract_z
_atom_site_U_iso_or_equiv
_atom_site_adp_type
_atom_site_occupancy
Co1    Co    0.14491   0.69238   0.00210   0.01267  Uiso   1.00
Co2    Co    0.45254   0.30763   0.49790   0.01267  Uiso   1.00
Co3    Co    0.85509   0.30763   0.99790   0.01267  Uiso   1.00
Co4    Co    0.54746   0.69237   0.50210   0.01267  Uiso   1.00
Co5    Co    0.00000   0.50000   0.00000   0.01267  Uiso   1.00
Co6    Co    0.50000   0.50000   0.50000   0.01267  Uiso   1.00
H1     H     0.59078   0.92588   0.09307   0.01267  Uiso   1.00
H2     H     0.28958   0.92984   0.92313   0.01267  Uiso   1.00
H3     H     0.53027   0.57222   0.88380   0.01267  Uiso   1.00
H4     H     0.30305   0.50564   0.08391   0.01267  Uiso   1.00
H5     H     0.00702   0.74294   0.22265   0.01267  Uiso   1.00
H6     H     0.87718   0.73624   0.33972   0.01267  Uiso   1.00
H7     H     0.62268   0.49652   0.27667   0.01267  Uiso   1.00
H8     H     0.74862   0.50452   0.15849   0.01267  Uiso   1.00
H9     H     0.66490   0.07412   0.40693   0.01267  Uiso   1.00
H10    H     0.35974   0.07016   0.57687   0.01267  Uiso   1.00
H11    H     0.95805   0.42778   0.61620   0.01267  Uiso   1.00
H12    H     0.79741   0.49436   0.41609   0.01267  Uiso   1.00
H13    H     0.26408   0.25706   0.27735   0.01267  Uiso   1.00
H14    H     0.14094   0.26376   0.16028   0.01267  Uiso   1.00
H15    H     0.12616   0.50348   0.22333   0.01267  Uiso   1.00
H16    H     0.24410   0.49548   0.34151   0.01267  Uiso   1.00
H17    H     0.40922   0.07412   0.90693   0.01267  Uiso   1.00
H18    H     0.71042   0.07016   0.07687   0.01267  Uiso   1.00
H19    H     0.46973   0.42778   0.11620   0.01267  Uiso   1.00
H20    H     0.69695   0.49436   0.91609   0.01267  Uiso   1.00
H21    H     0.99298   0.25706   0.77735   0.01267  Uiso   1.00
H22    H     0.12282   0.26376   0.66028   0.01267  Uiso   1.00
H23    H     0.37732   0.50348   0.72333   0.01267  Uiso   1.00
H24    H     0.25138   0.49548   0.84151   0.01267  Uiso   1.00
H25    H     0.33510   0.92588   0.59307   0.01267  Uiso   1.00
H26    H     0.64026   0.92984   0.42313   0.01267  Uiso   1.00
H27    H     0.04195   0.57222   0.38380   0.01267  Uiso   1.00
H28    H     0.20259   0.50564   0.58391   0.01267  Uiso   1.00
H29    H     0.73592   0.74294   0.72265   0.01267  Uiso   1.00
H30    H     0.85906   0.73624   0.83972   0.01267  Uiso   1.00
H31    H     0.87384   0.49652   0.77667   0.01267  Uiso   1.00
H32    H     0.75590   0.50452   0.65849   0.01267  Uiso   1.00
C1     C     0.35843   0.83108   0.01991   0.01267  Uiso   1.00
C2     C     0.43249   0.91836   0.00902   0.01267  Uiso   1.00
C3     C     0.55109   0.95826   0.05237   0.01267  Uiso   1.00
C4     C     0.38182   0.96054   0.95674   0.01267  Uiso   1.00
C5     C     0.30851   0.59246   0.96270   0.01267  Uiso   1.00
C6     C     0.40604   0.54358   0.98180   0.01267  Uiso   1.00
C7     C     0.51718   0.54050   0.93445   0.01267  Uiso   1.00
C8     C     0.38906   0.50308   0.04731   0.01267  Uiso   1.00
C9     C     0.95566   0.63030   0.11000   0.01267  Uiso   1.00
C10    C     0.88346   0.62484   0.18252   0.01267  Uiso   1.00
C11    C     0.92150   0.68968   0.23407   0.01267  Uiso   1.00
C12    C     0.84938   0.68566   0.30012   0.01267  Uiso   1.00
C13    C     0.74070   0.61612   0.31515   0.01267  Uiso   1.00
C14    C     0.70539   0.55072   0.26443   0.01267  Uiso   1.00
C15    C     0.77634   0.55514   0.19804   0.01267  Uiso   1.00
C16    C     0.66059   0.61178   0.38535   0.01267  Uiso   1.00
C17    C     0.52735   0.16892   0.48009   0.01267  Uiso   1.00
C18    C     0.51413   0.08164   0.49098   0.01267  Uiso   1.00
C19    C     0.59283   0.04174   0.44763   0.01267  Uiso   1.00
C20    C     0.42128   0.03946   0.54326   0.01267  Uiso   1.00
C21    C     0.71605   0.40754   0.53730   0.01267  Uiso   1.00
C22    C     0.86246   0.45642   0.51820   0.01267  Uiso   1.00
C23    C     0.97668   0.45950   0.56555   0.01267  Uiso   1.00
C24    C     0.88598   0.49692   0.45269   0.01267  Uiso   1.00
C25    C     0.32536   0.36970   0.39000   0.01267  Uiso   1.00
C26    C     0.25862   0.37516   0.31748   0.01267  Uiso   1.00
C27    C     0.23182   0.31032   0.26593   0.01267  Uiso   1.00
C28    C     0.16372   0.31434   0.19988   0.01267  Uiso   1.00
C29    C     0.12458   0.38388   0.18485   0.01267  Uiso   1.00
C30    C     0.15467   0.44928   0.23557   0.01267  Uiso   1.00
C31    C     0.22120   0.44486   0.30196   0.01267  Uiso   1.00
C32    C     0.04881   0.38822   0.11465   0.01267  Uiso   1.00
C33    C     0.64157   0.16892   0.98009   0.01267  Uiso   1.00
C34    C     0.56751   0.08164   0.99098   0.01267  Uiso   1.00
C35    C     0.44891   0.04174   0.94763   0.01267  Uiso   1.00
C36    C     0.61818   0.03946   0.04326   0.01267  Uiso   1.00
C37    C     0.69149   0.40754   0.03730   0.01267  Uiso   1.00
C38    C     0.59396   0.45642   0.01820   0.01267  Uiso   1.00
C39    C     0.48282   0.45950   0.06555   0.01267  Uiso   1.00
C40    C     0.61094   0.49692   0.95269   0.01267  Uiso   1.00
C41    C     0.04434   0.36970   0.89000   0.01267  Uiso   1.00
C42    C     0.11654   0.37516   0.81748   0.01267  Uiso   1.00
C43    C     0.07850   0.31032   0.76593   0.01267  Uiso   1.00
C44    C     0.15062   0.31434   0.69988   0.01267  Uiso   1.00
C45    C     0.25930   0.38388   0.68485   0.01267  Uiso   1.00
C46    C     0.29461   0.44928   0.73557   0.01267  Uiso   1.00
C47    C     0.22366   0.44486   0.80196   0.01267  Uiso   1.00
C48    C     0.33941   0.38822   0.61465   0.01267  Uiso   1.00
C49    C     0.47265   0.83108   0.51991   0.01267  Uiso   1.00
C50    C     0.48587   0.91836   0.50902   0.01267  Uiso   1.00
C51    C     0.40717   0.95826   0.55237   0.01267  Uiso   1.00
C52    C     0.57872   0.96054   0.45674   0.01267  Uiso   1.00
C53    C     0.28395   0.59246   0.46270   0.01267  Uiso   1.00
C54    C     0.13754   0.54358   0.48180   0.01267  Uiso   1.00
C55    C     0.02332   0.54050   0.43445   0.01267  Uiso   1.00
C56    C     0.11402   0.50308   0.54731   0.01267  Uiso   1.00
C57    C     0.67464   0.63030   0.61000   0.01267  Uiso   1.00
C58    C     0.74138   0.62484   0.68252   0.01267  Uiso   1.00
C59    C     0.76818   0.68968   0.73407   0.01267  Uiso   1.00
C60    C     0.83628   0.68566   0.80012   0.01267  Uiso   1.00
C61    C     0.87542   0.61612   0.81515   0.01267  Uiso   1.00
C62    C     0.84533   0.55072   0.76443   0.01267  Uiso   1.00
C63    C     0.77880   0.55514   0.69804   0.01267  Uiso   1.00
C64    C     0.95119   0.61178   0.88535   0.01267  Uiso   1.00
O1     O     0.25627   0.79826   0.97381   0.01267  Uiso   1.00
O2     O     0.39340   0.79468   0.07045   0.01267  Uiso   1.00
O3     O     0.20770   0.59298   0.00893   0.01267  Uiso   1.00
O4     O     0.32842   0.63228   0.90685   0.01267  Uiso   1.00
O5     O     0.05638   0.69342   0.09970   0.01267  Uiso   1.00
O6     O     0.91070   0.57336   0.06305   0.01267  Uiso   1.00
O7     O     0.67047   0.67830   0.41982   0.01267  Uiso   1.00
O8     O     0.58965   0.54322   0.40412   0.01267  Uiso   1.00
O9     O     0.45801   0.20174   0.52619   0.01267  Uiso   1.00
O10    O     0.59872   0.20532   0.42955   0.01267  Uiso   1.00
O11    O     0.61472   0.40702   0.49107   0.01267  Uiso   1.00
O12    O     0.69614   0.36772   0.59315   0.01267  Uiso   1.00
O13    O     0.36296   0.30658   0.40030   0.01267  Uiso   1.00
O14    O     0.33734   0.42664   0.43695   0.01267  Uiso   1.00
O15    O     0.99217   0.32170   0.08018   0.01267  Uiso   1.00
O16    O     0.04643   0.45678   0.09588   0.01267  Uiso   1.00
O17    O     0.74373   0.20174   0.02619   0.01267  Uiso   1.00
O18    O     0.60660   0.20532   0.92955   0.01267  Uiso   1.00
O19    O     0.79230   0.40702   0.99107   0.01267  Uiso   1.00
O20    O     0.67158   0.36772   0.09315   0.01267  Uiso   1.00
O21    O     0.94362   0.30658   0.90030   0.01267  Uiso   1.00
O22    O     0.08930   0.42664   0.93695   0.01267  Uiso   1.00
O23    O     0.32953   0.32170   0.58018   0.01267  Uiso   1.00
O24    O     0.41035   0.45678   0.59588   0.01267  Uiso   1.00
O25    O     0.54199   0.79826   0.47381   0.01267  Uiso   1.00
O26    O     0.40128   0.79468   0.57045   0.01267  Uiso   1.00
O27    O     0.38528   0.59298   0.50893   0.01267  Uiso   1.00
O28    O     0.30386   0.63228   0.40685   0.01267  Uiso   1.00
O29    O     0.63704   0.69342   0.59970   0.01267  Uiso   1.00
O30    O     0.66266   0.57336   0.56305   0.01267  Uiso   1.00
O31    O     0.00783   0.67830   0.91982   0.01267  Uiso   1.00
O32    O     0.95357   0.54322   0.90412   0.01267  Uiso   1.00
H33    H     0.43446   0.78542   0.83466   0.01267  Uiso   1.00
H34    H     0.28986   0.70734   0.84081   0.01267  Uiso   1.00
H35    H     0.44672   0.75698   0.70353   0.01267  Uiso   1.00
H36    H     0.46552   0.67894   0.75834   0.01267  Uiso   1.00
H37    H     0.20215   0.68412   0.67624   0.01267  Uiso   1.00
H38    H     0.30786   0.62100   0.65753   0.01267  Uiso   1.00
H39    H     0.20737   0.61046   0.73651   0.01267  Uiso   1.00
H40    H     0.16178   0.77222   0.75704   0.01267  Uiso   1.00
H41    H     0.21036   0.82224   0.84371   0.01267  Uiso   1.00
H42    H     0.36939   0.86418   0.70268   0.01267  Uiso   1.00
H43    H     0.26874   0.91872   0.74761   0.01267  Uiso   1.00
H44    H     0.42440   0.91108   0.78725   0.01267  Uiso   1.00
C65    C     0.39063   0.71104   0.74075   0.01267  Uiso   1.00
C66    C     0.26792   0.65226   0.69974   0.01267  Uiso   1.00
C67    C     0.25211   0.80498   0.79191   0.01267  Uiso   1.00
C68    C     0.33438   0.88020   0.75461   0.01267  Uiso   1.00
N1     N     0.34422   0.75152   0.80657   0.01267  Uiso   1.00
H45    H     0.64904   0.21458   0.66534   0.01267  Uiso   1.00
H46    H     0.58252   0.29266   0.65919   0.01267  Uiso   1.00
H47    H     0.68974   0.24302   0.79647   0.01267  Uiso   1.00
H48    H     0.78658   0.32106   0.74166   0.01267  Uiso   1.00
H49    H     0.51803   0.31588   0.82376   0.01267  Uiso   1.00
H50    H     0.68686   0.37900   0.84247   0.01267  Uiso   1.00
H51    H     0.59691   0.38954   0.76349   0.01267  Uiso   1.00
H52    H     0.38956   0.22778   0.74296   0.01267  Uiso   1.00
H53    H     0.38812   0.17776   0.65629   0.01267  Uiso   1.00
H54    H     0.50521   0.13582   0.79732   0.01267  Uiso   1.00
H55    H     0.35002   0.08128   0.75239   0.01267  Uiso   1.00
H56    H     0.51332   0.08892   0.71275   0.01267  Uiso   1.00
C69    C     0.67959   0.28896   0.75925   0.01267  Uiso   1.00
C70    C     0.61566   0.34774   0.80026   0.01267  Uiso   1.00
C71    C     0.44713   0.19502   0.70809   0.01267  Uiso   1.00
C72    C     0.45418   0.11980   0.74539   0.01267  Uiso   1.00
N2     N     0.59270   0.24848   0.69343   0.01267  Uiso   1.00
H57    H     0.56554   0.21458   0.16534   0.01267  Uiso   1.00
H58    H     0.71014   0.29266   0.15919   0.01267  Uiso   1.00
H59    H     0.55328   0.24302   0.29647   0.01267  Uiso   1.00
H60    H     0.53448   0.32106   0.24166   0.01267  Uiso   1.00
H61    H     0.79785   0.31588   0.32376   0.01267  Uiso   1.00
H62    H     0.69214   0.37900   0.34247   0.01267  Uiso   1.00
H63    H     0.79263   0.38954   0.26349   0.01267  Uiso   1.00
H64    H     0.83822   0.22778   0.24296   0.01267  Uiso   1.00
H65    H     0.78964   0.17776   0.15629   0.01267  Uiso   1.00
H66    H     0.63061   0.13582   0.29732   0.01267  Uiso   1.00
H67    H     0.73126   0.08128   0.25239   0.01267  Uiso   1.00
H68    H     0.57560   0.08892   0.21275   0.01267  Uiso   1.00
C73    C     0.60937   0.28896   0.25925   0.01267  Uiso   1.00
C74    C     0.73208   0.34774   0.30026   0.01267  Uiso   1.00
C75    C     0.74789   0.19502   0.20809   0.01267  Uiso   1.00
C76    C     0.66562   0.11980   0.24539   0.01267  Uiso   1.00
N3     N     0.65578   0.24848   0.19343   0.01267  Uiso   1.00
H69    H     0.35096   0.78542   0.33466   0.01267  Uiso   1.00
H70    H     0.41748   0.70734   0.34081   0.01267  Uiso   1.00
H71    H     0.31026   0.75698   0.20353   0.01267  Uiso   1.00
H72    H     0.21342   0.67894   0.25834   0.01267  Uiso   1.00
H73    H     0.48197   0.68412   0.17624   0.01267  Uiso   1.00
H74    H     0.31314   0.62100   0.15753   0.01267  Uiso   1.00
H75    H     0.40309   0.61046   0.23651   0.01267  Uiso   1.00
H76    H     0.61044   0.77222   0.25704   0.01267  Uiso   1.00
H77    H     0.61188   0.82224   0.34371   0.01267  Uiso   1.00
H78    H     0.49479   0.86418   0.20268   0.01267  Uiso   1.00
H79    H     0.64998   0.91872   0.24761   0.01267  Uiso   1.00
H80    H     0.48668   0.91108   0.28725   0.01267  Uiso   1.00
C77    C     0.32041   0.71104   0.24075   0.01267  Uiso   1.00
C78    C     0.38434   0.65226   0.19974   0.01267  Uiso   1.00
C79    C     0.55287   0.80498   0.29191   0.01267  Uiso   1.00
C80    C     0.54582   0.88020   0.25461   0.01267  Uiso   1.00
N4     N     0.40730   0.75152   0.30657   0.01267  Uiso   1.00
