data_VEGMIE_charged
_audit_creation_date              2014-07-02
_audit_creation_method            'Materials Studio'
_symmetry_space_group_name_H-M    'P1'
_symmetry_Int_Tables_number       1
_symmetry_cell_setting            triclinic
loop_
_symmetry_equiv_pos_as_xyz
  x,y,z
_cell_length_a                    9.8340
_cell_length_b                    17.3661
_cell_length_c                    18.2960
_cell_angle_alpha                 92.2538
_cell_angle_beta                  90.0000
_cell_angle_gamma                 106.4480
loop_
_atom_site_label
_atom_site_type_symbol
_atom_site_fract_x
_atom_site_fract_y
_atom_site_fract_z
_atom_site_U_iso_or_equiv
_atom_site_adp_type
_atom_site_occupancy
Co1    Co    0.14521   0.69234   0.00173   0.01267  Uiso   1.00
Co2    Co    0.45287   0.30766   0.49827   0.01267  Uiso   1.00
Co3    Co    0.85479   0.30766   0.99827   0.01267  Uiso   1.00
Co4    Co    0.54713   0.69234   0.50173   0.01267  Uiso   1.00
Co5    Co    0.00000   0.50000   0.00000   0.01267  Uiso   1.00
Co6    Co    0.50000   0.50000   0.50000   0.01267  Uiso   1.00
H1     H     0.58380   0.93040   0.08680   0.01267  Uiso   1.00
H2     H     0.30340   0.93580   0.92850   0.01267  Uiso   1.00
H3     H     0.52740   0.56680   0.89090   0.01267  Uiso   1.00
H4     H     0.31620   0.50520   0.07870   0.01267  Uiso   1.00
H5     H     0.99290   0.73460   0.22370   0.01267  Uiso   1.00
H6     H     0.87140   0.72860   0.33310   0.01267  Uiso   1.00
H7     H     0.63500   0.50440   0.27520   0.01267  Uiso   1.00
H8     H     0.75260   0.51220   0.16430   0.01267  Uiso   1.00
H9     H     0.65340   0.06960   0.41320   0.01267  Uiso   1.00
H10    H     0.36760   0.06420   0.57150   0.01267  Uiso   1.00
H11    H     0.96060   0.43320   0.60910   0.01267  Uiso   1.00
H12    H     0.81100   0.49480   0.42130   0.01267  Uiso   1.00
H13    H     0.25830   0.26540   0.27630   0.01267  Uiso   1.00
H14    H     0.14280   0.27140   0.16690   0.01267  Uiso   1.00
H15    H     0.13060   0.49560   0.22480   0.01267  Uiso   1.00
H16    H     0.24040   0.48780   0.33570   0.01267  Uiso   1.00
H17    H     0.41620   0.06960   0.91320   0.01267  Uiso   1.00
H18    H     0.69660   0.06420   0.07150   0.01267  Uiso   1.00
H19    H     0.47260   0.43320   0.10910   0.01267  Uiso   1.00
H20    H     0.68380   0.49480   0.92130   0.01267  Uiso   1.00
H21    H     0.00710   0.26540   0.77630   0.01267  Uiso   1.00
H22    H     0.12860   0.27140   0.66690   0.01267  Uiso   1.00
H23    H     0.36500   0.49560   0.72480   0.01267  Uiso   1.00
H24    H     0.24740   0.48780   0.83570   0.01267  Uiso   1.00
H25    H     0.34660   0.93040   0.58680   0.01267  Uiso   1.00
H26    H     0.63240   0.93580   0.42850   0.01267  Uiso   1.00
H27    H     0.03940   0.56680   0.39090   0.01267  Uiso   1.00
H28    H     0.18900   0.50520   0.57870   0.01267  Uiso   1.00
H29    H     0.74170   0.73460   0.72370   0.01267  Uiso   1.00
H30    H     0.85720   0.72860   0.83310   0.01267  Uiso   1.00
H31    H     0.86940   0.50440   0.77520   0.01267  Uiso   1.00
H32    H     0.75960   0.51220   0.66430   0.01267  Uiso   1.00
C1     C     0.35740   0.83120   0.02009   0.01267  Uiso   1.00
C2     C     0.43124   0.91808   0.00916   0.01267  Uiso   1.00
C3     C     0.54994   0.95808   0.05193   0.01267  Uiso   1.00
C4     C     0.38246   0.96152   0.95726   0.01267  Uiso   1.00
C5     C     0.30911   0.59242   0.96292   0.01267  Uiso   1.00
C6     C     0.40622   0.54364   0.98194   0.01267  Uiso   1.00
C7     C     0.51664   0.54008   0.93456   0.01267  Uiso   1.00
C8     C     0.38969   0.50318   0.04732   0.01267  Uiso   1.00
C9     C     0.95517   0.62974   0.10964   0.01267  Uiso   1.00
C10    C     0.88236   0.62452   0.18228   0.01267  Uiso   1.00
C11    C     0.91973   0.68906   0.23358   0.01267  Uiso   1.00
C12    C     0.84777   0.68534   0.29944   0.01267  Uiso   1.00
C13    C     0.73981   0.61622   0.31468   0.01267  Uiso   1.00
C14    C     0.70522   0.55084   0.26445   0.01267  Uiso   1.00
C15    C     0.77633   0.55546   0.19805   0.01267  Uiso   1.00
C16    C     0.66013   0.61186   0.38493   0.01267  Uiso   1.00
C17    C     0.52620   0.16880   0.47991   0.01267  Uiso   1.00
C18    C     0.51316   0.08192   0.49084   0.01267  Uiso   1.00
C19    C     0.59186   0.04192   0.44807   0.01267  Uiso   1.00
C20    C     0.42094   0.03848   0.54274   0.01267  Uiso   1.00
C21    C     0.71669   0.40758   0.53708   0.01267  Uiso   1.00
C22    C     0.86258   0.45636   0.51806   0.01267  Uiso   1.00
C23    C     0.97656   0.45992   0.56544   0.01267  Uiso   1.00
C24    C     0.88651   0.49682   0.45268   0.01267  Uiso   1.00
C25    C     0.32543   0.37026   0.39036   0.01267  Uiso   1.00
C26    C     0.25784   0.37548   0.31772   0.01267  Uiso   1.00
C27    C     0.23067   0.31094   0.26642   0.01267  Uiso   1.00
C28    C     0.16243   0.31466   0.20056   0.01267  Uiso   1.00
C29    C     0.12359   0.38378   0.18532   0.01267  Uiso   1.00
C30    C     0.15438   0.44916   0.23555   0.01267  Uiso   1.00
C31    C     0.22087   0.44454   0.30195   0.01267  Uiso   1.00
C32    C     0.04827   0.38814   0.11507   0.01267  Uiso   1.00
C33    C     0.64260   0.16880   0.97991   0.01267  Uiso   1.00
C34    C     0.56876   0.08192   0.99084   0.01267  Uiso   1.00
C35    C     0.45006   0.04192   0.94807   0.01267  Uiso   1.00
C36    C     0.61754   0.03848   0.04274   0.01267  Uiso   1.00
C37    C     0.69089   0.40758   0.03708   0.01267  Uiso   1.00
C38    C     0.59378   0.45636   0.01806   0.01267  Uiso   1.00
C39    C     0.48336   0.45992   0.06544   0.01267  Uiso   1.00
C40    C     0.61031   0.49682   0.95268   0.01267  Uiso   1.00
C41    C     0.04483   0.37026   0.89036   0.01267  Uiso   1.00
C42    C     0.11764   0.37548   0.81772   0.01267  Uiso   1.00
C43    C     0.08027   0.31094   0.76642   0.01267  Uiso   1.00
C44    C     0.15223   0.31466   0.70056   0.01267  Uiso   1.00
C45    C     0.26019   0.38378   0.68532   0.01267  Uiso   1.00
C46    C     0.29478   0.44916   0.73555   0.01267  Uiso   1.00
C47    C     0.22367   0.44454   0.80195   0.01267  Uiso   1.00
C48    C     0.33987   0.38814   0.61507   0.01267  Uiso   1.00
C49    C     0.47380   0.83120   0.52009   0.01267  Uiso   1.00
C50    C     0.48684   0.91808   0.50916   0.01267  Uiso   1.00
C51    C     0.40814   0.95808   0.55193   0.01267  Uiso   1.00
C52    C     0.57906   0.96152   0.45726   0.01267  Uiso   1.00
C53    C     0.28331   0.59242   0.46292   0.01267  Uiso   1.00
C54    C     0.13742   0.54364   0.48194   0.01267  Uiso   1.00
C55    C     0.02344   0.54008   0.43456   0.01267  Uiso   1.00
C56    C     0.11349   0.50318   0.54732   0.01267  Uiso   1.00
C57    C     0.67457   0.62974   0.60964   0.01267  Uiso   1.00
C58    C     0.74216   0.62452   0.68228   0.01267  Uiso   1.00
C59    C     0.76933   0.68906   0.73358   0.01267  Uiso   1.00
C60    C     0.83757   0.68534   0.79944   0.01267  Uiso   1.00
C61    C     0.87641   0.61622   0.81468   0.01267  Uiso   1.00
C62    C     0.84562   0.55084   0.76445   0.01267  Uiso   1.00
C63    C     0.77913   0.55546   0.69805   0.01267  Uiso   1.00
C64    C     0.95173   0.61186   0.88493   0.01267  Uiso   1.00
O1     O     0.25462   0.79864   0.97449   0.01267  Uiso   1.00
O2     O     0.39243   0.79466   0.07006   0.01267  Uiso   1.00
O3     O     0.20767   0.59294   0.00895   0.01267  Uiso   1.00
O4     O     0.32923   0.63266   0.90717   0.01267  Uiso   1.00
O5     O     0.05534   0.69328   0.09857   0.01267  Uiso   1.00
O6     O     0.91068   0.57276   0.06307   0.01267  Uiso   1.00
O7     O     0.66854   0.67828   0.41889   0.01267  Uiso   1.00
O8     O     0.59008   0.54316   0.40394   0.01267  Uiso   1.00
O9     O     0.45598   0.20136   0.52551   0.01267  Uiso   1.00
O10    O     0.59777   0.20534   0.42994   0.01267  Uiso   1.00
O11    O     0.61473   0.40706   0.49105   0.01267  Uiso   1.00
O12    O     0.69657   0.36734   0.59283   0.01267  Uiso   1.00
O13    O     0.36206   0.30672   0.40143   0.01267  Uiso   1.00
O14    O     0.33792   0.42724   0.43693   0.01267  Uiso   1.00
O15    O     0.99026   0.32172   0.08111   0.01267  Uiso   1.00
O16    O     0.04692   0.45684   0.09606   0.01267  Uiso   1.00
O17    O     0.74538   0.20136   0.02551   0.01267  Uiso   1.00
O18    O     0.60757   0.20534   0.92994   0.01267  Uiso   1.00
O19    O     0.79233   0.40706   0.99105   0.01267  Uiso   1.00
O20    O     0.67077   0.36734   0.09283   0.01267  Uiso   1.00
O21    O     0.94466   0.30672   0.90143   0.01267  Uiso   1.00
O22    O     0.08932   0.42724   0.93693   0.01267  Uiso   1.00
O23    O     0.33146   0.32172   0.58111   0.01267  Uiso   1.00
O24    O     0.40992   0.45684   0.59606   0.01267  Uiso   1.00
O25    O     0.54402   0.79864   0.47449   0.01267  Uiso   1.00
O26    O     0.40223   0.79466   0.57006   0.01267  Uiso   1.00
O27    O     0.38527   0.59294   0.50895   0.01267  Uiso   1.00
O28    O     0.30343   0.63266   0.40717   0.01267  Uiso   1.00
O29    O     0.63794   0.69328   0.59857   0.01267  Uiso   1.00
O30    O     0.66208   0.57276   0.56307   0.01267  Uiso   1.00
O31    O     0.00974   0.67828   0.91889   0.01267  Uiso   1.00
O32    O     0.95308   0.54316   0.90394   0.01267  Uiso   1.00
H33    H     0.42300   0.78160   0.83060   0.01267  Uiso   1.00
H34    H     0.29700   0.71460   0.83730   0.01267  Uiso   1.00
H35    H     0.45410   0.68240   0.75660   0.01267  Uiso   1.00
H36    H     0.43630   0.75080   0.70740   0.01267  Uiso   1.00
H37    H     0.20890   0.68080   0.67830   0.01267  Uiso   1.00
H38    H     0.30120   0.62120   0.66580   0.01267  Uiso   1.00
H39    H     0.20920   0.61680   0.73630   0.01267  Uiso   1.00
H40    H     0.17380   0.77740   0.76100   0.01267  Uiso   1.00
H41    H     0.21630   0.82140   0.83780   0.01267  Uiso   1.00
H42    H     0.37010   0.86580   0.70830   0.01267  Uiso   1.00
H43    H     0.27940   0.91580   0.74770   0.01267  Uiso   1.00
H44    H     0.41850   0.90840   0.78490   0.01267  Uiso   1.00
C65    C     0.38760   0.71060   0.74110   0.01267  Uiso   1.00
C66    C     0.26585   0.65210   0.70190   0.01267  Uiso   1.00
C67    C     0.25343   0.80606   0.79210   0.01267  Uiso   1.00
C68    C     0.33816   0.88092   0.75480   0.01267  Uiso   1.00
N1     N     0.34403   0.75226   0.80690   0.01267  Uiso   1.00
H45    H     0.64140   0.21840   0.66940   0.01267  Uiso   1.00
H46    H     0.58240   0.28540   0.66270   0.01267  Uiso   1.00
H47    H     0.77170   0.31760   0.74340   0.01267  Uiso   1.00
H48    H     0.68550   0.24920   0.79260   0.01267  Uiso   1.00
H49    H     0.52810   0.31920   0.82170   0.01267  Uiso   1.00
H50    H     0.68000   0.37880   0.83420   0.01267  Uiso   1.00
H51    H     0.59240   0.38320   0.76370   0.01267  Uiso   1.00
H52    H     0.39640   0.22260   0.73900   0.01267  Uiso   1.00
H53    H     0.39490   0.17860   0.66220   0.01267  Uiso   1.00
H54    H     0.50430   0.13420   0.79170   0.01267  Uiso   1.00
H55    H     0.36360   0.08420   0.75230   0.01267  Uiso   1.00
H56    H     0.51010   0.09160   0.71510   0.01267  Uiso   1.00
C69    C     0.67700   0.28940   0.75890   0.01267  Uiso   1.00
C70    C     0.61375   0.34790   0.79810   0.01267  Uiso   1.00
C71    C     0.44737   0.19394   0.70790   0.01267  Uiso   1.00
C72    C     0.45724   0.11908   0.74520   0.01267  Uiso   1.00
N2     N     0.59177   0.24774   0.69310   0.01267  Uiso   1.00
H57    H     0.57700   0.21840   0.16940   0.01267  Uiso   1.00
H58    H     0.70300   0.28540   0.16270   0.01267  Uiso   1.00
H59    H     0.54590   0.31760   0.24340   0.01267  Uiso   1.00
H60    H     0.56370   0.24920   0.29260   0.01267  Uiso   1.00
H61    H     0.79110   0.31920   0.32170   0.01267  Uiso   1.00
H62    H     0.69880   0.37880   0.33420   0.01267  Uiso   1.00
H63    H     0.79080   0.38320   0.26370   0.01267  Uiso   1.00
H64    H     0.82620   0.22260   0.23900   0.01267  Uiso   1.00
H65    H     0.78370   0.17860   0.16220   0.01267  Uiso   1.00
H66    H     0.62990   0.13420   0.29170   0.01267  Uiso   1.00
H67    H     0.72060   0.08420   0.25230   0.01267  Uiso   1.00
H68    H     0.58150   0.09160   0.21510   0.01267  Uiso   1.00
C73    C     0.61240   0.28940   0.25890   0.01267  Uiso   1.00
C74    C     0.73415   0.34790   0.29810   0.01267  Uiso   1.00
C75    C     0.74657   0.19394   0.20790   0.01267  Uiso   1.00
C76    C     0.66184   0.11908   0.24520   0.01267  Uiso   1.00
N3     N     0.65597   0.24774   0.19310   0.01267  Uiso   1.00
H69    H     0.35860   0.78160   0.33060   0.01267  Uiso   1.00
H70    H     0.41760   0.71460   0.33730   0.01267  Uiso   1.00
H71    H     0.22830   0.68240   0.25660   0.01267  Uiso   1.00
H72    H     0.31450   0.75080   0.20740   0.01267  Uiso   1.00
H73    H     0.47190   0.68080   0.17830   0.01267  Uiso   1.00
H74    H     0.32000   0.62120   0.16580   0.01267  Uiso   1.00
H75    H     0.40760   0.61680   0.23630   0.01267  Uiso   1.00
H76    H     0.60360   0.77740   0.26100   0.01267  Uiso   1.00
H77    H     0.60510   0.82140   0.33780   0.01267  Uiso   1.00
H78    H     0.49570   0.86580   0.20830   0.01267  Uiso   1.00
H79    H     0.63640   0.91580   0.24770   0.01267  Uiso   1.00
H80    H     0.48990   0.90840   0.28490   0.01267  Uiso   1.00
C77    C     0.32300   0.71060   0.24110   0.01267  Uiso   1.00
C78    C     0.38625   0.65210   0.20190   0.01267  Uiso   1.00
C79    C     0.55263   0.80606   0.29210   0.01267  Uiso   1.00
C80    C     0.54276   0.88092   0.25480   0.01267  Uiso   1.00
N4     N     0.40823   0.75226   0.30690   0.01267  Uiso   1.00
