data_VEGXIQ_clean
_audit_creation_date              2014-07-02
_audit_creation_method            'Materials Studio'
_symmetry_space_group_name_H-M    'P1'
_symmetry_Int_Tables_number       1
_symmetry_cell_setting            triclinic
loop_
_symmetry_equiv_pos_as_xyz
  x,y,z
_cell_length_a                    7.3160
_cell_length_b                    16.5330
_cell_length_c                    32.0230
_cell_angle_alpha                 90.0000
_cell_angle_beta                  90.0000
_cell_angle_gamma                 99.9100
loop_
_atom_site_label
_atom_site_type_symbol
_atom_site_fract_x
_atom_site_fract_y
_atom_site_fract_z
_atom_site_U_iso_or_equiv
_atom_site_adp_type
_atom_site_occupancy
Mn1    Mn    0.74763   0.60146   0.07068   0.01267  Uiso   1.00
Mn2    Mn    0.27354   0.62514   0.07365   0.01267  Uiso   1.00
Mn3    Mn    0.25237   0.89854   0.57068   0.01267  Uiso   1.00
Mn4    Mn    0.72646   0.87486   0.57365   0.01267  Uiso   1.00
Mn5    Mn    0.25237   0.39854   0.92932   0.01267  Uiso   1.00
Mn6    Mn    0.72646   0.37486   0.92635   0.01267  Uiso   1.00
Mn7    Mn    0.74763   0.10146   0.42932   0.01267  Uiso   1.00
Mn8    Mn    0.27354   0.12514   0.42635   0.01267  Uiso   1.00
Mn9    Mn    0.00000   0.50000   0.00000   0.01267  Uiso   1.00
Mn10   Mn    0.00000   0.00000   0.50000   0.01267  Uiso   1.00
Mn11   Mn    0.50000   0.50000   0.00000   0.01267  Uiso   1.00
Mn12   Mn    0.50000  -0.00000   0.50000   0.01267  Uiso   1.00
H1     H     0.15010   0.76790   0.00300   0.01267  Uiso   1.00
H2     H     0.05810   0.87510   0.96670   0.01267  Uiso   1.00
H3     H     0.20560   0.78150   0.85810   0.01267  Uiso   1.00
H4     H     0.32720   0.68120   0.89500   0.01267  Uiso   1.00
H5     H     0.43900   0.50400   0.07750   0.01267  Uiso   1.00
H6     H     0.79000   0.61400   0.99720   0.01267  Uiso   1.00
H7     H     0.89480   0.04730   0.90820   0.01267  Uiso   1.00
H8     H     0.04500   0.17490   0.93130   0.01267  Uiso   1.00
H9     H     0.53420   0.09470   0.92790   0.01267  Uiso   1.00
H10    H     0.38290   0.96550   0.90730   0.01267  Uiso   1.00
H11    H     0.22600   0.38970   0.09890   0.01267  Uiso   1.00
H12    H     0.39800   0.34240   0.15180   0.01267  Uiso   1.00
H13    H     0.10410   0.44480   0.23790   0.01267  Uiso   1.00
H14    H     0.92610   0.48810   0.18510   0.01267  Uiso   1.00
H15    H     0.06230   0.26820   0.23620   0.01267  Uiso   1.00
H16    H     0.87810   0.19900   0.28910   0.01267  Uiso   1.00
H17    H     0.26030   0.29720   0.37450   0.01267  Uiso   1.00
H18    H     0.43600   0.37040   0.32210   0.01267  Uiso   1.00
H19    H     0.84990   0.73210   0.50300   0.01267  Uiso   1.00
H20    H     0.94190   0.62490   0.46670   0.01267  Uiso   1.00
H21    H     0.79440   0.71850   0.35810   0.01267  Uiso   1.00
H22    H     0.67280   0.81880   0.39500   0.01267  Uiso   1.00
H23    H     0.56100   0.99600   0.57750   0.01267  Uiso   1.00
H24    H     0.21000   0.88600   0.49720   0.01267  Uiso   1.00
H25    H     0.10520   0.45270   0.40820   0.01267  Uiso   1.00
H26    H     0.95500   0.32510   0.43130   0.01267  Uiso   1.00
H27    H     0.46580   0.40530   0.42790   0.01267  Uiso   1.00
H28    H     0.61710   0.53450   0.40730   0.01267  Uiso   1.00
H29    H     0.77400   0.11030   0.59890   0.01267  Uiso   1.00
H30    H     0.60200   0.15760   0.65180   0.01267  Uiso   1.00
H31    H     0.89590   0.05520   0.73790   0.01267  Uiso   1.00
H32    H     0.07390   0.01190   0.68510   0.01267  Uiso   1.00
H33    H     0.93770   0.23180   0.73620   0.01267  Uiso   1.00
H34    H     0.12190   0.30100   0.78910   0.01267  Uiso   1.00
H35    H     0.73970   0.20280   0.87450   0.01267  Uiso   1.00
H36    H     0.56400   0.12960   0.82210   0.01267  Uiso   1.00
H37    H     0.84990   0.23210   0.99700   0.01267  Uiso   1.00
H38    H     0.94190   0.12490   0.03330   0.01267  Uiso   1.00
H39    H     0.79440   0.21850   0.14190   0.01267  Uiso   1.00
H40    H     0.67280   0.31880   0.10500   0.01267  Uiso   1.00
H41    H     0.56100   0.49600   0.92250   0.01267  Uiso   1.00
H42    H     0.21000   0.38600   0.00280   0.01267  Uiso   1.00
H43    H     0.10520   0.95270   0.09180   0.01267  Uiso   1.00
H44    H     0.95500   0.82510   0.06870   0.01267  Uiso   1.00
H45    H     0.46580   0.90530   0.07210   0.01267  Uiso   1.00
H46    H     0.61710   0.03450   0.09270   0.01267  Uiso   1.00
H47    H     0.77400   0.61030   0.90110   0.01267  Uiso   1.00
H48    H     0.60200   0.65760   0.84820   0.01267  Uiso   1.00
H49    H     0.89590   0.55520   0.76210   0.01267  Uiso   1.00
H50    H     0.07390   0.51190   0.81490   0.01267  Uiso   1.00
H51    H     0.93770   0.73180   0.76380   0.01267  Uiso   1.00
H52    H     0.12190   0.80100   0.71090   0.01267  Uiso   1.00
H53    H     0.73970   0.70280   0.62550   0.01267  Uiso   1.00
H54    H     0.56400   0.62960   0.67790   0.01267  Uiso   1.00
H55    H     0.15010   0.26790   0.49700   0.01267  Uiso   1.00
H56    H     0.05810   0.37510   0.53330   0.01267  Uiso   1.00
H57    H     0.20560   0.28150   0.64190   0.01267  Uiso   1.00
H58    H     0.32720   0.18120   0.60500   0.01267  Uiso   1.00
H59    H     0.43900   0.00400   0.42250   0.01267  Uiso   1.00
H60    H     0.79000   0.11400   0.50280   0.01267  Uiso   1.00
H61    H     0.89480   0.54730   0.59180   0.01267  Uiso   1.00
H62    H     0.04500   0.67490   0.56870   0.01267  Uiso   1.00
H63    H     0.53420   0.59470   0.57210   0.01267  Uiso   1.00
H64    H     0.38290   0.46550   0.59270   0.01267  Uiso   1.00
H65    H     0.22600   0.88970   0.40110   0.01267  Uiso   1.00
H66    H     0.39800   0.84240   0.34820   0.01267  Uiso   1.00
H67    H     0.10410   0.94480   0.26210   0.01267  Uiso   1.00
H68    H     0.92610   0.98810   0.31490   0.01267  Uiso   1.00
H69    H     0.06230   0.76820   0.26380   0.01267  Uiso   1.00
H70    H     0.87810   0.69900   0.21090   0.01267  Uiso   1.00
H71    H     0.26030   0.79720   0.12550   0.01267  Uiso   1.00
H72    H     0.43600   0.87040   0.17790   0.01267  Uiso   1.00
C1     C     0.30630   0.64320   0.97616   0.01267  Uiso   1.00
C2     C     0.24900   0.71360   0.95270   0.01267  Uiso   1.00
C3     C     0.16570   0.77160   0.97404   0.01267  Uiso   1.00
C4     C     0.10640   0.83460   0.95210   0.01267  Uiso   1.00
C5     C     0.11750   0.83870   0.90830   0.01267  Uiso   1.00
C6     C     0.19810   0.78000   0.88726   0.01267  Uiso   1.00
C7     C     0.26800   0.71870   0.90929   0.01267  Uiso   1.00
C8     C     0.03420   0.90800   0.88679   0.01267  Uiso   1.00
C9     C     0.07100   0.91330   0.83883   0.01267  Uiso   1.00
C10    C     0.81920   0.88820   0.89312   0.01267  Uiso   1.00
C11    C     0.12200   0.99330   0.90482   0.01267  Uiso   1.00
C12    C     0.02330   0.05650   0.91225   0.01267  Uiso   1.00
C13    C     0.11350   0.13340   0.92571   0.01267  Uiso   1.00
C14    C     0.30680   0.14860   0.93082   0.01267  Uiso   1.00
C15    C     0.40560   0.08530   0.92400   0.01267  Uiso   1.00
C16    C     0.31510   0.00790   0.91139   0.01267  Uiso   1.00
C17    C     0.40150   0.23540   0.94126   0.01267  Uiso   1.00
C18    C     0.96030   0.48250   0.10266   0.01267  Uiso   1.00
C19    C     0.06160   0.44570   0.13645   0.01267  Uiso   1.00
C20    C     0.20180   0.40080   0.12677   0.01267  Uiso   1.00
C21    C     0.30520   0.37260   0.15847   0.01267  Uiso   1.00
C22    C     0.27090   0.38940   0.20034   0.01267  Uiso   1.00
C23    C     0.12830   0.43340   0.20998   0.01267  Uiso   1.00
C24    C     0.02300   0.46030   0.17833   0.01267  Uiso   1.00
C25    C     0.39120   0.36590   0.23679   0.01267  Uiso   1.00
C26    C     0.51110   0.30080   0.22390   0.01267  Uiso   1.00
C27    C     0.52440   0.44620   0.25010   0.01267  Uiso   1.00
C28    C     0.26910   0.32690   0.27358   0.01267  Uiso   1.00
C29    C     0.10130   0.27460   0.26404   0.01267  Uiso   1.00
C30    C     0.99170   0.23200   0.29565   0.01267  Uiso   1.00
C31    C     0.05350   0.23920   0.33702   0.01267  Uiso   1.00
C32    C     0.22000   0.29150   0.34677   0.01267  Uiso   1.00
C33    C     0.32580   0.33520   0.31530   0.01267  Uiso   1.00
C34    C     0.94350   0.18940   0.37060   0.01267  Uiso   1.00
C35    C     0.69370   0.85680   0.47616   0.01267  Uiso   1.00
C36    C     0.75100   0.78640   0.45270   0.01267  Uiso   1.00
C37    C     0.83430   0.72840   0.47404   0.01267  Uiso   1.00
C38    C     0.89360   0.66540   0.45210   0.01267  Uiso   1.00
C39    C     0.88250   0.66130   0.40830   0.01267  Uiso   1.00
C40    C     0.80190   0.72000   0.38726   0.01267  Uiso   1.00
C41    C     0.73200   0.78130   0.40929   0.01267  Uiso   1.00
C42    C     0.96580   0.59200   0.38679   0.01267  Uiso   1.00
C43    C     0.92900   0.58670   0.33883   0.01267  Uiso   1.00
C44    C     0.18080   0.61180   0.39312   0.01267  Uiso   1.00
C45    C     0.87800   0.50670   0.40482   0.01267  Uiso   1.00
C46    C     0.97670   0.44350   0.41225   0.01267  Uiso   1.00
C47    C     0.88650   0.36660   0.42571   0.01267  Uiso   1.00
C48    C     0.69320   0.35140   0.43082   0.01267  Uiso   1.00
C49    C     0.59440   0.41470   0.42400   0.01267  Uiso   1.00
C50    C     0.68490   0.49210   0.41139   0.01267  Uiso   1.00
C51    C     0.59850   0.26460   0.44126   0.01267  Uiso   1.00
C52    C     0.03970   0.01750   0.60266   0.01267  Uiso   1.00
C53    C     0.93840   0.05430   0.63645   0.01267  Uiso   1.00
C54    C     0.79820   0.09920   0.62677   0.01267  Uiso   1.00
C55    C     0.69480   0.12740   0.65847   0.01267  Uiso   1.00
C56    C     0.72910   0.11060   0.70034   0.01267  Uiso   1.00
C57    C     0.87170   0.06660   0.70998   0.01267  Uiso   1.00
C58    C     0.97700   0.03970   0.67833   0.01267  Uiso   1.00
C59    C     0.60880   0.13410   0.73679   0.01267  Uiso   1.00
C60    C     0.48890   0.19920   0.72390   0.01267  Uiso   1.00
C61    C     0.47560   0.05380   0.75010   0.01267  Uiso   1.00
C62    C     0.73090   0.17310   0.77358   0.01267  Uiso   1.00
C63    C     0.89870   0.22540   0.76404   0.01267  Uiso   1.00
C64    C     0.00830   0.26800   0.79565   0.01267  Uiso   1.00
C65    C     0.94650   0.26080   0.83702   0.01267  Uiso   1.00
C66    C     0.78000   0.20850   0.84677   0.01267  Uiso   1.00
C67    C     0.67420   0.16480   0.81530   0.01267  Uiso   1.00
C68    C     0.05650   0.31060   0.87060   0.01267  Uiso   1.00
C69    C     0.69370   0.35680   0.02384   0.01267  Uiso   1.00
C70    C     0.75100   0.28640   0.04730   0.01267  Uiso   1.00
C71    C     0.83430   0.22840   0.02596   0.01267  Uiso   1.00
C72    C     0.89360   0.16540   0.04790   0.01267  Uiso   1.00
C73    C     0.88250   0.16130   0.09170   0.01267  Uiso   1.00
C74    C     0.80190   0.22000   0.11274   0.01267  Uiso   1.00
C75    C     0.73200   0.28130   0.09071   0.01267  Uiso   1.00
C76    C     0.96580   0.09200   0.11321   0.01267  Uiso   1.00
C77    C     0.92900   0.08670   0.16117   0.01267  Uiso   1.00
C78    C     0.18080   0.11180   0.10688   0.01267  Uiso   1.00
C79    C     0.87800   0.00670   0.09518   0.01267  Uiso   1.00
C80    C     0.97670   0.94350   0.08775   0.01267  Uiso   1.00
C81    C     0.88650   0.86660   0.07429   0.01267  Uiso   1.00
C82    C     0.69320   0.85140   0.06918   0.01267  Uiso   1.00
C83    C     0.59440   0.91470   0.07600   0.01267  Uiso   1.00
C84    C     0.68490   0.99210   0.08861   0.01267  Uiso   1.00
C85    C     0.59850   0.76460   0.05874   0.01267  Uiso   1.00
C86    C     0.03970   0.51750   0.89734   0.01267  Uiso   1.00
C87    C     0.93840   0.55430   0.86355   0.01267  Uiso   1.00
C88    C     0.79820   0.59920   0.87323   0.01267  Uiso   1.00
C89    C     0.69480   0.62740   0.84153   0.01267  Uiso   1.00
C90    C     0.72910   0.61060   0.79966   0.01267  Uiso   1.00
C91    C     0.87170   0.56660   0.79002   0.01267  Uiso   1.00
C92    C     0.97700   0.53970   0.82167   0.01267  Uiso   1.00
C93    C     0.60880   0.63410   0.76321   0.01267  Uiso   1.00
C94    C     0.48890   0.69920   0.77610   0.01267  Uiso   1.00
C95    C     0.47560   0.55380   0.74990   0.01267  Uiso   1.00
C96    C     0.73090   0.67310   0.72642   0.01267  Uiso   1.00
C97    C     0.89870   0.72540   0.73596   0.01267  Uiso   1.00
C98    C     0.00830   0.76800   0.70435   0.01267  Uiso   1.00
C99    C     0.94650   0.76080   0.66298   0.01267  Uiso   1.00
C100   C     0.78000   0.70850   0.65323   0.01267  Uiso   1.00
C101   C     0.67420   0.66480   0.68470   0.01267  Uiso   1.00
C102   C     0.05650   0.81060   0.62940   0.01267  Uiso   1.00
C103   C     0.30630   0.14320   0.52384   0.01267  Uiso   1.00
C104   C     0.24900   0.21360   0.54730   0.01267  Uiso   1.00
C105   C     0.16570   0.27160   0.52596   0.01267  Uiso   1.00
C106   C     0.10640   0.33460   0.54790   0.01267  Uiso   1.00
C107   C     0.11750   0.33870   0.59170   0.01267  Uiso   1.00
C108   C     0.19810   0.28000   0.61274   0.01267  Uiso   1.00
C109   C     0.26800   0.21870   0.59071   0.01267  Uiso   1.00
C110   C     0.03420   0.40800   0.61321   0.01267  Uiso   1.00
C111   C     0.07100   0.41330   0.66117   0.01267  Uiso   1.00
C112   C     0.81920   0.38820   0.60688   0.01267  Uiso   1.00
C113   C     0.12200   0.49330   0.59518   0.01267  Uiso   1.00
C114   C     0.02330   0.55650   0.58775   0.01267  Uiso   1.00
C115   C     0.11350   0.63340   0.57429   0.01267  Uiso   1.00
C116   C     0.30680   0.64860   0.56918   0.01267  Uiso   1.00
C117   C     0.40560   0.58530   0.57600   0.01267  Uiso   1.00
C118   C     0.31510   0.50790   0.58861   0.01267  Uiso   1.00
C119   C     0.40150   0.73540   0.55874   0.01267  Uiso   1.00
C120   C     0.96030   0.98250   0.39734   0.01267  Uiso   1.00
C121   C     0.06160   0.94570   0.36355   0.01267  Uiso   1.00
C122   C     0.20180   0.90080   0.37323   0.01267  Uiso   1.00
C123   C     0.30520   0.87260   0.34153   0.01267  Uiso   1.00
C124   C     0.27090   0.88940   0.29966   0.01267  Uiso   1.00
C125   C     0.12830   0.93340   0.29002   0.01267  Uiso   1.00
C126   C     0.02300   0.96030   0.32167   0.01267  Uiso   1.00
C127   C     0.39120   0.86590   0.26321   0.01267  Uiso   1.00
C128   C     0.51110   0.80080   0.27610   0.01267  Uiso   1.00
C129   C     0.52440   0.94620   0.24990   0.01267  Uiso   1.00
C130   C     0.26910   0.82690   0.22642   0.01267  Uiso   1.00
C131   C     0.10130   0.77460   0.23596   0.01267  Uiso   1.00
C132   C     0.99170   0.73200   0.20435   0.01267  Uiso   1.00
C133   C     0.05350   0.73920   0.16298   0.01267  Uiso   1.00
C134   C     0.22000   0.79150   0.15323   0.01267  Uiso   1.00
C135   C     0.32580   0.83520   0.18470   0.01267  Uiso   1.00
C136   C     0.94350   0.68940   0.12940   0.01267  Uiso   1.00
O1     O     0.43960   0.61139   0.96465   0.01267  Uiso   1.00
O2     O     0.20050   0.61656   0.00760   0.01267  Uiso   1.00
O3     O     0.30240   0.28464   0.95466   0.01267  Uiso   1.00
O4     O     0.57630   0.25272   0.93457   0.01267  Uiso   1.00
O5     O     0.05240   0.50276   0.06866   0.01267  Uiso   1.00
O6     O     0.79960   0.49643   0.10888   0.01267  Uiso   1.00
O7     O     0.77050   0.16780   0.36616   0.01267  Uiso   1.00
O8     O     0.02630   0.16913   0.40313   0.01267  Uiso   1.00
O9     O     0.46720   0.54652   0.06413   0.01267  Uiso   1.00
O10    O     0.78080   0.56560   0.00767   0.01267  Uiso   1.00
O11    O     0.56040   0.88861   0.46465   0.01267  Uiso   1.00
O12    O     0.79950   0.88344   0.50760   0.01267  Uiso   1.00
O13    O     0.69760   0.21536   0.45466   0.01267  Uiso   1.00
O14    O     0.42370   0.24728   0.43457   0.01267  Uiso   1.00
O15    O     0.94760   0.99724   0.56866   0.01267  Uiso   1.00
O16    O     0.20040   0.00357   0.60888   0.01267  Uiso   1.00
O17    O     0.22950   0.33220   0.86616   0.01267  Uiso   1.00
O18    O     0.97370   0.33087   0.90313   0.01267  Uiso   1.00
O19    O     0.53280   0.95348   0.56413   0.01267  Uiso   1.00
O20    O     0.21920   0.93440   0.50767   0.01267  Uiso   1.00
O21    O     0.56040   0.38861   0.03535   0.01267  Uiso   1.00
O22    O     0.79950   0.38344   0.99240   0.01267  Uiso   1.00
O23    O     0.69760   0.71536   0.04534   0.01267  Uiso   1.00
O24    O     0.42370   0.74728   0.06543   0.01267  Uiso   1.00
O25    O     0.94760   0.49724   0.93134   0.01267  Uiso   1.00
O26    O     0.20040   0.50357   0.89112   0.01267  Uiso   1.00
O27    O     0.22950   0.83220   0.63384   0.01267  Uiso   1.00
O28    O     0.97370   0.83087   0.59687   0.01267  Uiso   1.00
O29    O     0.53280   0.45348   0.93587   0.01267  Uiso   1.00
O30    O     0.21920   0.43440   0.99233   0.01267  Uiso   1.00
O31    O     0.43960   0.11139   0.53535   0.01267  Uiso   1.00
O32    O     0.20050   0.11656   0.49240   0.01267  Uiso   1.00
O33    O     0.30240   0.78464   0.54534   0.01267  Uiso   1.00
O34    O     0.57630   0.75272   0.56543   0.01267  Uiso   1.00
O35    O     0.05240   0.00276   0.43134   0.01267  Uiso   1.00
O36    O     0.79960   0.99643   0.39112   0.01267  Uiso   1.00
O37    O     0.77050   0.66780   0.13384   0.01267  Uiso   1.00
O38    O     0.02630   0.66913   0.09687   0.01267  Uiso   1.00
O39    O     0.46720   0.04652   0.43587   0.01267  Uiso   1.00
O40    O     0.78080   0.06560   0.49233   0.01267  Uiso   1.00
F1     F     0.98220   0.84614   0.81848   0.01267  Uiso   1.00
F2     F     0.25370   0.91898   0.83067   0.01267  Uiso   1.00
F3     F     0.01680   0.97878   0.82181   0.01267  Uiso   1.00
F4     F     0.75360   0.80833   0.88484   0.01267  Uiso   1.00
F5     F     0.72510   0.93238   0.86844   0.01267  Uiso   1.00
F6     F     0.77090   0.90163   0.93257   0.01267  Uiso   1.00
F7     F     0.64950   0.33134   0.19708   0.01267  Uiso   1.00
F8     F     0.40830   0.23605   0.20534   0.01267  Uiso   1.00
F9     F     0.59360   0.27209   0.25698   0.01267  Uiso   1.00
F10    F     0.66660   0.43203   0.27355   0.01267  Uiso   1.00
F11    F     0.43170   0.49570   0.27166   0.01267  Uiso   1.00
F12    F     0.59720   0.48886   0.21648   0.01267  Uiso   1.00
F13    F     0.01780   0.65386   0.31848   0.01267  Uiso   1.00
F14    F     0.74630   0.58102   0.33067   0.01267  Uiso   1.00
F15    F     0.98320   0.52122   0.32181   0.01267  Uiso   1.00
F16    F     0.24640   0.69167   0.38484   0.01267  Uiso   1.00
F17    F     0.27490   0.56762   0.36844   0.01267  Uiso   1.00
F18    F     0.22910   0.59837   0.43257   0.01267  Uiso   1.00
F19    F     0.35050   0.16866   0.69708   0.01267  Uiso   1.00
F20    F     0.59170   0.26395   0.70534   0.01267  Uiso   1.00
F21    F     0.40640   0.22791   0.75698   0.01267  Uiso   1.00
F22    F     0.33340   0.06797   0.77355   0.01267  Uiso   1.00
F23    F     0.56830   0.00430   0.77166   0.01267  Uiso   1.00
F24    F     0.40280   0.01114   0.71648   0.01267  Uiso   1.00
F25    F     0.01780   0.15386   0.18152   0.01267  Uiso   1.00
F26    F     0.74630   0.08102   0.16933   0.01267  Uiso   1.00
F27    F     0.98320   0.02122   0.17819   0.01267  Uiso   1.00
F28    F     0.24640   0.19167   0.11516   0.01267  Uiso   1.00
F29    F     0.27490   0.06762   0.13156   0.01267  Uiso   1.00
F30    F     0.22910   0.09837   0.06743   0.01267  Uiso   1.00
F31    F     0.35050   0.66866   0.80292   0.01267  Uiso   1.00
F32    F     0.59170   0.76395   0.79466   0.01267  Uiso   1.00
F33    F     0.40640   0.72791   0.74302   0.01267  Uiso   1.00
F34    F     0.33340   0.56797   0.72645   0.01267  Uiso   1.00
F35    F     0.56830   0.50430   0.72834   0.01267  Uiso   1.00
F36    F     0.40280   0.51114   0.78352   0.01267  Uiso   1.00
F37    F     0.98220   0.34614   0.68152   0.01267  Uiso   1.00
F38    F     0.25370   0.41898   0.66933   0.01267  Uiso   1.00
F39    F     0.01680   0.47878   0.67819   0.01267  Uiso   1.00
F40    F     0.75360   0.30833   0.61516   0.01267  Uiso   1.00
F41    F     0.72510   0.43238   0.63156   0.01267  Uiso   1.00
F42    F     0.77090   0.40163   0.56743   0.01267  Uiso   1.00
F43    F     0.64950   0.83134   0.30292   0.01267  Uiso   1.00
F44    F     0.40830   0.73605   0.29466   0.01267  Uiso   1.00
F45    F     0.59360   0.77209   0.24302   0.01267  Uiso   1.00
F46    F     0.66660   0.93203   0.22645   0.01267  Uiso   1.00
F47    F     0.43170   0.99570   0.22834   0.01267  Uiso   1.00
F48    F     0.59720   0.98886   0.28352   0.01267  Uiso   1.00
