data_image0
_cell_length_a       15.7891
_cell_length_b       8.4306
_cell_length_c       16.1358
_cell_angle_alpha    90
_cell_angle_beta     112.357
_cell_angle_gamma    90

_symmetry_space_group_name_H-M    "P 1"
_symmetry_int_tables_number       1

loop_
  _symmetry_equiv_pos_as_xyz
  'x, y, z'

loop_
  _atom_site_label
  _atom_site_occupancy
  _atom_site_fract_x
  _atom_site_fract_y
  _atom_site_fract_z
  _atom_site_thermal_displace_type
  _atom_site_B_iso_or_equiv
  _atom_site_type_symbol
  Zn1      1.0000 0.63644  0.63754  0.52447  Biso   1.000  Zn
  P1       1.0000 0.52040  0.37261  0.40048  Biso   1.000  P
  O1       1.0000 0.60770  0.42200  0.47620  Biso   1.000  O
  O2       1.0000 0.45570  0.28660  0.43250  Biso   1.000  O
  O3       1.0000 0.47480  0.51100  0.34060  Biso   1.000  O
  H1       1.0000 0.54800  0.26200  0.35300  Biso   1.000  H
  P2       1.0000 0.65252  0.86260  0.36492  Biso   1.000  P
  H2       1.0000 0.61400  0.00100  0.34400  Biso   1.000  H
  O4       1.0000 0.74930  0.90020  0.37610  Biso   1.000  O
  O5       1.0000 0.63970  0.80880  0.44810  Biso   1.000  O
  O6       1.0000 0.61020  0.75290  0.28630  Biso   1.000  O
  Zn2      1.0000 0.13644  0.13754  0.52447  Biso   1.000  Zn
  P3       1.0000 0.02040  0.87261  0.40048  Biso   1.000  P
  O7       1.0000 0.10770  0.92200  0.47620  Biso   1.000  O
  O8       1.0000 0.95570  0.78660  0.43250  Biso   1.000  O
  O9       1.0000 0.97480  0.01100  0.34060  Biso   1.000  O
  H3       1.0000 0.04800  0.76200  0.35300  Biso   1.000  H
  P4       1.0000 0.15252  0.36260  0.36492  Biso   1.000  P
  H4       1.0000 0.11400  0.50100  0.34400  Biso   1.000  H
  O10      1.0000 0.24930  0.40020  0.37610  Biso   1.000  O
  O11      1.0000 0.13970  0.30880  0.44810  Biso   1.000  O
  O12      1.0000 0.11020  0.25290  0.28630  Biso   1.000  O
  Zn3      1.0000 0.36356  0.63754  0.97553  Biso   1.000  Zn
  P5       1.0000 0.47960  0.37261  0.09952  Biso   1.000  P
  O13      1.0000 0.39230  0.42200  0.02380  Biso   1.000  O
  O14      1.0000 0.54430  0.28660  0.06750  Biso   1.000  O
  O15      1.0000 0.52520  0.51100  0.15940  Biso   1.000  O
  H5       1.0000 0.45200  0.26200  0.14700  Biso   1.000  H
  P6       1.0000 0.34748  0.86260  0.13508  Biso   1.000  P
  H6       1.0000 0.38600  0.00100  0.15600  Biso   1.000  H
  O16      1.0000 0.25070  0.90020  0.12390  Biso   1.000  O
  O17      1.0000 0.36030  0.80880  0.05190  Biso   1.000  O
  O18      1.0000 0.38980  0.75290  0.21370  Biso   1.000  O
  Zn4      1.0000 0.86356  0.13754  0.97553  Biso   1.000  Zn
  P7       1.0000 0.97960  0.87261  0.09952  Biso   1.000  P
  O19      1.0000 0.89230  0.92200  0.02380  Biso   1.000  O
  O20      1.0000 0.04430  0.78660  0.06750  Biso   1.000  O
  O21      1.0000 0.02520  0.01100  0.15940  Biso   1.000  O
  H7       1.0000 0.95200  0.76200  0.14700  Biso   1.000  H
  P8       1.0000 0.84748  0.36260  0.13508  Biso   1.000  P
  H8       1.0000 0.88600  0.50100  0.15600  Biso   1.000  H
  O22      1.0000 0.75070  0.40020  0.12390  Biso   1.000  O
  O23      1.0000 0.86030  0.30880  0.05190  Biso   1.000  O
  O24      1.0000 0.88980  0.25290  0.21370  Biso   1.000  O
  Zn5      1.0000 0.36356  0.36246  0.47553  Biso   1.000  Zn
  P9       1.0000 0.47960  0.62739  0.59952  Biso   1.000  P
  O25      1.0000 0.39230  0.57800  0.52380  Biso   1.000  O
  O26      1.0000 0.54430  0.71340  0.56750  Biso   1.000  O
  O27      1.0000 0.52520  0.48900  0.65940  Biso   1.000  O
  H9       1.0000 0.45200  0.73800  0.64700  Biso   1.000  H
  P10      1.0000 0.34748  0.13740  0.63508  Biso   1.000  P
  H10      1.0000 0.38600  0.99900  0.65600  Biso   1.000  H
  O28      1.0000 0.25070  0.09980  0.62390  Biso   1.000  O
  O29      1.0000 0.36030  0.19120  0.55190  Biso   1.000  O
  O30      1.0000 0.38980  0.24710  0.71370  Biso   1.000  O
  Zn6      1.0000 0.86356  0.86246  0.47553  Biso   1.000  Zn
  P11      1.0000 0.97960  0.12739  0.59952  Biso   1.000  P
  O31      1.0000 0.89230  0.07800  0.52380  Biso   1.000  O
  O32      1.0000 0.04430  0.21340  0.56750  Biso   1.000  O
  O33      1.0000 0.02520  0.98900  0.65940  Biso   1.000  O
  H11      1.0000 0.95200  0.23800  0.64700  Biso   1.000  H
  P12      1.0000 0.84748  0.63740  0.63508  Biso   1.000  P
  H12      1.0000 0.88600  0.49900  0.65600  Biso   1.000  H
  O34      1.0000 0.75070  0.59980  0.62390  Biso   1.000  O
  O35      1.0000 0.86030  0.69120  0.55190  Biso   1.000  O
  O36      1.0000 0.88980  0.74710  0.71370  Biso   1.000  O
  Zn7      1.0000 0.63644  0.36246  0.02447  Biso   1.000  Zn
  P13      1.0000 0.52040  0.62739  0.90048  Biso   1.000  P
  O37      1.0000 0.60770  0.57800  0.97620  Biso   1.000  O
  O38      1.0000 0.45570  0.71340  0.93250  Biso   1.000  O
  O39      1.0000 0.47480  0.48900  0.84060  Biso   1.000  O
  H13      1.0000 0.54800  0.73800  0.85300  Biso   1.000  H
  P14      1.0000 0.65252  0.13740  0.86492  Biso   1.000  P
  H14      1.0000 0.61400  0.99900  0.84400  Biso   1.000  H
  O40      1.0000 0.74930  0.09980  0.87610  Biso   1.000  O
  O41      1.0000 0.63970  0.19120  0.94810  Biso   1.000  O
  O42      1.0000 0.61020  0.24710  0.78630  Biso   1.000  O
  Zn8      1.0000 0.13644  0.86246  0.02447  Biso   1.000  Zn
  P15      1.0000 0.02040  0.12739  0.90048  Biso   1.000  P
  O43      1.0000 0.10770  0.07800  0.97620  Biso   1.000  O
  O44      1.0000 0.95570  0.21340  0.93250  Biso   1.000  O
  O45      1.0000 0.97480  0.98900  0.84060  Biso   1.000  O
  H15      1.0000 0.04800  0.23800  0.85300  Biso   1.000  H
  P16      1.0000 0.15252  0.63740  0.86492  Biso   1.000  P
  H16      1.0000 0.11400  0.49900  0.84400  Biso   1.000  H
  O46      1.0000 0.24930  0.59980  0.87610  Biso   1.000  O
  O47      1.0000 0.13970  0.69120  0.94810  Biso   1.000  O
  O48      1.0000 0.11020  0.74710  0.78630  Biso   1.000  O
  Zn9      1.0000 0.50000  0.62722  0.25000  Biso   1.000  Zn
  Zn10     1.0000 0.00000  0.12722  0.25000  Biso   1.000  Zn
  Zn11     1.0000 0.50000  0.37278  0.75000  Biso   1.000  Zn
  Zn12     1.0000 0.00000  0.87278  0.75000  Biso   1.000  Zn
