data_image0
_cell_length_a       25.8033
_cell_length_b       8.6742
_cell_length_c       8.4557
_cell_angle_alpha    90
_cell_angle_beta     90
_cell_angle_gamma    90

_symmetry_space_group_name_H-M    "P 1"
_symmetry_int_tables_number       1

loop_
  _symmetry_equiv_pos_as_xyz
  'x, y, z'

loop_
  _atom_site_label
  _atom_site_occupancy
  _atom_site_fract_x
  _atom_site_fract_y
  _atom_site_fract_z
  _atom_site_thermal_displace_type
  _atom_site_B_iso_or_equiv
  _atom_site_type_symbol
  Zn1      1.0000 0.68745  0.72502  0.38022  Biso   1.000  Zn
  P1       1.0000 0.76672  0.94168  0.18056  Biso   1.000  P
  H1       1.0000 0.75100  0.00700  0.07200  Biso   1.000  H
  P2       1.0000 0.56185  0.80857  0.35500  Biso   1.000  P
  H2       1.0000 0.55200  0.70800  0.27300  Biso   1.000  H
  O1       1.0000 0.72169  0.89610  0.28110  Biso   1.000  O
  O2       1.0000 0.80779  0.03200  0.27060  Biso   1.000  O
  O3       1.0000 0.79259  0.80230  0.10300  Biso   1.000  O
  O4       1.0000 0.61533  0.78290  0.41700  Biso   1.000  O
  O5       1.0000 0.55962  0.94280  0.23820  Biso   1.000  O
  O6       1.0000 0.52212  0.82360  0.48760  Biso   1.000  O
  Zn2      1.0000 0.18745  0.22502  0.88022  Biso   1.000  Zn
  P3       1.0000 0.26672  0.44168  0.68056  Biso   1.000  P
  H3       1.0000 0.25100  0.50700  0.57200  Biso   1.000  H
  P4       1.0000 0.06185  0.30857  0.85500  Biso   1.000  P
  H4       1.0000 0.05200  0.20800  0.77300  Biso   1.000  H
  O7       1.0000 0.22169  0.39610  0.78110  Biso   1.000  O
  O8       1.0000 0.30779  0.53200  0.77060  Biso   1.000  O
  O9       1.0000 0.29259  0.30230  0.60300  Biso   1.000  O
  O10      1.0000 0.11533  0.28290  0.91700  Biso   1.000  O
  O11      1.0000 0.05962  0.44280  0.73820  Biso   1.000  O
  O12      1.0000 0.02212  0.32360  0.98760  Biso   1.000  O
  Zn3      1.0000 0.31255  0.27498  0.38022  Biso   1.000  Zn
  P5       1.0000 0.23328  0.05832  0.18056  Biso   1.000  P
  H5       1.0000 0.24900  0.99300  0.07200  Biso   1.000  H
  P6       1.0000 0.43815  0.19143  0.35500  Biso   1.000  P
  H6       1.0000 0.44800  0.29200  0.27300  Biso   1.000  H
  O13      1.0000 0.27831  0.10390  0.28110  Biso   1.000  O
  O14      1.0000 0.19221  0.96800  0.27060  Biso   1.000  O
  O15      1.0000 0.20741  0.19770  0.10300  Biso   1.000  O
  O16      1.0000 0.38467  0.21710  0.41700  Biso   1.000  O
  O17      1.0000 0.44038  0.05720  0.23820  Biso   1.000  O
  O18      1.0000 0.47788  0.17640  0.48760  Biso   1.000  O
  Zn4      1.0000 0.81255  0.77498  0.88022  Biso   1.000  Zn
  P7       1.0000 0.73328  0.55832  0.68056  Biso   1.000  P
  H7       1.0000 0.74900  0.49300  0.57200  Biso   1.000  H
  P8       1.0000 0.93815  0.69143  0.85500  Biso   1.000  P
  H8       1.0000 0.94800  0.79200  0.77300  Biso   1.000  H
  O19      1.0000 0.77831  0.60390  0.78110  Biso   1.000  O
  O20      1.0000 0.69221  0.46800  0.77060  Biso   1.000  O
  O21      1.0000 0.70741  0.69770  0.60300  Biso   1.000  O
  O22      1.0000 0.88467  0.71710  0.91700  Biso   1.000  O
  O23      1.0000 0.94038  0.55720  0.73820  Biso   1.000  O
  O24      1.0000 0.97788  0.67640  0.98760  Biso   1.000  O
  Zn5      1.0000 0.18745  0.77498  0.38022  Biso   1.000  Zn
  P9       1.0000 0.26672  0.55832  0.18056  Biso   1.000  P
  H9       1.0000 0.25100  0.49300  0.07200  Biso   1.000  H
  P10      1.0000 0.06185  0.69143  0.35500  Biso   1.000  P
  H10      1.0000 0.05200  0.79200  0.27300  Biso   1.000  H
  O25      1.0000 0.22169  0.60390  0.28110  Biso   1.000  O
  O26      1.0000 0.30779  0.46800  0.27060  Biso   1.000  O
  O27      1.0000 0.29259  0.69770  0.10300  Biso   1.000  O
  O28      1.0000 0.11533  0.71710  0.41700  Biso   1.000  O
  O29      1.0000 0.05962  0.55720  0.23820  Biso   1.000  O
  O30      1.0000 0.02212  0.67640  0.48760  Biso   1.000  O
  Zn6      1.0000 0.68745  0.27498  0.88022  Biso   1.000  Zn
  P11      1.0000 0.76672  0.05832  0.68056  Biso   1.000  P
  H11      1.0000 0.75100  0.99300  0.57200  Biso   1.000  H
  P12      1.0000 0.56185  0.19143  0.85500  Biso   1.000  P
  H12      1.0000 0.55200  0.29200  0.77300  Biso   1.000  H
  O31      1.0000 0.72169  0.10390  0.78110  Biso   1.000  O
  O32      1.0000 0.80779  0.96800  0.77060  Biso   1.000  O
  O33      1.0000 0.79259  0.19770  0.60300  Biso   1.000  O
  O34      1.0000 0.61533  0.21710  0.91700  Biso   1.000  O
  O35      1.0000 0.55962  0.05720  0.73820  Biso   1.000  O
  O36      1.0000 0.52212  0.17640  0.98760  Biso   1.000  O
  Zn7      1.0000 0.81255  0.22502  0.38022  Biso   1.000  Zn
  P13      1.0000 0.73328  0.44168  0.18056  Biso   1.000  P
  H13      1.0000 0.74900  0.50700  0.07200  Biso   1.000  H
  P14      1.0000 0.93815  0.30857  0.35500  Biso   1.000  P
  H14      1.0000 0.94800  0.20800  0.27300  Biso   1.000  H
  O37      1.0000 0.77831  0.39610  0.28110  Biso   1.000  O
  O38      1.0000 0.69221  0.53200  0.27060  Biso   1.000  O
  O39      1.0000 0.70741  0.30230  0.10300  Biso   1.000  O
  O40      1.0000 0.88467  0.28290  0.41700  Biso   1.000  O
  O41      1.0000 0.94038  0.44280  0.23820  Biso   1.000  O
  O42      1.0000 0.97788  0.32360  0.48760  Biso   1.000  O
  Zn8      1.0000 0.31255  0.72502  0.88022  Biso   1.000  Zn
  P15      1.0000 0.23328  0.94168  0.68056  Biso   1.000  P
  H15      1.0000 0.24900  0.00700  0.57200  Biso   1.000  H
  P16      1.0000 0.43815  0.80857  0.85500  Biso   1.000  P
  H16      1.0000 0.44800  0.70800  0.77300  Biso   1.000  H
  O43      1.0000 0.27831  0.89610  0.78110  Biso   1.000  O
  O44      1.0000 0.19221  0.03200  0.77060  Biso   1.000  O
  O45      1.0000 0.20741  0.80230  0.60300  Biso   1.000  O
  O46      1.0000 0.38467  0.78290  0.91700  Biso   1.000  O
  O47      1.0000 0.44038  0.94280  0.73820  Biso   1.000  O
  O48      1.0000 0.47788  0.82360  0.98760  Biso   1.000  O
  Zn9      1.0000 0.50000  0.00000  0.10714  Biso   1.000  Zn
  Zn10     1.0000 0.00000  0.50000  0.60714  Biso   1.000  Zn
  Zn11     1.0000 0.00000  0.50000  0.10714  Biso   1.000  Zn
  Zn12     1.0000 0.50000  0.00000  0.60714  Biso   1.000  Zn
