data_image0
_cell_length_a       16.1749
_cell_length_b       8.3247
_cell_length_c       17.0673
_cell_angle_alpha    90
_cell_angle_beta     114.781
_cell_angle_gamma    90

_symmetry_space_group_name_H-M    "P 1"
_symmetry_int_tables_number       1

loop_
  _symmetry_equiv_pos_as_xyz
  'x, y, z'

loop_
  _atom_site_label
  _atom_site_occupancy
  _atom_site_fract_x
  _atom_site_fract_y
  _atom_site_fract_z
  _atom_site_thermal_displace_type
  _atom_site_B_iso_or_equiv
  _atom_site_type_symbol
  Zn1      1.0000 0.86468  0.61889  0.97818  Biso   1.000  Zn
  P1       1.0000 0.00752  0.39687  0.12375  Biso   1.000  P
  H1       1.0000 0.89500  0.01800  0.12800  Biso   1.000  H
  P2       1.0000 0.85336  0.89415  0.10616  Biso   1.000  P
  H2       1.0000 0.99000  0.28100  0.16800  Biso   1.000  H
  O1       1.0000 0.86120  0.83320  0.02540  Biso   1.000  O
  O2       1.0000 0.89450  0.78420  0.18070  Biso   1.000  O
  O3       1.0000 0.91650  0.43780  0.05160  Biso   1.000  O
  O4       1.0000 0.04890  0.53420  0.18480  Biso   1.000  O
  O5       1.0000 0.07340  0.32110  0.09330  Biso   1.000  O
  O6       1.0000 0.75990  0.94270  0.09180  Biso   1.000  O
  Zn2      1.0000 0.36468  0.11889  0.97818  Biso   1.000  Zn
  P3       1.0000 0.50752  0.89687  0.12375  Biso   1.000  P
  H3       1.0000 0.39500  0.51800  0.12800  Biso   1.000  H
  P4       1.0000 0.35336  0.39415  0.10616  Biso   1.000  P
  H4       1.0000 0.49000  0.78100  0.16800  Biso   1.000  H
  O7       1.0000 0.36120  0.33320  0.02540  Biso   1.000  O
  O8       1.0000 0.39450  0.28420  0.18070  Biso   1.000  O
  O9       1.0000 0.41650  0.93780  0.05160  Biso   1.000  O
  O10      1.0000 0.54890  0.03420  0.18480  Biso   1.000  O
  O11      1.0000 0.57340  0.82110  0.09330  Biso   1.000  O
  O12      1.0000 0.25990  0.44270  0.09180  Biso   1.000  O
  Zn3      1.0000 0.13532  0.61889  0.52182  Biso   1.000  Zn
  P5       1.0000 0.99248  0.39687  0.37625  Biso   1.000  P
  H5       1.0000 0.10500  0.01800  0.37200  Biso   1.000  H
  P6       1.0000 0.14664  0.89415  0.39384  Biso   1.000  P
  H6       1.0000 0.01000  0.28100  0.33200  Biso   1.000  H
  O13      1.0000 0.13880  0.83320  0.47460  Biso   1.000  O
  O14      1.0000 0.10550  0.78420  0.31930  Biso   1.000  O
  O15      1.0000 0.08350  0.43780  0.44840  Biso   1.000  O
  O16      1.0000 0.95110  0.53420  0.31520  Biso   1.000  O
  O17      1.0000 0.92660  0.32110  0.40670  Biso   1.000  O
  O18      1.0000 0.24010  0.94270  0.40820  Biso   1.000  O
  Zn4      1.0000 0.63532  0.11889  0.52182  Biso   1.000  Zn
  P7       1.0000 0.49248  0.89687  0.37625  Biso   1.000  P
  H7       1.0000 0.60500  0.51800  0.37200  Biso   1.000  H
  P8       1.0000 0.64664  0.39415  0.39384  Biso   1.000  P
  H8       1.0000 0.51000  0.78100  0.33200  Biso   1.000  H
  O19      1.0000 0.63880  0.33320  0.47460  Biso   1.000  O
  O20      1.0000 0.60550  0.28420  0.31930  Biso   1.000  O
  O21      1.0000 0.58350  0.93780  0.44840  Biso   1.000  O
  O22      1.0000 0.45110  0.03420  0.31520  Biso   1.000  O
  O23      1.0000 0.42660  0.82110  0.40670  Biso   1.000  O
  O24      1.0000 0.74010  0.44270  0.40820  Biso   1.000  O
  Zn5      1.0000 0.13532  0.38111  0.02182  Biso   1.000  Zn
  P9       1.0000 0.99248  0.60313  0.87625  Biso   1.000  P
  H9       1.0000 0.10500  0.98200  0.87200  Biso   1.000  H
  P10      1.0000 0.14664  0.10585  0.89384  Biso   1.000  P
  H10      1.0000 0.01000  0.71900  0.83200  Biso   1.000  H
  O25      1.0000 0.13880  0.16680  0.97460  Biso   1.000  O
  O26      1.0000 0.10550  0.21580  0.81930  Biso   1.000  O
  O27      1.0000 0.08350  0.56220  0.94840  Biso   1.000  O
  O28      1.0000 0.95110  0.46580  0.81520  Biso   1.000  O
  O29      1.0000 0.92660  0.67890  0.90670  Biso   1.000  O
  O30      1.0000 0.24010  0.05730  0.90820  Biso   1.000  O
  Zn6      1.0000 0.63532  0.88111  0.02182  Biso   1.000  Zn
  P11      1.0000 0.49248  0.10313  0.87625  Biso   1.000  P
  H11      1.0000 0.60500  0.48200  0.87200  Biso   1.000  H
  P12      1.0000 0.64664  0.60585  0.89384  Biso   1.000  P
  H12      1.0000 0.51000  0.21900  0.83200  Biso   1.000  H
  O31      1.0000 0.63880  0.66680  0.97460  Biso   1.000  O
  O32      1.0000 0.60550  0.71580  0.81930  Biso   1.000  O
  O33      1.0000 0.58350  0.06220  0.94840  Biso   1.000  O
  O34      1.0000 0.45110  0.96580  0.81520  Biso   1.000  O
  O35      1.0000 0.42660  0.17890  0.90670  Biso   1.000  O
  O36      1.0000 0.74010  0.55730  0.90820  Biso   1.000  O
  Zn7      1.0000 0.86468  0.38111  0.47818  Biso   1.000  Zn
  P13      1.0000 0.00752  0.60313  0.62375  Biso   1.000  P
  H13      1.0000 0.89500  0.98200  0.62800  Biso   1.000  H
  P14      1.0000 0.85336  0.10585  0.60616  Biso   1.000  P
  H14      1.0000 0.99000  0.71900  0.66800  Biso   1.000  H
  O37      1.0000 0.86120  0.16680  0.52540  Biso   1.000  O
  O38      1.0000 0.89450  0.21580  0.68070  Biso   1.000  O
  O39      1.0000 0.91650  0.56220  0.55160  Biso   1.000  O
  O40      1.0000 0.04890  0.46580  0.68480  Biso   1.000  O
  O41      1.0000 0.07340  0.67890  0.59330  Biso   1.000  O
  O42      1.0000 0.75990  0.05730  0.59180  Biso   1.000  O
  Zn8      1.0000 0.36468  0.88111  0.47818  Biso   1.000  Zn
  P15      1.0000 0.50752  0.10313  0.62375  Biso   1.000  P
  H15      1.0000 0.39500  0.48200  0.62800  Biso   1.000  H
  P16      1.0000 0.35336  0.60585  0.60616  Biso   1.000  P
  H16      1.0000 0.49000  0.21900  0.66800  Biso   1.000  H
  O43      1.0000 0.36120  0.66680  0.52540  Biso   1.000  O
  O44      1.0000 0.39450  0.71580  0.68070  Biso   1.000  O
  O45      1.0000 0.41650  0.06220  0.55160  Biso   1.000  O
  O46      1.0000 0.54890  0.96580  0.68480  Biso   1.000  O
  O47      1.0000 0.57340  0.17890  0.59330  Biso   1.000  O
  O48      1.0000 0.25990  0.55730  0.59180  Biso   1.000  O
  Zn9      1.0000 0.00000  0.66137  0.25000  Biso   1.000  Zn
  Zn10     1.0000 0.50000  0.16137  0.25000  Biso   1.000  Zn
  Zn11     1.0000 0.00000  0.33863  0.75000  Biso   1.000  Zn
  Zn12     1.0000 0.50000  0.83863  0.75000  Biso   1.000  Zn
