data_image0
_cell_length_a       15.783
_cell_length_b       8.378
_cell_length_c       15.955
_cell_angle_alpha    90
_cell_angle_beta     111.5
_cell_angle_gamma    90

_symmetry_space_group_name_H-M    "P 1"
_symmetry_int_tables_number       1

loop_
  _symmetry_equiv_pos_as_xyz
  'x, y, z'

loop_
  _atom_site_label
  _atom_site_occupancy
  _atom_site_fract_x
  _atom_site_fract_y
  _atom_site_fract_z
  _atom_site_thermal_displace_type
  _atom_site_B_iso_or_equiv
  _atom_site_type_symbol
  Zn1      1.0000 0.36328  0.63895  0.47452  Biso   1.000  Zn
  P1       1.0000 0.15472  0.63362  0.36453  Biso   1.000  P
  P2       1.0000 0.02115  0.12698  0.40041  Biso   1.000  P
  O1       1.0000 0.25108  0.59570  0.37340  Biso   1.000  O
  O2       1.0000 0.14390  0.68590  0.45038  Biso   1.000  O
  O3       1.0000 0.11171  0.74720  0.28635  Biso   1.000  O
  O4       1.0000 0.95761  0.21800  0.43400  Biso   1.000  O
  O5       1.0000 0.97507  0.98540  0.34229  Biso   1.000  O
  O6       1.0000 0.10937  0.07830  0.47654  Biso   1.000  O
  H1       1.0000 0.11040  0.49800  0.34160  Biso   1.000  H
  H2       1.0000 0.04810  0.22500  0.35260  Biso   1.000  H
  Zn2      1.0000 0.86328  0.13895  0.47452  Biso   1.000  Zn
  P3       1.0000 0.65472  0.13362  0.36453  Biso   1.000  P
  P4       1.0000 0.52115  0.62698  0.40041  Biso   1.000  P
  O7       1.0000 0.75108  0.09570  0.37340  Biso   1.000  O
  O8       1.0000 0.64390  0.18590  0.45038  Biso   1.000  O
  O9       1.0000 0.61171  0.24720  0.28635  Biso   1.000  O
  O10      1.0000 0.45761  0.71800  0.43400  Biso   1.000  O
  O11      1.0000 0.47507  0.48540  0.34229  Biso   1.000  O
  O12      1.0000 0.60937  0.57830  0.47654  Biso   1.000  O
  H3       1.0000 0.61040  0.99800  0.34160  Biso   1.000  H
  H4       1.0000 0.54810  0.72500  0.35260  Biso   1.000  H
  Zn3      1.0000 0.63672  0.63895  0.02548  Biso   1.000  Zn
  P5       1.0000 0.84528  0.63362  0.13547  Biso   1.000  P
  P6       1.0000 0.97885  0.12698  0.09959  Biso   1.000  P
  O13      1.0000 0.74892  0.59570  0.12660  Biso   1.000  O
  O14      1.0000 0.85610  0.68590  0.04962  Biso   1.000  O
  O15      1.0000 0.88829  0.74720  0.21365  Biso   1.000  O
  O16      1.0000 0.04239  0.21800  0.06600  Biso   1.000  O
  O17      1.0000 0.02493  0.98540  0.15771  Biso   1.000  O
  O18      1.0000 0.89063  0.07830  0.02346  Biso   1.000  O
  H5       1.0000 0.88960  0.49800  0.15840  Biso   1.000  H
  H6       1.0000 0.95190  0.22500  0.14740  Biso   1.000  H
  Zn4      1.0000 0.13672  0.13895  0.02548  Biso   1.000  Zn
  P7       1.0000 0.34528  0.13362  0.13547  Biso   1.000  P
  P8       1.0000 0.47885  0.62698  0.09959  Biso   1.000  P
  O19      1.0000 0.24892  0.09570  0.12660  Biso   1.000  O
  O20      1.0000 0.35610  0.18590  0.04962  Biso   1.000  O
  O21      1.0000 0.38829  0.24720  0.21365  Biso   1.000  O
  O22      1.0000 0.54239  0.71800  0.06600  Biso   1.000  O
  O23      1.0000 0.52493  0.48540  0.15771  Biso   1.000  O
  O24      1.0000 0.39063  0.57830  0.02346  Biso   1.000  O
  H7       1.0000 0.38960  0.99800  0.15840  Biso   1.000  H
  H8       1.0000 0.45190  0.72500  0.14740  Biso   1.000  H
  Zn5      1.0000 0.63672  0.36105  0.52548  Biso   1.000  Zn
  P9       1.0000 0.84528  0.36638  0.63547  Biso   1.000  P
  P10      1.0000 0.97885  0.87302  0.59959  Biso   1.000  P
  O25      1.0000 0.74892  0.40430  0.62660  Biso   1.000  O
  O26      1.0000 0.85610  0.31410  0.54962  Biso   1.000  O
  O27      1.0000 0.88829  0.25280  0.71365  Biso   1.000  O
  O28      1.0000 0.04239  0.78200  0.56600  Biso   1.000  O
  O29      1.0000 0.02493  0.01460  0.65771  Biso   1.000  O
  O30      1.0000 0.89063  0.92170  0.52346  Biso   1.000  O
  H9       1.0000 0.88960  0.50200  0.65840  Biso   1.000  H
  H10      1.0000 0.95190  0.77500  0.64740  Biso   1.000  H
  Zn6      1.0000 0.13672  0.86105  0.52548  Biso   1.000  Zn
  P11      1.0000 0.34528  0.86638  0.63547  Biso   1.000  P
  P12      1.0000 0.47885  0.37302  0.59959  Biso   1.000  P
  O31      1.0000 0.24892  0.90430  0.62660  Biso   1.000  O
  O32      1.0000 0.35610  0.81410  0.54962  Biso   1.000  O
  O33      1.0000 0.38829  0.75280  0.71365  Biso   1.000  O
  O34      1.0000 0.54239  0.28200  0.56600  Biso   1.000  O
  O35      1.0000 0.52493  0.51460  0.65771  Biso   1.000  O
  O36      1.0000 0.39063  0.42170  0.52346  Biso   1.000  O
  H11      1.0000 0.38960  0.00200  0.65840  Biso   1.000  H
  H12      1.0000 0.45190  0.27500  0.64740  Biso   1.000  H
  Zn7      1.0000 0.36328  0.36105  0.97452  Biso   1.000  Zn
  P13      1.0000 0.15472  0.36638  0.86453  Biso   1.000  P
  P14      1.0000 0.02115  0.87302  0.90041  Biso   1.000  P
  O37      1.0000 0.25108  0.40430  0.87340  Biso   1.000  O
  O38      1.0000 0.14390  0.31410  0.95038  Biso   1.000  O
  O39      1.0000 0.11171  0.25280  0.78635  Biso   1.000  O
  O40      1.0000 0.95761  0.78200  0.93400  Biso   1.000  O
  O41      1.0000 0.97507  0.01460  0.84229  Biso   1.000  O
  O42      1.0000 0.10937  0.92170  0.97654  Biso   1.000  O
  H13      1.0000 0.11040  0.50200  0.84160  Biso   1.000  H
  H14      1.0000 0.04810  0.77500  0.85260  Biso   1.000  H
  Zn8      1.0000 0.86328  0.86105  0.97452  Biso   1.000  Zn
  P15      1.0000 0.65472  0.86638  0.86453  Biso   1.000  P
  P16      1.0000 0.52115  0.37302  0.90041  Biso   1.000  P
  O43      1.0000 0.75108  0.90430  0.87340  Biso   1.000  O
  O44      1.0000 0.64390  0.81410  0.95038  Biso   1.000  O
  O45      1.0000 0.61171  0.75280  0.78635  Biso   1.000  O
  O46      1.0000 0.45761  0.28200  0.93400  Biso   1.000  O
  O47      1.0000 0.47507  0.51460  0.84229  Biso   1.000  O
  O48      1.0000 0.60937  0.42170  0.97654  Biso   1.000  O
  H15      1.0000 0.61040  0.00200  0.84160  Biso   1.000  H
  H16      1.0000 0.54810  0.27500  0.85260  Biso   1.000  H
  Zn9      1.0000 0.00000  0.86908  0.25000  Biso   1.000  Zn
  Zn10     1.0000 0.50000  0.36908  0.25000  Biso   1.000  Zn
  Zn11     1.0000 0.00000  0.13092  0.75000  Biso   1.000  Zn
  Zn12     1.0000 0.50000  0.63092  0.75000  Biso   1.000  Zn
