data_image0
_cell_length_a       9.0606
_cell_length_b       15.7587
_cell_length_c       32.0453
_cell_angle_alpha    90
_cell_angle_beta     90
_cell_angle_gamma    90

_symmetry_space_group_name_H-M    "P 1"
_symmetry_int_tables_number       1

loop_
  _symmetry_equiv_pos_as_xyz
  'x, y, z'

loop_
  _atom_site_label
  _atom_site_occupancy
  _atom_site_fract_x
  _atom_site_fract_y
  _atom_site_fract_z
  _atom_site_thermal_displace_type
  _atom_site_B_iso_or_equiv
  _atom_site_type_symbol
  P1       1.0000 0.35520  0.19437  0.05804  Biso   1.000  P
  O1       1.0000 0.41870  0.27880  0.04664  Biso   1.000  O
  O2       1.0000 0.30250  0.14300  0.02155  Biso   1.000  O
  O3       1.0000 0.24320  0.20150  0.09249  Biso   1.000  O
  H1       1.0000 0.47450  0.15220  0.07190  Biso   1.000  H
  P2       1.0000 0.35520  0.69437  0.55804  Biso   1.000  P
  O4       1.0000 0.41870  0.77880  0.54664  Biso   1.000  O
  O5       1.0000 0.30250  0.64300  0.52155  Biso   1.000  O
  O6       1.0000 0.24320  0.70150  0.59249  Biso   1.000  O
  H2       1.0000 0.47450  0.65220  0.57190  Biso   1.000  H
  P3       1.0000 0.85520  0.19437  0.55804  Biso   1.000  P
  O7       1.0000 0.91870  0.27880  0.54664  Biso   1.000  O
  O8       1.0000 0.80250  0.14300  0.52155  Biso   1.000  O
  O9       1.0000 0.74320  0.20150  0.59249  Biso   1.000  O
  H3       1.0000 0.97450  0.15220  0.57190  Biso   1.000  H
  P4       1.0000 0.85520  0.69437  0.05804  Biso   1.000  P
  O10      1.0000 0.91870  0.77880  0.04664  Biso   1.000  O
  O11      1.0000 0.80250  0.64300  0.02155  Biso   1.000  O
  O12      1.0000 0.74320  0.70150  0.09249  Biso   1.000  O
  H4       1.0000 0.97450  0.65220  0.07190  Biso   1.000  H
  P5       1.0000 0.39480  0.55563  0.05804  Biso   1.000  P
  O13      1.0000 0.33130  0.47120  0.04664  Biso   1.000  O
  O14      1.0000 0.44750  0.60700  0.02155  Biso   1.000  O
  O15      1.0000 0.50680  0.54850  0.09249  Biso   1.000  O
  H5       1.0000 0.27550  0.59780  0.07190  Biso   1.000  H
  P6       1.0000 0.39480  0.05563  0.55804  Biso   1.000  P
  O16      1.0000 0.33130  0.97120  0.54664  Biso   1.000  O
  O17      1.0000 0.44750  0.10700  0.52155  Biso   1.000  O
  O18      1.0000 0.50680  0.04850  0.59249  Biso   1.000  O
  H6       1.0000 0.27550  0.09780  0.57190  Biso   1.000  H
  P7       1.0000 0.89480  0.55563  0.55804  Biso   1.000  P
  O19      1.0000 0.83130  0.47120  0.54664  Biso   1.000  O
  O20      1.0000 0.94750  0.60700  0.52155  Biso   1.000  O
  O21      1.0000 0.00680  0.54850  0.59249  Biso   1.000  O
  H7       1.0000 0.77550  0.59780  0.57190  Biso   1.000  H
  P8       1.0000 0.89480  0.05563  0.05804  Biso   1.000  P
  O22      1.0000 0.83130  0.97120  0.04664  Biso   1.000  O
  O23      1.0000 0.94750  0.10700  0.02155  Biso   1.000  O
  O24      1.0000 0.00680  0.04850  0.09249  Biso   1.000  O
  H8       1.0000 0.77550  0.09780  0.07190  Biso   1.000  H
  P9       1.0000 0.39480  0.19437  0.69196  Biso   1.000  P
  O25      1.0000 0.33130  0.27880  0.70336  Biso   1.000  O
  O26      1.0000 0.44750  0.14300  0.72845  Biso   1.000  O
  O27      1.0000 0.50680  0.20150  0.65751  Biso   1.000  O
  H9       1.0000 0.27550  0.15220  0.67810  Biso   1.000  H
  P10      1.0000 0.39480  0.69437  0.19196  Biso   1.000  P
  O28      1.0000 0.33130  0.77880  0.20336  Biso   1.000  O
  O29      1.0000 0.44750  0.64300  0.22845  Biso   1.000  O
  O30      1.0000 0.50680  0.70150  0.15751  Biso   1.000  O
  H10      1.0000 0.27550  0.65220  0.17810  Biso   1.000  H
  P11      1.0000 0.89480  0.19437  0.19196  Biso   1.000  P
  O31      1.0000 0.83130  0.27880  0.20336  Biso   1.000  O
  O32      1.0000 0.94750  0.14300  0.22845  Biso   1.000  O
  O33      1.0000 0.00680  0.20150  0.15751  Biso   1.000  O
  H11      1.0000 0.77550  0.15220  0.17810  Biso   1.000  H
  P12      1.0000 0.89480  0.69437  0.69196  Biso   1.000  P
  O34      1.0000 0.83130  0.77880  0.70336  Biso   1.000  O
  O35      1.0000 0.94750  0.64300  0.72845  Biso   1.000  O
  O36      1.0000 0.00680  0.70150  0.65751  Biso   1.000  O
  H12      1.0000 0.77550  0.65220  0.67810  Biso   1.000  H
  P13      1.0000 0.35520  0.55563  0.69196  Biso   1.000  P
  O37      1.0000 0.41870  0.47120  0.70336  Biso   1.000  O
  O38      1.0000 0.30250  0.60700  0.72845  Biso   1.000  O
  O39      1.0000 0.24320  0.54850  0.65751  Biso   1.000  O
  H13      1.0000 0.47450  0.59780  0.67810  Biso   1.000  H
  P14      1.0000 0.35520  0.05563  0.19196  Biso   1.000  P
  O40      1.0000 0.41870  0.97120  0.20336  Biso   1.000  O
  O41      1.0000 0.30250  0.10700  0.22845  Biso   1.000  O
  O42      1.0000 0.24320  0.04850  0.15751  Biso   1.000  O
  H14      1.0000 0.47450  0.09780  0.17810  Biso   1.000  H
  P15      1.0000 0.85520  0.55563  0.19196  Biso   1.000  P
  O43      1.0000 0.91870  0.47120  0.20336  Biso   1.000  O
  O44      1.0000 0.80250  0.60700  0.22845  Biso   1.000  O
  O45      1.0000 0.74320  0.54850  0.15751  Biso   1.000  O
  H15      1.0000 0.97450  0.59780  0.17810  Biso   1.000  H
  P16      1.0000 0.85520  0.05563  0.69196  Biso   1.000  P
  O46      1.0000 0.91870  0.97120  0.70336  Biso   1.000  O
  O47      1.0000 0.80250  0.10700  0.72845  Biso   1.000  O
  O48      1.0000 0.74320  0.04850  0.65751  Biso   1.000  O
  H16      1.0000 0.97450  0.09780  0.67810  Biso   1.000  H
  P17      1.0000 0.64480  0.80563  0.94196  Biso   1.000  P
  O49      1.0000 0.58130  0.72120  0.95336  Biso   1.000  O
  O50      1.0000 0.69750  0.85700  0.97845  Biso   1.000  O
  O51      1.0000 0.75680  0.79850  0.90751  Biso   1.000  O
  H17      1.0000 0.52550  0.84780  0.92810  Biso   1.000  H
  P18      1.0000 0.64480  0.30563  0.44196  Biso   1.000  P
  O52      1.0000 0.58130  0.22120  0.45336  Biso   1.000  O
  O53      1.0000 0.69750  0.35700  0.47845  Biso   1.000  O
  O54      1.0000 0.75680  0.29850  0.40751  Biso   1.000  O
  H18      1.0000 0.52550  0.34780  0.42810  Biso   1.000  H
  P19      1.0000 0.14480  0.80563  0.44196  Biso   1.000  P
  O55      1.0000 0.08130  0.72120  0.45336  Biso   1.000  O
  O56      1.0000 0.19750  0.85700  0.47845  Biso   1.000  O
  O57      1.0000 0.25680  0.79850  0.40751  Biso   1.000  O
  H19      1.0000 0.02550  0.84780  0.42810  Biso   1.000  H
  P20      1.0000 0.14480  0.30563  0.94196  Biso   1.000  P
  O58      1.0000 0.08130  0.22120  0.95336  Biso   1.000  O
  O59      1.0000 0.19750  0.35700  0.97845  Biso   1.000  O
  O60      1.0000 0.25680  0.29850  0.90751  Biso   1.000  O
  H20      1.0000 0.02550  0.34780  0.92810  Biso   1.000  H
  P21      1.0000 0.60520  0.44437  0.94196  Biso   1.000  P
  O61      1.0000 0.66870  0.52880  0.95336  Biso   1.000  O
  O62      1.0000 0.55250  0.39300  0.97845  Biso   1.000  O
  O63      1.0000 0.49320  0.45150  0.90751  Biso   1.000  O
  H21      1.0000 0.72450  0.40220  0.92810  Biso   1.000  H
  P22      1.0000 0.60520  0.94437  0.44196  Biso   1.000  P
  O64      1.0000 0.66870  0.02880  0.45336  Biso   1.000  O
  O65      1.0000 0.55250  0.89300  0.47845  Biso   1.000  O
  O66      1.0000 0.49320  0.95150  0.40751  Biso   1.000  O
  H22      1.0000 0.72450  0.90220  0.42810  Biso   1.000  H
  P23      1.0000 0.10520  0.44437  0.44196  Biso   1.000  P
  O67      1.0000 0.16870  0.52880  0.45336  Biso   1.000  O
  O68      1.0000 0.05250  0.39300  0.47845  Biso   1.000  O
  O69      1.0000 0.99320  0.45150  0.40751  Biso   1.000  O
  H23      1.0000 0.22450  0.40220  0.42810  Biso   1.000  H
  P24      1.0000 0.10520  0.94437  0.94196  Biso   1.000  P
  O70      1.0000 0.16870  0.02880  0.95336  Biso   1.000  O
  O71      1.0000 0.05250  0.89300  0.97845  Biso   1.000  O
  O72      1.0000 0.99320  0.95150  0.90751  Biso   1.000  O
  H24      1.0000 0.22450  0.90220  0.92810  Biso   1.000  H
  P25      1.0000 0.60520  0.80563  0.30804  Biso   1.000  P
  O73      1.0000 0.66870  0.72120  0.29664  Biso   1.000  O
  O74      1.0000 0.55250  0.85700  0.27155  Biso   1.000  O
  O75      1.0000 0.49320  0.79850  0.34249  Biso   1.000  O
  H25      1.0000 0.72450  0.84780  0.32190  Biso   1.000  H
  P26      1.0000 0.60520  0.30563  0.80804  Biso   1.000  P
  O76      1.0000 0.66870  0.22120  0.79664  Biso   1.000  O
  O77      1.0000 0.55250  0.35700  0.77155  Biso   1.000  O
  O78      1.0000 0.49320  0.29850  0.84249  Biso   1.000  O
  H26      1.0000 0.72450  0.34780  0.82190  Biso   1.000  H
  P27      1.0000 0.10520  0.80563  0.80804  Biso   1.000  P
  O79      1.0000 0.16870  0.72120  0.79664  Biso   1.000  O
  O80      1.0000 0.05250  0.85700  0.77155  Biso   1.000  O
  O81      1.0000 0.99320  0.79850  0.84249  Biso   1.000  O
  H27      1.0000 0.22450  0.84780  0.82190  Biso   1.000  H
  P28      1.0000 0.10520  0.30563  0.30804  Biso   1.000  P
  O82      1.0000 0.16870  0.22120  0.29664  Biso   1.000  O
  O83      1.0000 0.05250  0.35700  0.27155  Biso   1.000  O
  O84      1.0000 0.99320  0.29850  0.34249  Biso   1.000  O
  H28      1.0000 0.22450  0.34780  0.32190  Biso   1.000  H
  P29      1.0000 0.64480  0.44437  0.30804  Biso   1.000  P
  O85      1.0000 0.58130  0.52880  0.29664  Biso   1.000  O
  O86      1.0000 0.69750  0.39300  0.27155  Biso   1.000  O
  O87      1.0000 0.75680  0.45150  0.34249  Biso   1.000  O
  H29      1.0000 0.52550  0.40220  0.32190  Biso   1.000  H
  P30      1.0000 0.64480  0.94437  0.80804  Biso   1.000  P
  O88      1.0000 0.58130  0.02880  0.79664  Biso   1.000  O
  O89      1.0000 0.69750  0.89300  0.77155  Biso   1.000  O
  O90      1.0000 0.75680  0.95150  0.84249  Biso   1.000  O
  H30      1.0000 0.52550  0.90220  0.82190  Biso   1.000  H
  P31      1.0000 0.14480  0.44437  0.80804  Biso   1.000  P
  O91      1.0000 0.08130  0.52880  0.79664  Biso   1.000  O
  O92      1.0000 0.19750  0.39300  0.77155  Biso   1.000  O
  O93      1.0000 0.25680  0.45150  0.84249  Biso   1.000  O
  H31      1.0000 0.02550  0.40220  0.82190  Biso   1.000  H
  P32      1.0000 0.14480  0.94437  0.30804  Biso   1.000  P
  O94      1.0000 0.08130  0.02880  0.29664  Biso   1.000  O
  O95      1.0000 0.19750  0.89300  0.27155  Biso   1.000  O
  O96      1.0000 0.25680  0.95150  0.34249  Biso   1.000  O
  H32      1.0000 0.02550  0.90220  0.32190  Biso   1.000  H
  Zn1      1.0000 0.37500  0.37500  0.01083  Biso   1.000  Zn
  Zn2      1.0000 0.37500  0.87500  0.51083  Biso   1.000  Zn
  Zn3      1.0000 0.87500  0.37500  0.51083  Biso   1.000  Zn
  Zn4      1.0000 0.87500  0.87500  0.01083  Biso   1.000  Zn
  Zn5      1.0000 0.37500  0.37500  0.73917  Biso   1.000  Zn
  Zn6      1.0000 0.37500  0.87500  0.23917  Biso   1.000  Zn
  Zn7      1.0000 0.87500  0.37500  0.23917  Biso   1.000  Zn
  Zn8      1.0000 0.87500  0.87500  0.73917  Biso   1.000  Zn
  Zn9      1.0000 0.62500  0.62500  0.98917  Biso   1.000  Zn
  Zn10     1.0000 0.62500  0.12500  0.48917  Biso   1.000  Zn
  Zn11     1.0000 0.12500  0.62500  0.48917  Biso   1.000  Zn
  Zn12     1.0000 0.12500  0.12500  0.98917  Biso   1.000  Zn
  Zn13     1.0000 0.62500  0.62500  0.26083  Biso   1.000  Zn
  Zn14     1.0000 0.62500  0.12500  0.76083  Biso   1.000  Zn
  Zn15     1.0000 0.12500  0.62500  0.76083  Biso   1.000  Zn
  Zn16     1.0000 0.12500  0.12500  0.26083  Biso   1.000  Zn
  Zn17     1.0000 0.12500  0.12500  0.12500  Biso   1.000  Zn
  Zn18     1.0000 0.12500  0.62500  0.62500  Biso   1.000  Zn
  Zn19     1.0000 0.62500  0.12500  0.62500  Biso   1.000  Zn
  Zn20     1.0000 0.62500  0.62500  0.12500  Biso   1.000  Zn
  Zn21     1.0000 0.87500  0.87500  0.87500  Biso   1.000  Zn
  Zn22     1.0000 0.87500  0.37500  0.37500  Biso   1.000  Zn
  Zn23     1.0000 0.37500  0.87500  0.37500  Biso   1.000  Zn
  Zn24     1.0000 0.37500  0.37500  0.87500  Biso   1.000  Zn
