data_VEHNED_clean
_audit_creation_date              2014-07-02
_audit_creation_method            'Materials Studio'
_symmetry_space_group_name_H-M    'P1'
_symmetry_Int_Tables_number       1
_symmetry_cell_setting            triclinic
loop_
_symmetry_equiv_pos_as_xyz
  x,y,z
_cell_length_a                    12.6060
_cell_length_b                    12.6060
_cell_length_c                    19.6680
_cell_angle_alpha                 90.0000
_cell_angle_beta                  90.0000
_cell_angle_gamma                 120.0000
loop_
_atom_site_label
_atom_site_type_symbol
_atom_site_fract_x
_atom_site_fract_y
_atom_site_fract_z
_atom_site_U_iso_or_equiv
_atom_site_adp_type
_atom_site_occupancy
Na1    Na    0.68830   0.17800   0.56747   0.01267  Uiso   1.00
Na2    Na    0.19940   0.02620   0.53480   0.01267  Uiso   1.00
Na3    Na    0.48970   0.31170   0.56747   0.01267  Uiso   1.00
Na4    Na    0.82680   0.80060   0.53480   0.01267  Uiso   1.00
Na5    Na    0.82200   0.51030   0.56747   0.01267  Uiso   1.00
Na6    Na    0.97380   0.17320   0.53480   0.01267  Uiso   1.00
Na7    Na    0.31170   0.82200   0.06747   0.01267  Uiso   1.00
Na8    Na    0.80060   0.97380   0.03480   0.01267  Uiso   1.00
Na9    Na    0.51030   0.68830   0.06747   0.01267  Uiso   1.00
Na10   Na    0.17320   0.19940   0.03480   0.01267  Uiso   1.00
Na11   Na    0.17800   0.48970   0.06747   0.01267  Uiso   1.00
Na12   Na    0.02620   0.82680   0.03480   0.01267  Uiso   1.00
Na13   Na    0.31170   0.82200   0.43253   0.01267  Uiso   1.00
Na14   Na    0.80060   0.97380   0.46520   0.01267  Uiso   1.00
Na15   Na    0.51030   0.68830   0.43253   0.01267  Uiso   1.00
Na16   Na    0.17320   0.19940   0.46520   0.01267  Uiso   1.00
Na17   Na    0.17800   0.48970   0.43253   0.01267  Uiso   1.00
Na18   Na    0.02620   0.82680   0.46520   0.01267  Uiso   1.00
Na19   Na    0.68830   0.17800   0.93253   0.01267  Uiso   1.00
Na20   Na    0.19940   0.02620   0.96520   0.01267  Uiso   1.00
Na21   Na    0.48970   0.31170   0.93253   0.01267  Uiso   1.00
Na22   Na    0.82680   0.80060   0.96520   0.01267  Uiso   1.00
Na23   Na    0.82200   0.51030   0.93253   0.01267  Uiso   1.00
Na24   Na    0.97380   0.17320   0.96520   0.01267  Uiso   1.00
Ni1    Ni    0.66667   0.33334   0.42343   0.01267  Uiso   1.00
Ni2    Ni    0.33333   0.66666   0.92343   0.01267  Uiso   1.00
Ni3    Ni    0.33333   0.66666   0.57657   0.01267  Uiso   1.00
Ni4    Ni    0.66667   0.33334   0.07657   0.01267  Uiso   1.00
H1     H     0.82720   0.17070   0.35190   0.01267  Uiso   1.00
H2     H     0.34350   0.17280   0.35190   0.01267  Uiso   1.00
H3     H     0.82930   0.65650   0.35190   0.01267  Uiso   1.00
H4     H     0.17280   0.82930   0.85190   0.01267  Uiso   1.00
H5     H     0.65650   0.82720   0.85190   0.01267  Uiso   1.00
H6     H     0.17070   0.34350   0.85190   0.01267  Uiso   1.00
H7     H     0.17280   0.82930   0.64810   0.01267  Uiso   1.00
H8     H     0.65650   0.82720   0.64810   0.01267  Uiso   1.00
H9     H     0.17070   0.34350   0.64810   0.01267  Uiso   1.00
H10    H     0.82720   0.17070   0.14810   0.01267  Uiso   1.00
H11    H     0.34350   0.17280   0.14810   0.01267  Uiso   1.00
H12    H     0.82930   0.65650   0.14810   0.01267  Uiso   1.00
H13    H     0.54550   0.15210   0.25000   0.01267  Uiso   1.00
H14    H     0.92030   0.17770   0.25000   0.01267  Uiso   1.00
H15    H     0.60660   0.45450   0.25000   0.01267  Uiso   1.00
H16    H     0.25740   0.07970   0.25000   0.01267  Uiso   1.00
H17    H     0.84790   0.39340   0.25000   0.01267  Uiso   1.00
H18    H     0.82230   0.74260   0.25000   0.01267  Uiso   1.00
H19    H     0.45450   0.84790   0.75000   0.01267  Uiso   1.00
H20    H     0.07970   0.82230   0.75000   0.01267  Uiso   1.00
H21    H     0.39340   0.54550   0.75000   0.01267  Uiso   1.00
H22    H     0.74260   0.92030   0.75000   0.01267  Uiso   1.00
H23    H     0.15210   0.60660   0.75000   0.01267  Uiso   1.00
H24    H     0.17770   0.25740   0.75000   0.01267  Uiso   1.00
C1     C     0.47110   0.09830   0.46030   0.01267  Uiso   1.00
C2     C     0.53000   0.07720   0.39550   0.01267  Uiso   1.00
C3     C     0.67820   0.16470   0.31120   0.01267  Uiso   1.00
C4     C     0.78930   0.16960   0.31110   0.01267  Uiso   1.00
C5     C     0.62720   0.52890   0.46030   0.01267  Uiso   1.00
C6     C     0.54720   0.47000   0.39550   0.01267  Uiso   1.00
C7     C     0.48650   0.32180   0.31120   0.01267  Uiso   1.00
C8     C     0.38030   0.21070   0.31110   0.01267  Uiso   1.00
C9     C     0.90170   0.37280   0.46030   0.01267  Uiso   1.00
C10    C     0.92280   0.45280   0.39550   0.01267  Uiso   1.00
C11    C     0.83530   0.51350   0.31120   0.01267  Uiso   1.00
C12    C     0.83040   0.61970   0.31110   0.01267  Uiso   1.00
C13    C     0.52890   0.90170   0.96030   0.01267  Uiso   1.00
C14    C     0.47000   0.92280   0.89550   0.01267  Uiso   1.00
C15    C     0.32180   0.83530   0.81120   0.01267  Uiso   1.00
C16    C     0.21070   0.83040   0.81110   0.01267  Uiso   1.00
C17    C     0.37280   0.47110   0.96030   0.01267  Uiso   1.00
C18    C     0.45280   0.53000   0.89550   0.01267  Uiso   1.00
C19    C     0.51350   0.67820   0.81120   0.01267  Uiso   1.00
C20    C     0.61970   0.78930   0.81110   0.01267  Uiso   1.00
C21    C     0.09830   0.62720   0.96030   0.01267  Uiso   1.00
C22    C     0.07720   0.54720   0.89550   0.01267  Uiso   1.00
C23    C     0.16470   0.48650   0.81120   0.01267  Uiso   1.00
C24    C     0.16960   0.38030   0.81110   0.01267  Uiso   1.00
C25    C     0.52890   0.90170   0.53970   0.01267  Uiso   1.00
C26    C     0.47000   0.92280   0.60450   0.01267  Uiso   1.00
C27    C     0.32180   0.83530   0.68880   0.01267  Uiso   1.00
C28    C     0.21070   0.83040   0.68890   0.01267  Uiso   1.00
C29    C     0.37280   0.47110   0.53970   0.01267  Uiso   1.00
C30    C     0.45280   0.53000   0.60450   0.01267  Uiso   1.00
C31    C     0.51350   0.67820   0.68880   0.01267  Uiso   1.00
C32    C     0.61970   0.78930   0.68890   0.01267  Uiso   1.00
C33    C     0.09830   0.62720   0.53970   0.01267  Uiso   1.00
C34    C     0.07720   0.54720   0.60450   0.01267  Uiso   1.00
C35    C     0.16470   0.48650   0.68880   0.01267  Uiso   1.00
C36    C     0.16960   0.38030   0.68890   0.01267  Uiso   1.00
C37    C     0.47110   0.09830   0.03970   0.01267  Uiso   1.00
C38    C     0.53000   0.07720   0.10450   0.01267  Uiso   1.00
C39    C     0.67820   0.16470   0.18880   0.01267  Uiso   1.00
C40    C     0.78930   0.16960   0.18890   0.01267  Uiso   1.00
C41    C     0.62720   0.52890   0.03970   0.01267  Uiso   1.00
C42    C     0.54720   0.47000   0.10450   0.01267  Uiso   1.00
C43    C     0.48650   0.32180   0.18880   0.01267  Uiso   1.00
C44    C     0.38030   0.21070   0.18890   0.01267  Uiso   1.00
C45    C     0.90170   0.37280   0.03970   0.01267  Uiso   1.00
C46    C     0.92280   0.45280   0.10450   0.01267  Uiso   1.00
C47    C     0.83530   0.51350   0.18880   0.01267  Uiso   1.00
C48    C     0.83040   0.61970   0.18890   0.01267  Uiso   1.00
C49    C     0.62270   0.15950   0.25000   0.01267  Uiso   1.00
C50    C     0.84430   0.17300   0.25000   0.01267  Uiso   1.00
C51    C     0.53680   0.37730   0.25000   0.01267  Uiso   1.00
C52    C     0.32870   0.15570   0.25000   0.01267  Uiso   1.00
C53    C     0.84050   0.46320   0.25000   0.01267  Uiso   1.00
C54    C     0.82700   0.67130   0.25000   0.01267  Uiso   1.00
C55    C     0.37730   0.84050   0.75000   0.01267  Uiso   1.00
C56    C     0.15570   0.82700   0.75000   0.01267  Uiso   1.00
C57    C     0.46320   0.62270   0.75000   0.01267  Uiso   1.00
C58    C     0.67130   0.84430   0.75000   0.01267  Uiso   1.00
C59    C     0.15950   0.53680   0.75000   0.01267  Uiso   1.00
C60    C     0.17300   0.32870   0.75000   0.01267  Uiso   1.00
N1     N     0.62490   0.17350   0.37340   0.01267  Uiso   1.00
N2     N     0.54860   0.37510   0.37340   0.01267  Uiso   1.00
N3     N     0.82650   0.45140   0.37340   0.01267  Uiso   1.00
N4     N     0.37510   0.82650   0.87340   0.01267  Uiso   1.00
N5     N     0.45140   0.62490   0.87340   0.01267  Uiso   1.00
N6     N     0.17350   0.54860   0.87340   0.01267  Uiso   1.00
N7     N     0.37510   0.82650   0.62660   0.01267  Uiso   1.00
N8     N     0.45140   0.62490   0.62660   0.01267  Uiso   1.00
N9     N     0.17350   0.54860   0.62660   0.01267  Uiso   1.00
N10    N     0.62490   0.17350   0.12660   0.01267  Uiso   1.00
N11    N     0.54860   0.37510   0.12660   0.01267  Uiso   1.00
N12    N     0.82650   0.45140   0.12660   0.01267  Uiso   1.00
O1     O     0.52890   0.20320   0.48710   0.01267  Uiso   1.00
O2     O     0.37250   0.01310   0.48040   0.01267  Uiso   1.00
O3     O     0.47730   0.96730   0.37250   0.01267  Uiso   1.00
O4     O     0.67430   0.47110   0.48710   0.01267  Uiso   1.00
O5     O     0.64060   0.62750   0.48040   0.01267  Uiso   1.00
O6     O     0.49000   0.52270   0.37250   0.01267  Uiso   1.00
O7     O     0.79680   0.32570   0.48710   0.01267  Uiso   1.00
O8     O     0.98690   0.35940   0.48040   0.01267  Uiso   1.00
O9     O     0.03270   0.51000   0.37250   0.01267  Uiso   1.00
O10    O     0.47110   0.79680   0.98710   0.01267  Uiso   1.00
O11    O     0.62750   0.98690   0.98040   0.01267  Uiso   1.00
O12    O     0.52270   0.03270   0.87250   0.01267  Uiso   1.00
O13    O     0.32570   0.52890   0.98710   0.01267  Uiso   1.00
O14    O     0.35940   0.37250   0.98040   0.01267  Uiso   1.00
O15    O     0.51000   0.47730   0.87250   0.01267  Uiso   1.00
O16    O     0.20320   0.67430   0.98710   0.01267  Uiso   1.00
O17    O     0.01310   0.64060   0.98040   0.01267  Uiso   1.00
O18    O     0.96730   0.49000   0.87250   0.01267  Uiso   1.00
O19    O     0.47110   0.79680   0.51290   0.01267  Uiso   1.00
O20    O     0.62750   0.98690   0.51960   0.01267  Uiso   1.00
O21    O     0.52270   0.03270   0.62750   0.01267  Uiso   1.00
O22    O     0.32570   0.52890   0.51290   0.01267  Uiso   1.00
O23    O     0.35940   0.37250   0.51960   0.01267  Uiso   1.00
O24    O     0.51000   0.47730   0.62750   0.01267  Uiso   1.00
O25    O     0.20320   0.67430   0.51290   0.01267  Uiso   1.00
O26    O     0.01310   0.64060   0.51960   0.01267  Uiso   1.00
O27    O     0.96730   0.49000   0.62750   0.01267  Uiso   1.00
O28    O     0.52890   0.20320   0.01290   0.01267  Uiso   1.00
O29    O     0.37250   0.01310   0.01960   0.01267  Uiso   1.00
O30    O     0.47730   0.96730   0.12750   0.01267  Uiso   1.00
O31    O     0.67430   0.47110   0.01290   0.01267  Uiso   1.00
O32    O     0.64060   0.62750   0.01960   0.01267  Uiso   1.00
O33    O     0.49000   0.52270   0.12750   0.01267  Uiso   1.00
O34    O     0.79680   0.32570   0.01290   0.01267  Uiso   1.00
O35    O     0.98690   0.35940   0.01960   0.01267  Uiso   1.00
O36    O     0.03270   0.51000   0.12750   0.01267  Uiso   1.00
O37    O     0.66667   0.33334   0.64550   0.01267  Uiso   1.00
O38    O     0.33333   0.66666   0.14550   0.01267  Uiso   1.00
O39    O     0.33333   0.66666   0.35450   0.01267  Uiso   1.00
O40    O     0.66667   0.33334   0.85450   0.01267  Uiso   1.00
