data_VEHNAZ_charged
_audit_creation_date              2014-07-02
_audit_creation_method            'Materials Studio'
_symmetry_space_group_name_H-M    'P1'
_symmetry_Int_Tables_number       1
_symmetry_cell_setting            triclinic
loop_
_symmetry_equiv_pos_as_xyz
  x,y,z
_cell_length_a                    22.2357
_cell_length_b                    22.2357
_cell_length_c                    23.1424
_cell_angle_alpha                 118.7120
_cell_angle_beta                  118.7120
_cell_angle_gamma                 90.0000
loop_
_atom_site_label
_atom_site_type_symbol
_atom_site_fract_x
_atom_site_fract_y
_atom_site_fract_z
_atom_site_U_iso_or_equiv
_atom_site_adp_type
_atom_site_occupancy
Co1    Co    0.78970   0.80618   0.75400   0.01267  Uiso   1.00
Co2    Co    0.96430   0.94782   0.75400   0.01267  Uiso   1.00
Co3    Co    0.96430   0.80618   0.75400   0.01267  Uiso   1.00
Co4    Co    0.78970   0.94782   0.75400   0.01267  Uiso   1.00
Co5    Co    0.88187   0.07683   0.76374   0.01267  Uiso   1.00
Co6    Co    0.88187   0.68691   0.76374   0.01267  Uiso   1.00
H1     H     0.76680   0.83190   0.90020   0.01267  Uiso   1.00
H2     H     0.89810   0.71600   0.93280   0.01267  Uiso   1.00
H3     H     0.95040   0.81430   0.07700   0.01267  Uiso   1.00
H4     H     0.95780   0.84020   0.19200   0.01267  Uiso   1.00
H5     H     0.74590   0.81080   0.08580   0.01267  Uiso   1.00
H6     H     0.73940   0.79560   0.97840   0.01267  Uiso   1.00
H7     H     0.91250   0.87350   0.27100   0.01267  Uiso   1.00
H8     H     0.86190   0.79580   0.22360   0.01267  Uiso   1.00
H9     H     0.80300   0.90880   0.23580   0.01267  Uiso   1.00
H10    H     0.76780   0.83450   0.21620   0.01267  Uiso   1.00
H11    H     0.83320   0.80830   0.31540   0.01267  Uiso   1.00
H12    H     0.85450   0.83860   0.43520   0.01267  Uiso   1.00
H13    H     0.89540   0.04460   0.50460   0.01267  Uiso   1.00
H14    H     0.86900   0.00820   0.38040   0.01267  Uiso   1.00
H15    H     0.86360   0.05730   0.59620   0.01267  Uiso   1.00
H16    H     0.93040   0.88830   0.57540   0.01267  Uiso   1.00
H17    H     0.13340   0.06830   0.90020   0.01267  Uiso   1.00
H18    H     0.03470   0.21680   0.93280   0.01267  Uiso   1.00
H19    H     0.12660   0.26270   0.07700   0.01267  Uiso   1.00
H20    H     0.23420   0.35180   0.19200   0.01267  Uiso   1.00
H21    H     0.33990   0.27500   0.08580   0.01267  Uiso   1.00
H22    H     0.23900   0.18280   0.97840   0.01267  Uiso   1.00
H23    H     0.35850   0.39750   0.27100   0.01267  Uiso   1.00
H24    H     0.36170   0.42780   0.22360   0.01267  Uiso   1.00
H25    H     0.43280   0.32700   0.23580   0.01267  Uiso   1.00
H26    H     0.44840   0.38170   0.21620   0.01267  Uiso   1.00
H27    H     0.48220   0.50710   0.31540   0.01267  Uiso   1.00
H28    H     0.58070   0.59660   0.43520   0.01267  Uiso   1.00
H29    H     0.60920   0.46000   0.50460   0.01267  Uiso   1.00
H30    H     0.51140   0.37220   0.38040   0.01267  Uiso   1.00
H31    H     0.73260   0.53890   0.59620   0.01267  Uiso   1.00
H32    H     0.64500   0.68710   0.57540   0.01267  Uiso   1.00
H33    H     0.13340   0.83190   0.90020   0.01267  Uiso   1.00
H34    H     0.03470   0.71600   0.93280   0.01267  Uiso   1.00
H35    H     0.12660   0.81430   0.07700   0.01267  Uiso   1.00
H36    H     0.23420   0.84020   0.19200   0.01267  Uiso   1.00
H37    H     0.33990   0.81080   0.08580   0.01267  Uiso   1.00
H38    H     0.23900   0.79560   0.97840   0.01267  Uiso   1.00
H39    H     0.35850   0.87350   0.27100   0.01267  Uiso   1.00
H40    H     0.36170   0.79580   0.22360   0.01267  Uiso   1.00
H41    H     0.43280   0.90880   0.23580   0.01267  Uiso   1.00
H42    H     0.44840   0.83450   0.21620   0.01267  Uiso   1.00
H43    H     0.48220   0.80830   0.31540   0.01267  Uiso   1.00
H44    H     0.58070   0.83860   0.43520   0.01267  Uiso   1.00
H45    H     0.60920   0.04460   0.50460   0.01267  Uiso   1.00
H46    H     0.51140   0.00820   0.38040   0.01267  Uiso   1.00
H47    H     0.73260   0.05730   0.59620   0.01267  Uiso   1.00
H48    H     0.64500   0.88830   0.57540   0.01267  Uiso   1.00
H49    H     0.76680   0.06830   0.90020   0.01267  Uiso   1.00
H50    H     0.89810   0.21680   0.93280   0.01267  Uiso   1.00
H51    H     0.95040   0.26270   0.07700   0.01267  Uiso   1.00
H52    H     0.95780   0.35180   0.19200   0.01267  Uiso   1.00
H53    H     0.74590   0.27500   0.08580   0.01267  Uiso   1.00
H54    H     0.73940   0.18280   0.97840   0.01267  Uiso   1.00
H55    H     0.91250   0.39750   0.27100   0.01267  Uiso   1.00
H56    H     0.86190   0.42780   0.22360   0.01267  Uiso   1.00
H57    H     0.80300   0.32700   0.23580   0.01267  Uiso   1.00
H58    H     0.76780   0.38170   0.21620   0.01267  Uiso   1.00
H59    H     0.83320   0.50710   0.31540   0.01267  Uiso   1.00
H60    H     0.85450   0.59660   0.43520   0.01267  Uiso   1.00
H61    H     0.89540   0.46000   0.50460   0.01267  Uiso   1.00
H62    H     0.86900   0.37220   0.38040   0.01267  Uiso   1.00
H63    H     0.86360   0.53890   0.59620   0.01267  Uiso   1.00
H64    H     0.93040   0.68710   0.57540   0.01267  Uiso   1.00
H65    H     0.62080   0.86240   0.72480   0.01267  Uiso   1.00
H66    H     0.10400   0.86240   0.72480   0.01267  Uiso   1.00
C1     C     0.79700   0.80380   0.89440   0.01267  Uiso   1.00
C2     C     0.86899   0.73959   0.91218   0.01267  Uiso   1.00
C3     C     0.84060   0.80000   0.01540   0.01267  Uiso   1.00
C4     C     0.91010   0.81460   0.07980   0.01267  Uiso   1.00
C5     C     0.91370   0.82960   0.14800   0.01267  Uiso   1.00
C6     C     0.85320   0.82890   0.15100   0.01267  Uiso   1.00
C7     C     0.78740   0.81340   0.08520   0.01267  Uiso   1.00
C8     C     0.78310   0.80210   0.02040   0.01267  Uiso   1.00
C9     C     0.86450   0.84140   0.22760   0.01267  Uiso   1.00
C10    C     0.81280   0.87170   0.24680   0.01267  Uiso   1.00
C11    C     0.85050   0.90460   0.33900   0.01267  Uiso   1.00
C12    C     0.84550   0.85640   0.35400   0.01267  Uiso   1.00
C13    C     0.85800   0.87420   0.42580   0.01267  Uiso   1.00
C14    C     0.87500   0.94280   0.48100   0.01267  Uiso   1.00
C15    C     0.88170   0.99620   0.46620   0.01267  Uiso   1.00
C16    C     0.86720   0.97430   0.39260   0.01267  Uiso   1.00
C17    C     0.88105   0.02325   0.60630   0.01267  Uiso   1.00
C18    C     0.91793   0.93023   0.59526   0.01267  Uiso   1.00
C19    C     0.09740   0.09060   0.89440   0.01267  Uiso   1.00
C20    C     0.04319   0.17259   0.91218   0.01267  Uiso   1.00
C21    C     0.17480   0.21540   0.01540   0.01267  Uiso   1.00
C22    C     0.16970   0.26520   0.07980   0.01267  Uiso   1.00
C23    C     0.23430   0.31840   0.14800   0.01267  Uiso   1.00
C24    C     0.29780   0.32210   0.15100   0.01267  Uiso   1.00
C25    C     0.29780   0.27180   0.08520   0.01267  Uiso   1.00
C26    C     0.23730   0.21830   0.02040   0.01267  Uiso   1.00
C27    C     0.36310   0.38620   0.22760   0.01267  Uiso   1.00
C28    C     0.43400   0.37510   0.24680   0.01267  Uiso   1.00
C29    C     0.48850   0.43440   0.33900   0.01267  Uiso   1.00
C30    C     0.50850   0.49760   0.35400   0.01267  Uiso   1.00
C31    C     0.56780   0.55160   0.42580   0.01267  Uiso   1.00
C32    C     0.60600   0.53820   0.48100   0.01267  Uiso   1.00
C33    C     0.58450   0.47000   0.46620   0.01267  Uiso   1.00
C34    C     0.52540   0.41830   0.39260   0.01267  Uiso   1.00
C35    C     0.72525   0.58305   0.60630   0.01267  Uiso   1.00
C36    C     0.67733   0.66503   0.59526   0.01267  Uiso   1.00
C37    C     0.09740   0.80380   0.89440   0.01267  Uiso   1.00
C38    C     0.04319   0.73959   0.91218   0.01267  Uiso   1.00
C39    C     0.17480   0.80000   0.01540   0.01267  Uiso   1.00
C40    C     0.16970   0.81460   0.07980   0.01267  Uiso   1.00
C41    C     0.23430   0.82960   0.14800   0.01267  Uiso   1.00
C42    C     0.29780   0.82890   0.15100   0.01267  Uiso   1.00
C43    C     0.29780   0.81340   0.08520   0.01267  Uiso   1.00
C44    C     0.23730   0.80210   0.02040   0.01267  Uiso   1.00
C45    C     0.36310   0.84140   0.22760   0.01267  Uiso   1.00
C46    C     0.43400   0.87170   0.24680   0.01267  Uiso   1.00
C47    C     0.48850   0.90460   0.33900   0.01267  Uiso   1.00
C48    C     0.50850   0.85640   0.35400   0.01267  Uiso   1.00
C49    C     0.56780   0.87420   0.42580   0.01267  Uiso   1.00
C50    C     0.60600   0.94280   0.48100   0.01267  Uiso   1.00
C51    C     0.58450   0.99620   0.46620   0.01267  Uiso   1.00
C52    C     0.52540   0.97430   0.39260   0.01267  Uiso   1.00
C53    C     0.72525   0.02325   0.60630   0.01267  Uiso   1.00
C54    C     0.67733   0.93023   0.59526   0.01267  Uiso   1.00
C55    C     0.79700   0.09060   0.89440   0.01267  Uiso   1.00
C56    C     0.86899   0.17259   0.91218   0.01267  Uiso   1.00
C57    C     0.84060   0.21540   0.01540   0.01267  Uiso   1.00
C58    C     0.91010   0.26520   0.07980   0.01267  Uiso   1.00
C59    C     0.91370   0.31840   0.14800   0.01267  Uiso   1.00
C60    C     0.85320   0.32210   0.15100   0.01267  Uiso   1.00
C61    C     0.78740   0.27180   0.08520   0.01267  Uiso   1.00
C62    C     0.78310   0.21830   0.02040   0.01267  Uiso   1.00
C63    C     0.86450   0.38620   0.22760   0.01267  Uiso   1.00
C64    C     0.81280   0.37510   0.24680   0.01267  Uiso   1.00
C65    C     0.85050   0.43440   0.33900   0.01267  Uiso   1.00
C66    C     0.84550   0.49760   0.35400   0.01267  Uiso   1.00
C67    C     0.85800   0.55160   0.42580   0.01267  Uiso   1.00
C68    C     0.87500   0.53820   0.48100   0.01267  Uiso   1.00
C69    C     0.88170   0.47000   0.46620   0.01267  Uiso   1.00
C70    C     0.86720   0.41830   0.39260   0.01267  Uiso   1.00
C71    C     0.88105   0.58305   0.60630   0.01267  Uiso   1.00
C72    C     0.91793   0.66503   0.59526   0.01267  Uiso   1.00
C73    C     0.66670   0.86700   0.73400   0.01267  Uiso   1.00
C74    C     0.89639   0.95659   0.91318   0.01267  Uiso   1.00
C75    C     0.06730   0.86700   0.73400   0.01267  Uiso   1.00
C76    C     0.01679   0.95659   0.91318   0.01267  Uiso   1.00
N1     N     0.80765   0.77925   0.83790   0.01267  Uiso   1.00
N2     N     0.85363   0.73603   0.84866   0.01267  Uiso   1.00
N3     N     0.83596   0.78316   0.94392   0.01267  Uiso   1.00
N4     N     0.89977   0.02377   0.67094   0.01267  Uiso   1.00
N5     N     0.92292   0.96332   0.66144   0.01267  Uiso   1.00
N6     N     0.89142   0.96572   0.55844   0.01267  Uiso   1.00
N7     N     0.03025   0.05865   0.83790   0.01267  Uiso   1.00
N8     N     0.99503   0.11263   0.84866   0.01267  Uiso   1.00
N9     N     0.10796   0.16076   0.94392   0.01267  Uiso   1.00
N10    N     0.77117   0.64717   0.67094   0.01267  Uiso   1.00
N11    N     0.73852   0.69812   0.66144   0.01267  Uiso   1.00
N12    N     0.66702   0.59272   0.55844   0.01267  Uiso   1.00
N13    N     0.03025   0.77925   0.83790   0.01267  Uiso   1.00
N14    N     0.99503   0.73603   0.84866   0.01267  Uiso   1.00
N15    N     0.10796   0.78316   0.94392   0.01267  Uiso   1.00
N16    N     0.77117   0.02377   0.67094   0.01267  Uiso   1.00
N17    N     0.73852   0.96332   0.66144   0.01267  Uiso   1.00
N18    N     0.66702   0.96572   0.55844   0.01267  Uiso   1.00
N19    N     0.80765   0.05865   0.83790   0.01267  Uiso   1.00
N20    N     0.85363   0.11263   0.84866   0.01267  Uiso   1.00
N21    N     0.83596   0.16076   0.94392   0.01267  Uiso   1.00
N22    N     0.89977   0.64717   0.67094   0.01267  Uiso   1.00
N23    N     0.92292   0.69812   0.66144   0.01267  Uiso   1.00
N24    N     0.89142   0.59272   0.55844   0.01267  Uiso   1.00
O1     O     0.69300   0.81882   0.73924   0.01267  Uiso   1.00
O2     O     0.92730   0.01600   0.93280   0.01267  Uiso   1.00
O3     O     0.04624   0.92042   0.73924   0.01267  Uiso   1.00
O4     O     0.00550   0.91680   0.93280   0.01267  Uiso   1.00
O5     O     0.04624   0.81882   0.73924   0.01267  Uiso   1.00
O6     O     0.00550   0.01600   0.93280   0.01267  Uiso   1.00
O7     O     0.69300   0.92042   0.73924   0.01267  Uiso   1.00
O8     O     0.92730   0.91680   0.93280   0.01267  Uiso   1.00
O9     O     0.88899   0.98949   0.77798   0.01267  Uiso   1.00
O10    O     0.88899   0.78849   0.77798   0.01267  Uiso   1.00
O11    O     0.78388   0.84188   0.68376   0.01267  Uiso   1.00
O12    O     0.84124   0.92264   0.84528   0.01267  Uiso   1.00
O13    O     0.89988   0.84188   0.68376   0.01267  Uiso   1.00
O14    O     0.00404   0.92264   0.84528   0.01267  Uiso   1.00
Co7    Co    0.05618   0.71430   0.25400   0.01267  Uiso   1.00
Co8    Co    0.19782   0.53970   0.25400   0.01267  Uiso   1.00
Co9    Co    0.19782   0.71430   0.25400   0.01267  Uiso   1.00
Co10   Co    0.05618   0.53970   0.25400   0.01267  Uiso   1.00
Co11   Co    0.32683   0.63187   0.26374   0.01267  Uiso   1.00
Co12   Co    0.93691   0.63187   0.26374   0.01267  Uiso   1.00
H67    H     0.08190   0.88340   0.40020   0.01267  Uiso   1.00
H68    H     0.96600   0.78470   0.43280   0.01267  Uiso   1.00
H69    H     0.06430   0.87660   0.57700   0.01267  Uiso   1.00
H70    H     0.09020   0.98420   0.69200   0.01267  Uiso   1.00
H71    H     0.06080   0.08990   0.58580   0.01267  Uiso   1.00
H72    H     0.04560   0.98900   0.47840   0.01267  Uiso   1.00
H73    H     0.12350   0.10850   0.77100   0.01267  Uiso   1.00
H74    H     0.04580   0.11170   0.72360   0.01267  Uiso   1.00
H75    H     0.15880   0.18280   0.73580   0.01267  Uiso   1.00
H76    H     0.08450   0.19840   0.71620   0.01267  Uiso   1.00
H77    H     0.05830   0.23220   0.81540   0.01267  Uiso   1.00
H78    H     0.08860   0.33070   0.93520   0.01267  Uiso   1.00
H79    H     0.29460   0.35920   0.00460   0.01267  Uiso   1.00
H80    H     0.25820   0.26140   0.88040   0.01267  Uiso   1.00
H81    H     0.30730   0.48260   0.09620   0.01267  Uiso   1.00
H82    H     0.13830   0.39500   0.07540   0.01267  Uiso   1.00
H83    H     0.31830   0.51680   0.40020   0.01267  Uiso   1.00
H84    H     0.46680   0.64810   0.43280   0.01267  Uiso   1.00
H85    H     0.51270   0.70040   0.57700   0.01267  Uiso   1.00
H86    H     0.60180   0.70780   0.69200   0.01267  Uiso   1.00
H87    H     0.52500   0.49590   0.58580   0.01267  Uiso   1.00
H88    H     0.43280   0.48940   0.47840   0.01267  Uiso   1.00
H89    H     0.64750   0.66250   0.77100   0.01267  Uiso   1.00
H90    H     0.67780   0.61190   0.72360   0.01267  Uiso   1.00
H91    H     0.57700   0.55300   0.73580   0.01267  Uiso   1.00
H92    H     0.63170   0.51780   0.71620   0.01267  Uiso   1.00
H93    H     0.75710   0.58320   0.81540   0.01267  Uiso   1.00
H94    H     0.84660   0.60450   0.93520   0.01267  Uiso   1.00
H95    H     0.71000   0.64540   0.00460   0.01267  Uiso   1.00
H96    H     0.62220   0.61900   0.88040   0.01267  Uiso   1.00
H97    H     0.78890   0.61360   0.09620   0.01267  Uiso   1.00
H98    H     0.93710   0.68040   0.07540   0.01267  Uiso   1.00
H99    H     0.31830   0.88340   0.40020   0.01267  Uiso   1.00
H100   H     0.46680   0.78470   0.43280   0.01267  Uiso   1.00
H101   H     0.51270   0.87660   0.57700   0.01267  Uiso   1.00
H102   H     0.60180   0.98420   0.69200   0.01267  Uiso   1.00
H103   H     0.52500   0.08990   0.58580   0.01267  Uiso   1.00
H104   H     0.43280   0.98900   0.47840   0.01267  Uiso   1.00
H105   H     0.64750   0.10850   0.77100   0.01267  Uiso   1.00
H106   H     0.67780   0.11170   0.72360   0.01267  Uiso   1.00
H107   H     0.57700   0.18280   0.73580   0.01267  Uiso   1.00
H108   H     0.63170   0.19840   0.71620   0.01267  Uiso   1.00
H109   H     0.75710   0.23220   0.81540   0.01267  Uiso   1.00
H110   H     0.84660   0.33070   0.93520   0.01267  Uiso   1.00
H111   H     0.71000   0.35920   0.00460   0.01267  Uiso   1.00
H112   H     0.62220   0.26140   0.88040   0.01267  Uiso   1.00
H113   H     0.78890   0.48260   0.09620   0.01267  Uiso   1.00
H114   H     0.93710   0.39500   0.07540   0.01267  Uiso   1.00
H115   H     0.08190   0.51680   0.40020   0.01267  Uiso   1.00
H116   H     0.96600   0.64810   0.43280   0.01267  Uiso   1.00
H117   H     0.06430   0.70040   0.57700   0.01267  Uiso   1.00
H118   H     0.09020   0.70780   0.69200   0.01267  Uiso   1.00
H119   H     0.06080   0.49590   0.58580   0.01267  Uiso   1.00
H120   H     0.04560   0.48940   0.47840   0.01267  Uiso   1.00
H121   H     0.12350   0.66250   0.77100   0.01267  Uiso   1.00
H122   H     0.04580   0.61190   0.72360   0.01267  Uiso   1.00
H123   H     0.15880   0.55300   0.73580   0.01267  Uiso   1.00
H124   H     0.08450   0.51780   0.71620   0.01267  Uiso   1.00
H125   H     0.05830   0.58320   0.81540   0.01267  Uiso   1.00
H126   H     0.08860   0.60450   0.93520   0.01267  Uiso   1.00
H127   H     0.29460   0.64540   0.00460   0.01267  Uiso   1.00
H128   H     0.25820   0.61900   0.88040   0.01267  Uiso   1.00
H129   H     0.30730   0.61360   0.09620   0.01267  Uiso   1.00
H130   H     0.13830   0.68040   0.07540   0.01267  Uiso   1.00
H131   H     0.11240   0.85400   0.22480   0.01267  Uiso   1.00
H132   H     0.11240   0.37080   0.22480   0.01267  Uiso   1.00
C77    C     0.05380   0.84740   0.39440   0.01267  Uiso   1.00
C78    C     0.98959   0.79319   0.41218   0.01267  Uiso   1.00
C79    C     0.05000   0.92480   0.51540   0.01267  Uiso   1.00
C80    C     0.06460   0.91970   0.57980   0.01267  Uiso   1.00
C81    C     0.07960   0.98430   0.64800   0.01267  Uiso   1.00
C82    C     0.07890   0.04780   0.65100   0.01267  Uiso   1.00
C83    C     0.06340   0.04780   0.58520   0.01267  Uiso   1.00
C84    C     0.05210   0.98730   0.52040   0.01267  Uiso   1.00
C85    C     0.09140   0.11310   0.72760   0.01267  Uiso   1.00
C86    C     0.12170   0.18400   0.74680   0.01267  Uiso   1.00
C87    C     0.15460   0.23850   0.83900   0.01267  Uiso   1.00
C88    C     0.10640   0.25850   0.85400   0.01267  Uiso   1.00
C89    C     0.12420   0.31780   0.92580   0.01267  Uiso   1.00
C90    C     0.19280   0.35600   0.98100   0.01267  Uiso   1.00
C91    C     0.24620   0.33450   0.96620   0.01267  Uiso   1.00
C92    C     0.22430   0.27540   0.89260   0.01267  Uiso   1.00
C93    C     0.27325   0.47525   0.10630   0.01267  Uiso   1.00
C94    C     0.18023   0.42733   0.09526   0.01267  Uiso   1.00
C95    C     0.34060   0.54700   0.39440   0.01267  Uiso   1.00
C96    C     0.42259   0.61899   0.41218   0.01267  Uiso   1.00
C97    C     0.46540   0.59060   0.51540   0.01267  Uiso   1.00
C98    C     0.51520   0.66010   0.57980   0.01267  Uiso   1.00
C99    C     0.56840   0.66370   0.64800   0.01267  Uiso   1.00
C100   C     0.57210   0.60320   0.65100   0.01267  Uiso   1.00
C101   C     0.52180   0.53740   0.58520   0.01267  Uiso   1.00
C102   C     0.46830   0.53310   0.52040   0.01267  Uiso   1.00
C103   C     0.63620   0.61450   0.72760   0.01267  Uiso   1.00
C104   C     0.62510   0.56280   0.74680   0.01267  Uiso   1.00
C105   C     0.68440   0.60050   0.83900   0.01267  Uiso   1.00
C106   C     0.74760   0.59550   0.85400   0.01267  Uiso   1.00
C107   C     0.80160   0.60800   0.92580   0.01267  Uiso   1.00
C108   C     0.78820   0.62500   0.98100   0.01267  Uiso   1.00
C109   C     0.72000   0.63170   0.96620   0.01267  Uiso   1.00
C110   C     0.66830   0.61720   0.89260   0.01267  Uiso   1.00
C111   C     0.83305   0.63105   0.10630   0.01267  Uiso   1.00
C112   C     0.91503   0.66793   0.09526   0.01267  Uiso   1.00
C113   C     0.34060   0.84740   0.39440   0.01267  Uiso   1.00
C114   C     0.42259   0.79319   0.41218   0.01267  Uiso   1.00
C115   C     0.46540   0.92480   0.51540   0.01267  Uiso   1.00
C116   C     0.51520   0.91970   0.57980   0.01267  Uiso   1.00
C117   C     0.56840   0.98430   0.64800   0.01267  Uiso   1.00
C118   C     0.57210   0.04780   0.65100   0.01267  Uiso   1.00
C119   C     0.52180   0.04780   0.58520   0.01267  Uiso   1.00
C120   C     0.46830   0.98730   0.52040   0.01267  Uiso   1.00
C121   C     0.63620   0.11310   0.72760   0.01267  Uiso   1.00
C122   C     0.62510   0.18400   0.74680   0.01267  Uiso   1.00
C123   C     0.68440   0.23850   0.83900   0.01267  Uiso   1.00
C124   C     0.74760   0.25850   0.85400   0.01267  Uiso   1.00
C125   C     0.80160   0.31780   0.92580   0.01267  Uiso   1.00
C126   C     0.78820   0.35600   0.98100   0.01267  Uiso   1.00
C127   C     0.72000   0.33450   0.96620   0.01267  Uiso   1.00
C128   C     0.66830   0.27540   0.89260   0.01267  Uiso   1.00
C129   C     0.83305   0.47525   0.10630   0.01267  Uiso   1.00
C130   C     0.91503   0.42733   0.09526   0.01267  Uiso   1.00
C131   C     0.05380   0.54700   0.39440   0.01267  Uiso   1.00
C132   C     0.98959   0.61899   0.41218   0.01267  Uiso   1.00
C133   C     0.05000   0.59060   0.51540   0.01267  Uiso   1.00
C134   C     0.06460   0.66010   0.57980   0.01267  Uiso   1.00
C135   C     0.07960   0.66370   0.64800   0.01267  Uiso   1.00
C136   C     0.07890   0.60320   0.65100   0.01267  Uiso   1.00
C137   C     0.06340   0.53740   0.58520   0.01267  Uiso   1.00
C138   C     0.05210   0.53310   0.52040   0.01267  Uiso   1.00
C139   C     0.09140   0.61450   0.72760   0.01267  Uiso   1.00
C140   C     0.12170   0.56280   0.74680   0.01267  Uiso   1.00
C141   C     0.15460   0.60050   0.83900   0.01267  Uiso   1.00
C142   C     0.10640   0.59550   0.85400   0.01267  Uiso   1.00
C143   C     0.12420   0.60800   0.92580   0.01267  Uiso   1.00
C144   C     0.19280   0.62500   0.98100   0.01267  Uiso   1.00
C145   C     0.24620   0.63170   0.96620   0.01267  Uiso   1.00
C146   C     0.22430   0.61720   0.89260   0.01267  Uiso   1.00
C147   C     0.27325   0.63105   0.10630   0.01267  Uiso   1.00
C148   C     0.18023   0.66793   0.09526   0.01267  Uiso   1.00
C149   C     0.11700   0.81730   0.23400   0.01267  Uiso   1.00
C150   C     0.20659   0.76679   0.41318   0.01267  Uiso   1.00
C151   C     0.11700   0.41670   0.23400   0.01267  Uiso   1.00
C152   C     0.20659   0.64639   0.41318   0.01267  Uiso   1.00
N25    N     0.02925   0.78025   0.33790   0.01267  Uiso   1.00
N26    N     0.98603   0.74503   0.34866   0.01267  Uiso   1.00
N27    N     0.03316   0.85796   0.44392   0.01267  Uiso   1.00
N28    N     0.27377   0.52117   0.17094   0.01267  Uiso   1.00
N29    N     0.21332   0.48852   0.16144   0.01267  Uiso   1.00
N30    N     0.21572   0.41702   0.05844   0.01267  Uiso   1.00
N31    N     0.30865   0.55765   0.33790   0.01267  Uiso   1.00
N32    N     0.36263   0.60363   0.34866   0.01267  Uiso   1.00
N33    N     0.41076   0.58596   0.44392   0.01267  Uiso   1.00
N34    N     0.89717   0.64977   0.17094   0.01267  Uiso   1.00
N35    N     0.94812   0.67292   0.16144   0.01267  Uiso   1.00
N36    N     0.84272   0.64142   0.05844   0.01267  Uiso   1.00
N37    N     0.30865   0.78025   0.33790   0.01267  Uiso   1.00
N38    N     0.36263   0.74503   0.34866   0.01267  Uiso   1.00
N39    N     0.41076   0.85796   0.44392   0.01267  Uiso   1.00
N40    N     0.89717   0.52117   0.17094   0.01267  Uiso   1.00
N41    N     0.94812   0.48852   0.16144   0.01267  Uiso   1.00
N42    N     0.84272   0.41702   0.05844   0.01267  Uiso   1.00
N43    N     0.02925   0.55765   0.33790   0.01267  Uiso   1.00
N44    N     0.98603   0.60363   0.34866   0.01267  Uiso   1.00
N45    N     0.03316   0.58596   0.44392   0.01267  Uiso   1.00
N46    N     0.27377   0.64977   0.17094   0.01267  Uiso   1.00
N47    N     0.21332   0.67292   0.16144   0.01267  Uiso   1.00
N48    N     0.21572   0.64142   0.05844   0.01267  Uiso   1.00
O15    O     0.06882   0.79624   0.23924   0.01267  Uiso   1.00
O16    O     0.26600   0.75550   0.43280   0.01267  Uiso   1.00
O17    O     0.17042   0.44300   0.23924   0.01267  Uiso   1.00
O18    O     0.16680   0.67730   0.43280   0.01267  Uiso   1.00
O19    O     0.17042   0.79624   0.23924   0.01267  Uiso   1.00
O20    O     0.16680   0.75550   0.43280   0.01267  Uiso   1.00
O21    O     0.06882   0.44300   0.23924   0.01267  Uiso   1.00
O22    O     0.26600   0.67730   0.43280   0.01267  Uiso   1.00
O23    O     0.23949   0.63899   0.27798   0.01267  Uiso   1.00
O24    O     0.03849   0.63899   0.27798   0.01267  Uiso   1.00
O25    O     0.09188   0.64988   0.18376   0.01267  Uiso   1.00
O26    O     0.17264   0.75404   0.34528   0.01267  Uiso   1.00
O27    O     0.09188   0.53388   0.18376   0.01267  Uiso   1.00
O28    O     0.17264   0.59124   0.34528   0.01267  Uiso   1.00
Cl1    Cl    0.58063   0.75714   0.51428   0.01267  Uiso   1.00
Cl2    Cl    0.93365   0.75714   0.51428   0.01267  Uiso   1.00
Cl3    Cl    0.00714   0.68365   0.01428   0.01267  Uiso   1.00
Cl4    Cl    0.00714   0.33063   0.01428   0.01267  Uiso   1.00
