data_VEHROR_charged
_audit_creation_date              2014-07-02
_audit_creation_method            'Materials Studio'
_symmetry_space_group_name_H-M    'P1'
_symmetry_Int_Tables_number       1
_symmetry_cell_setting            triclinic
loop_
_symmetry_equiv_pos_as_xyz
  x,y,z
_cell_length_a                    15.6980
_cell_length_b                    17.3214
_cell_length_c                    17.9367
_cell_angle_alpha                 77.8335
_cell_angle_beta                  64.0495
_cell_angle_gamma                 63.0547
loop_
_atom_site_label
_atom_site_type_symbol
_atom_site_fract_x
_atom_site_fract_y
_atom_site_fract_z
_atom_site_U_iso_or_equiv
_atom_site_adp_type
_atom_site_occupancy
La1    La    0.42293   0.54990   0.82858   0.01267  Uiso   1.00
La2    La    0.47352   0.82441   0.98661   0.01267  Uiso   1.00
La3    La    0.80141   0.95010   0.67142   0.01267  Uiso   1.00
La4    La    0.28454   0.67559   0.51339   0.01267  Uiso   1.00
La5    La    0.57707   0.45010   0.17142   0.01267  Uiso   1.00
La6    La    0.52648   0.17559   0.01339   0.01267  Uiso   1.00
La7    La    0.19859   0.04990   0.32858   0.01267  Uiso   1.00
La8    La    0.71546   0.32441   0.48661   0.01267  Uiso   1.00
H1     H     0.79850   0.50960   0.57080   0.01267  Uiso   1.00
H2     H     0.80510   0.63300   0.59040   0.01267  Uiso   1.00
H3     H     0.69020   0.70660   0.71860   0.01267  Uiso   1.00
H4     H     0.47520   0.78270   0.64710   0.01267  Uiso   1.00
H5     H     0.49130   0.89890   0.55590   0.01267  Uiso   1.00
H6     H     0.41310   0.93790   0.46110   0.01267  Uiso   1.00
H7     H     0.25490   0.56600   0.78400   0.01267  Uiso   1.00
H8     H     0.32420   0.48170   0.76550   0.01267  Uiso   1.00
H9     H     0.19430   0.71210   0.89490   0.01267  Uiso   1.00
H10    H     0.27020   0.72540   0.82900   0.01267  Uiso   1.00
H11    H     0.53420   0.40270   0.88030   0.01267  Uiso   1.00
H12    H     0.38300   0.51860   0.01320   0.01267  Uiso   1.00
H13    H     0.28600   0.55500   0.01860   0.01267  Uiso   1.00
H14    H     0.38570   0.92320   0.84120   0.01267  Uiso   1.00
H15    H     0.32340   0.90130   0.91130   0.01267  Uiso   1.00
H16    H     0.28320   0.76320   0.02540   0.01267  Uiso   1.00
H17    H     0.35730   0.73220   0.05480   0.01267  Uiso   1.00
H18    H     0.43390   0.90540   0.13020   0.01267  Uiso   1.00
H19    H     0.51260   0.83280   0.14120   0.01267  Uiso   1.00
H20    H     0.38570   0.01650   0.02490   0.01267  Uiso   1.00
H21    H     0.40890   0.02140   0.94120   0.01267  Uiso   1.00
H22    H     0.61640   0.42420   0.82820   0.01267  Uiso   1.00
H23    H     0.87890   0.99040   0.92920   0.01267  Uiso   1.00
H24    H     0.02850   0.86700   0.90960   0.01267  Uiso   1.00
H25    H     0.11540   0.79340   0.78140   0.01267  Uiso   1.00
H26    H     0.90500   0.71730   0.85290   0.01267  Uiso   1.00
H27    H     0.94610   0.60110   0.94410   0.01267  Uiso   1.00
H28    H     0.81210   0.56210   0.03890   0.01267  Uiso   1.00
H29    H     0.60490   0.93400   0.71600   0.01267  Uiso   1.00
H30    H     0.57140   0.01830   0.73450   0.01267  Uiso   1.00
H31    H     0.80130   0.78790   0.60510   0.01267  Uiso   1.00
H32    H     0.82460   0.77460   0.67100   0.01267  Uiso   1.00
H33    H     0.81720   0.09730   0.61970   0.01267  Uiso   1.00
H34    H     0.91480   0.98140   0.48680   0.01267  Uiso   1.00
H35    H     0.85960   0.94500   0.48140   0.01267  Uiso   1.00
H36    H     0.15010   0.57680   0.65880   0.01267  Uiso   1.00
H37    H     0.13600   0.59870   0.58870   0.01267  Uiso   1.00
H38    H     0.07180   0.73680   0.47460   0.01267  Uiso   1.00
H39    H     0.14430   0.76780   0.44520   0.01267  Uiso   1.00
H40    H     0.46950   0.59460   0.36980   0.01267  Uiso   1.00
H41    H     0.48660   0.66720   0.35880   0.01267  Uiso   1.00
H42    H     0.42710   0.48350   0.47510   0.01267  Uiso   1.00
H43    H     0.37150   0.47860   0.55880   0.01267  Uiso   1.00
H44    H     0.86880   0.07580   0.67180   0.01267  Uiso   1.00
H45    H     0.20150   0.49040   0.42920   0.01267  Uiso   1.00
H46    H     0.19490   0.36700   0.40960   0.01267  Uiso   1.00
H47    H     0.30980   0.29340   0.28140   0.01267  Uiso   1.00
H48    H     0.52480   0.21730   0.35290   0.01267  Uiso   1.00
H49    H     0.50870   0.10110   0.44410   0.01267  Uiso   1.00
H50    H     0.58690   0.06210   0.53890   0.01267  Uiso   1.00
H51    H     0.74510   0.43400   0.21600   0.01267  Uiso   1.00
H52    H     0.67580   0.51830   0.23450   0.01267  Uiso   1.00
H53    H     0.80570   0.28790   0.10510   0.01267  Uiso   1.00
H54    H     0.72980   0.27460   0.17100   0.01267  Uiso   1.00
H55    H     0.46580   0.59730   0.11970   0.01267  Uiso   1.00
H56    H     0.61700   0.48140   0.98680   0.01267  Uiso   1.00
H57    H     0.71400   0.44500   0.98140   0.01267  Uiso   1.00
H58    H     0.61430   0.07680   0.15880   0.01267  Uiso   1.00
H59    H     0.67660   0.09870   0.08870   0.01267  Uiso   1.00
H60    H     0.71680   0.23680   0.97460   0.01267  Uiso   1.00
H61    H     0.64270   0.26780   0.94520   0.01267  Uiso   1.00
H62    H     0.56610   0.09460   0.86980   0.01267  Uiso   1.00
H63    H     0.48740   0.16720   0.85880   0.01267  Uiso   1.00
H64    H     0.61430   0.98350   0.97510   0.01267  Uiso   1.00
H65    H     0.59110   0.97860   0.05880   0.01267  Uiso   1.00
H66    H     0.38360   0.57580   0.17180   0.01267  Uiso   1.00
H67    H     0.12110   0.00960   0.07080   0.01267  Uiso   1.00
H68    H     0.97150   0.13300   0.09040   0.01267  Uiso   1.00
H69    H     0.88460   0.20660   0.21860   0.01267  Uiso   1.00
H70    H     0.09500   0.28270   0.14710   0.01267  Uiso   1.00
H71    H     0.05390   0.39890   0.05590   0.01267  Uiso   1.00
H72    H     0.18790   0.43790   0.96110   0.01267  Uiso   1.00
H73    H     0.39510   0.06600   0.28400   0.01267  Uiso   1.00
H74    H     0.42860   0.98170   0.26550   0.01267  Uiso   1.00
H75    H     0.19870   0.21210   0.39490   0.01267  Uiso   1.00
H76    H     0.17540   0.22540   0.32900   0.01267  Uiso   1.00
H77    H     0.18280   0.90270   0.38030   0.01267  Uiso   1.00
H78    H     0.08520   0.01860   0.51320   0.01267  Uiso   1.00
H79    H     0.14040   0.05500   0.51860   0.01267  Uiso   1.00
H80    H     0.84990   0.42320   0.34120   0.01267  Uiso   1.00
H81    H     0.86400   0.40130   0.41130   0.01267  Uiso   1.00
H82    H     0.92820   0.26320   0.52540   0.01267  Uiso   1.00
H83    H     0.85570   0.23220   0.55480   0.01267  Uiso   1.00
H84    H     0.53050   0.40540   0.63020   0.01267  Uiso   1.00
H85    H     0.51340   0.33280   0.64120   0.01267  Uiso   1.00
H86    H     0.57290   0.51650   0.52490   0.01267  Uiso   1.00
H87    H     0.62850   0.52140   0.44120   0.01267  Uiso   1.00
H88    H     0.13120   0.92420   0.32820   0.01267  Uiso   1.00
C1     C     0.64240   0.45460   0.65440   0.01267  Uiso   1.00
C2     C     0.66660   0.52140   0.67040   0.01267  Uiso   1.00
C3     C     0.74810   0.54370   0.61670   0.01267  Uiso   1.00
C4     C     0.75550   0.61430   0.63010   0.01267  Uiso   1.00
C5     C     0.68540   0.65940   0.70660   0.01267  Uiso   1.00
C6     C     0.61140   0.63100   0.76160   0.01267  Uiso   1.00
C7     C     0.53330   0.67350   0.84570   0.01267  Uiso   1.00
C8     C     0.39470   0.67330   0.64550   0.01267  Uiso   1.00
C9     C     0.40650   0.74910   0.59250   0.01267  Uiso   1.00
C10    C     0.45110   0.79760   0.60480   0.01267  Uiso   1.00
C11    C     0.45810   0.86760   0.55260   0.01267  Uiso   1.00
C12    C     0.41340   0.88940   0.49520   0.01267  Uiso   1.00
C13    C     0.36880   0.83830   0.48830   0.01267  Uiso   1.00
C14    C     0.31510   0.86150   0.43030   0.01267  Uiso   1.00
C15    C     0.75140   0.04540   0.84560   0.01267  Uiso   1.00
C16    C     0.85840   0.97860   0.82960   0.01267  Uiso   1.00
C17    C     0.90850   0.95630   0.88330   0.01267  Uiso   1.00
C18    C     0.99990   0.88570   0.86990   0.01267  Uiso   1.00
C19    C     0.05140   0.84060   0.79340   0.01267  Uiso   1.00
C20    C     0.00400   0.86900   0.73840   0.01267  Uiso   1.00
C21    C     0.05250   0.82650   0.65430   0.01267  Uiso   1.00
C22    C     0.71350   0.82670   0.85450   0.01267  Uiso   1.00
C23    C     0.74810   0.75090   0.90750   0.01267  Uiso   1.00
C24    C     0.85350   0.70240   0.89520   0.01267  Uiso   1.00
C25    C     0.87830   0.63240   0.94740   0.01267  Uiso   1.00
C26    C     0.79800   0.61060   0.00480   0.01267  Uiso   1.00
C27    C     0.69540   0.66170   0.01170   0.01267  Uiso   1.00
C28    C     0.60690   0.63850   0.06970   0.01267  Uiso   1.00
C29    C     0.35760   0.54540   0.34560   0.01267  Uiso   1.00
C30    C     0.33340   0.47860   0.32960   0.01267  Uiso   1.00
C31    C     0.25190   0.45630   0.38330   0.01267  Uiso   1.00
C32    C     0.24450   0.38570   0.36990   0.01267  Uiso   1.00
C33    C     0.31460   0.34060   0.29340   0.01267  Uiso   1.00
C34    C     0.38860   0.36900   0.23840   0.01267  Uiso   1.00
C35    C     0.46670   0.32650   0.15430   0.01267  Uiso   1.00
C36    C     0.60530   0.32670   0.35450   0.01267  Uiso   1.00
C37    C     0.59350   0.25090   0.40750   0.01267  Uiso   1.00
C38    C     0.54890   0.20240   0.39520   0.01267  Uiso   1.00
C39    C     0.54190   0.13240   0.44740   0.01267  Uiso   1.00
C40    C     0.58660   0.11060   0.50480   0.01267  Uiso   1.00
C41    C     0.63120   0.16170   0.51170   0.01267  Uiso   1.00
C42    C     0.68490   0.13850   0.56970   0.01267  Uiso   1.00
C43    C     0.24860   0.95460   0.15440   0.01267  Uiso   1.00
C44    C     0.14160   0.02140   0.17040   0.01267  Uiso   1.00
C45    C     0.09150   0.04370   0.11670   0.01267  Uiso   1.00
C46    C     0.00010   0.11430   0.13010   0.01267  Uiso   1.00
C47    C     0.94860   0.15940   0.20660   0.01267  Uiso   1.00
C48    C     0.99600   0.13100   0.26160   0.01267  Uiso   1.00
C49    C     0.94750   0.17350   0.34570   0.01267  Uiso   1.00
C50    C     0.28650   0.17330   0.14550   0.01267  Uiso   1.00
C51    C     0.25190   0.24910   0.09250   0.01267  Uiso   1.00
C52    C     0.14650   0.29760   0.10480   0.01267  Uiso   1.00
C53    C     0.12170   0.36760   0.05260   0.01267  Uiso   1.00
C54    C     0.20200   0.38940   0.99520   0.01267  Uiso   1.00
C55    C     0.30460   0.33830   0.98830   0.01267  Uiso   1.00
C56    C     0.39310   0.36150   0.93030   0.01267  Uiso   1.00
N1     N     0.59890   0.56650   0.74230   0.01267  Uiso   1.00
N2     N     0.36610   0.77020   0.53520   0.01267  Uiso   1.00
N3     N     0.90770   0.93350   0.75770   0.01267  Uiso   1.00
N4     N     0.67150   0.72980   0.96480   0.01267  Uiso   1.00
N5     N     0.40110   0.43350   0.25770   0.01267  Uiso   1.00
N6     N     0.63390   0.22980   0.46480   0.01267  Uiso   1.00
N7     N     0.09230   0.06650   0.24230   0.01267  Uiso   1.00
N8     N     0.32850   0.27020   0.03520   0.01267  Uiso   1.00
O1     O     0.41840   0.65460   0.70720   0.01267  Uiso   1.00
O2     O     0.30980   0.92880   0.38900   0.01267  Uiso   1.00
O3     O     0.55140   0.72260   0.87120   0.01267  Uiso   1.00
O4     O     0.70450   0.40940   0.59160   0.01267  Uiso   1.00
O5     O     0.55450   0.45310   0.70410   0.01267  Uiso   1.00
O6     O     0.45800   0.65140   0.88280   0.01267  Uiso   1.00
O7     O     0.35720   0.63280   0.62580   0.01267  Uiso   1.00
O8     O     0.27460   0.81290   0.43050   0.01267  Uiso   1.00
O9     O     0.31910   0.53330   0.76130   0.01267  Uiso   1.00
O10    O     0.25990   0.69570   0.87390   0.01267  Uiso   1.00
O11    O     0.57300   0.43000   0.87840   0.01267  Uiso   1.00
O12    O     0.34360   0.55960   0.99220   0.01267  Uiso   1.00
O13    O     0.38650   0.89530   0.88610   0.01267  Uiso   1.00
O14    O     0.34310   0.76080   0.01400   0.01267  Uiso   1.00
O15    O     0.49730   0.87160   0.10560   0.01267  Uiso   1.00
O16    O     0.42660   0.98940   0.97960   0.01267  Uiso   1.00
O17    O     0.78020   0.84540   0.79280   0.01267  Uiso   1.00
O18    O     0.62760   0.57120   0.11100   0.01267  Uiso   1.00
O19    O     0.14520   0.77740   0.62880   0.01267  Uiso   1.00
O20    O     0.70550   0.09060   0.90840   0.01267  Uiso   1.00
O21    O     0.71170   0.04690   0.79590   0.01267  Uiso   1.00
O22    O     0.99220   0.84860   0.61720   0.01267  Uiso   1.00
O23    O     0.61580   0.86720   0.87420   0.01267  Uiso   1.00
O24    O     0.51800   0.68710   0.06950   0.01267  Uiso   1.00
O25    O     0.61370   0.96670   0.73870   0.01267  Uiso   1.00
O26    O     0.82950   0.80430   0.62610   0.01267  Uiso   1.00
O27    O     0.88140   0.07000   0.62160   0.01267  Uiso   1.00
O28    O     0.89540   0.94040   0.50780   0.01267  Uiso   1.00
O29    O     0.16790   0.60470   0.61390   0.01267  Uiso   1.00
O30    O     0.11790   0.73920   0.48600   0.01267  Uiso   1.00
O31    O     0.47450   0.62840   0.39440   0.01267  Uiso   1.00
O32    O     0.39560   0.51060   0.52040   0.01267  Uiso   1.00
O33    O     0.58160   0.34540   0.29280   0.01267  Uiso   1.00
O34    O     0.69020   0.07120   0.61100   0.01267  Uiso   1.00
O35    O     0.44860   0.27740   0.12880   0.01267  Uiso   1.00
O36    O     0.29550   0.59060   0.40840   0.01267  Uiso   1.00
O37    O     0.44550   0.54690   0.29590   0.01267  Uiso   1.00
O38    O     0.54200   0.34860   0.11720   0.01267  Uiso   1.00
O39    O     0.64280   0.36720   0.37420   0.01267  Uiso   1.00
O40    O     0.72540   0.18710   0.56950   0.01267  Uiso   1.00
O41    O     0.68090   0.46670   0.23870   0.01267  Uiso   1.00
O42    O     0.74010   0.30430   0.12610   0.01267  Uiso   1.00
O43    O     0.42700   0.57000   0.12160   0.01267  Uiso   1.00
O44    O     0.65640   0.44040   0.00780   0.01267  Uiso   1.00
O45    O     0.61350   0.10470   0.11390   0.01267  Uiso   1.00
O46    O     0.65690   0.23920   0.98600   0.01267  Uiso   1.00
O47    O     0.50270   0.12840   0.89440   0.01267  Uiso   1.00
O48    O     0.57340   0.01060   0.02040   0.01267  Uiso   1.00
O49    O     0.21980   0.15460   0.20720   0.01267  Uiso   1.00
O50    O     0.37240   0.42880   0.88900   0.01267  Uiso   1.00
O51    O     0.85480   0.22260   0.37120   0.01267  Uiso   1.00
O52    O     0.29450   0.90940   0.09160   0.01267  Uiso   1.00
O53    O     0.28830   0.95310   0.20410   0.01267  Uiso   1.00
O54    O     0.00780   0.15140   0.38280   0.01267  Uiso   1.00
O55    O     0.38420   0.13280   0.12580   0.01267  Uiso   1.00
O56    O     0.48200   0.31290   0.93050   0.01267  Uiso   1.00
O57    O     0.38630   0.03330   0.26130   0.01267  Uiso   1.00
O58    O     0.17050   0.19570   0.37390   0.01267  Uiso   1.00
O59    O     0.11860   0.93000   0.37840   0.01267  Uiso   1.00
O60    O     0.10460   0.05960   0.49220   0.01267  Uiso   1.00
O61    O     0.83210   0.39530   0.38610   0.01267  Uiso   1.00
O62    O     0.88210   0.26080   0.51400   0.01267  Uiso   1.00
O63    O     0.52550   0.37160   0.60560   0.01267  Uiso   1.00
O64    O     0.60440   0.48940   0.47960   0.01267  Uiso   1.00
F1     F     0.04360   0.36600   0.33580   0.01267  Uiso   1.00
F2     F     0.74540   0.13400   0.16420   0.01267  Uiso   1.00
F3     F     0.95640   0.63400   0.66420   0.01267  Uiso   1.00
F4     F     0.25460   0.86600   0.83580   0.01267  Uiso   1.00
