data_VEHRIL_clean
_audit_creation_date              2014-07-02
_audit_creation_method            'Materials Studio'
_symmetry_space_group_name_H-M    'P1'
_symmetry_Int_Tables_number       1
_symmetry_cell_setting            triclinic
loop_
_symmetry_equiv_pos_as_xyz
  x,y,z
_cell_length_a                    16.4730
_cell_length_b                    17.0680
_cell_length_c                    17.3840
_cell_angle_alpha                 77.3500
_cell_angle_beta                  62.9100
_cell_angle_gamma                 62.4000
loop_
_atom_site_label
_atom_site_type_symbol
_atom_site_fract_x
_atom_site_fract_y
_atom_site_fract_z
_atom_site_U_iso_or_equiv
_atom_site_adp_type
_atom_site_occupancy
Sm1    Sm    0.95948   0.80676   0.04268   0.01267  Uiso   1.00
Sm2    Sm    0.01736   0.02417   0.67806   0.01267  Uiso   1.00
Sm3    Sm    0.68391   0.31549   0.55462   0.01267  Uiso   1.00
Sm4    Sm    0.22368   0.48160   0.80207   0.01267  Uiso   1.00
Sm5    Sm    0.04052   0.19324   0.95732   0.01267  Uiso   1.00
Sm6    Sm    0.98264   0.97583   0.32194   0.01267  Uiso   1.00
Sm7    Sm    0.31609   0.68451   0.44538   0.01267  Uiso   1.00
Sm8    Sm    0.77632   0.51840   0.19793   0.01267  Uiso   1.00
H1     H     0.23400   0.37040   0.90420   0.01267  Uiso   1.00
H2     H     0.30320   0.40590   0.86470   0.01267  Uiso   1.00
H3     H     0.04110   0.34700   0.70360   0.01267  Uiso   1.00
H4     H     0.23790   0.72110   0.16750   0.01267  Uiso   1.00
H5     H     0.64390   0.04080   0.49210   0.01267  Uiso   1.00
H6     H     0.35800   0.58590   0.09470   0.01267  Uiso   1.00
H7     H     0.32220   0.53790   0.00030   0.01267  Uiso   1.00
H8     H     0.38540   0.20640   0.66860   0.01267  Uiso   1.00
H9     H     0.47810   0.07370   0.59270   0.01267  Uiso   1.00
H10    H     0.15610   0.50320   0.51790   0.01267  Uiso   1.00
H11    H     0.57720   0.09190   0.94640   0.01267  Uiso   1.00
H12    H     0.61030   0.16140   0.80680   0.01267  Uiso   1.00
H13    H     0.72010   0.97990   0.97250   0.01267  Uiso   1.00
H14    H     0.06150   0.41500   0.57010   0.01267  Uiso   1.00
H15    H     0.76600   0.62960   0.09580   0.01267  Uiso   1.00
H16    H     0.69680   0.59410   0.13530   0.01267  Uiso   1.00
H17    H     0.95890   0.65300   0.29640   0.01267  Uiso   1.00
H18    H     0.76210   0.27890   0.83250   0.01267  Uiso   1.00
H19    H     0.35610   0.95920   0.50790   0.01267  Uiso   1.00
H20    H     0.64200   0.41410   0.90530   0.01267  Uiso   1.00
H21    H     0.67780   0.46210   0.99970   0.01267  Uiso   1.00
H22    H     0.61460   0.79360   0.33140   0.01267  Uiso   1.00
H23    H     0.52190   0.92630   0.40730   0.01267  Uiso   1.00
H24    H     0.84390   0.49680   0.48210   0.01267  Uiso   1.00
H25    H     0.42280   0.90810   0.05360   0.01267  Uiso   1.00
H26    H     0.38970   0.83860   0.19320   0.01267  Uiso   1.00
H27    H     0.27990   0.02010   0.02750   0.01267  Uiso   1.00
H28    H     0.93850   0.58500   0.42990   0.01267  Uiso   1.00
C1     C     0.78720   0.14690   0.67960   0.01267  Uiso   1.00
C2     C     0.64420   0.07740   0.90310   0.01267  Uiso   1.00
C3     C     0.66390   0.11970   0.82070   0.01267  Uiso   1.00
C4     C     0.72890   0.01230   0.91880   0.01267  Uiso   1.00
C5     C     0.76020   0.09940   0.76400   0.01267  Uiso   1.00
C6     C     0.82400   0.99650   0.85520   0.01267  Uiso   1.00
C7     C     0.75410   0.13520   0.45690   0.01267  Uiso   1.00
C8     C     0.15690   0.61770   0.96530   0.01267  Uiso   1.00
C9     C     0.11490   0.39790   0.73200   0.01267  Uiso   1.00
C10    C     0.17660   0.48730   0.62710   0.01267  Uiso   1.00
C11    C     0.24230   0.53670   0.60000   0.01267  Uiso   1.00
C12    C     0.10740   0.35430   0.81900   0.01267  Uiso   1.00
C13    C     0.18480   0.64200   0.02440   0.01267  Uiso   1.00
C14    C     0.14050   0.74240   0.11920   0.01267  Uiso   1.00
C15    C     0.08880   0.42320   0.60330   0.01267  Uiso   1.00
C16    C     0.05680   0.82820   0.16520   0.01267  Uiso   1.00
C17    C     0.22580   0.69910   0.13000   0.01267  Uiso   1.00
C18    C     0.07620   0.38430   0.68180   0.01267  Uiso   1.00
C19    C     0.60590   0.09230   0.52650   0.01267  Uiso   1.00
C20    C     0.50210   0.24260   0.62050   0.01267  Uiso   1.00
C21    C     0.29750   0.61950   0.08650   0.01267  Uiso   1.00
C22    C     0.27570   0.59110   0.03140   0.01267  Uiso   1.00
C23    C     0.45390   0.18890   0.63140   0.01267  Uiso   1.00
C24    C     0.50780   0.11260   0.58500   0.01267  Uiso   1.00
C25    C     0.14340   0.47670   0.57280   0.01267  Uiso   1.00
C26    C     0.45210   0.32600   0.66990   0.01267  Uiso   1.00
C27    C     0.64860   0.14990   0.51700   0.01267  Uiso   1.00
C28    C     0.91570   0.93140   0.86580   0.01267  Uiso   1.00
C29    C     0.21280   0.85310   0.32040   0.01267  Uiso   1.00
C30    C     0.35580   0.92260   0.09690   0.01267  Uiso   1.00
C31    C     0.33610   0.88030   0.17930   0.01267  Uiso   1.00
C32    C     0.27110   0.98770   0.08120   0.01267  Uiso   1.00
C33    C     0.23980   0.90060   0.23600   0.01267  Uiso   1.00
C34    C     0.17600   0.00350   0.14480   0.01267  Uiso   1.00
C35    C     0.24590   0.86480   0.54310   0.01267  Uiso   1.00
C36    C     0.84310   0.38230   0.03470   0.01267  Uiso   1.00
C37    C     0.88510   0.60210   0.26800   0.01267  Uiso   1.00
C38    C     0.82340   0.51270   0.37290   0.01267  Uiso   1.00
C39    C     0.75770   0.46330   0.40000   0.01267  Uiso   1.00
C40    C     0.89260   0.64570   0.18100   0.01267  Uiso   1.00
C41    C     0.81520   0.35800   0.97560   0.01267  Uiso   1.00
C42    C     0.85950   0.25760   0.88080   0.01267  Uiso   1.00
C43    C     0.91120   0.57680   0.39670   0.01267  Uiso   1.00
C44    C     0.94320   0.17180   0.83480   0.01267  Uiso   1.00
C45    C     0.77420   0.30090   0.87000   0.01267  Uiso   1.00
C46    C     0.92380   0.61570   0.31820   0.01267  Uiso   1.00
C47    C     0.39410   0.90770   0.47350   0.01267  Uiso   1.00
C48    C     0.49790   0.75740   0.37950   0.01267  Uiso   1.00
C49    C     0.70250   0.38050   0.91350   0.01267  Uiso   1.00
C50    C     0.72430   0.40890   0.96860   0.01267  Uiso   1.00
C51    C     0.54610   0.81110   0.36860   0.01267  Uiso   1.00
C52    C     0.49220   0.88740   0.41500   0.01267  Uiso   1.00
C53    C     0.85660   0.52330   0.42720   0.01267  Uiso   1.00
C54    C     0.54790   0.67400   0.33010   0.01267  Uiso   1.00
C55    C     0.35140   0.85010   0.48300   0.01267  Uiso   1.00
C56    C     0.08430   0.06860   0.13420   0.01267  Uiso   1.00
N1     N     0.84270   0.03780   0.77800   0.01267  Uiso   1.00
N2     N     0.59660   0.22240   0.56550   0.01267  Uiso   1.00
N3     N     0.12060   0.71720   0.06540   0.01267  Uiso   1.00
N4     N     0.16080   0.45070   0.70600   0.01267  Uiso   1.00
N5     N     0.15730   0.96220   0.22200   0.01267  Uiso   1.00
N6     N     0.40340   0.77760   0.43450   0.01267  Uiso   1.00
N7     N     0.87940   0.28280   0.93460   0.01267  Uiso   1.00
N8     N     0.83920   0.54930   0.29400   0.01267  Uiso   1.00
O1     O     0.36160   0.35200   0.72130   0.01267  Uiso   1.00
O2     O     0.71860   0.20300   0.65670   0.01267  Uiso   1.00
O3     O     0.88090   0.12850   0.63510   0.01267  Uiso   1.00
O4     O     0.90840   0.88170   0.92980   0.01267  Uiso   1.00
O5     O     0.07430   0.67270   0.96190   0.01267  Uiso   1.00
O6     O     0.50810   0.36420   0.65570   0.01267  Uiso   1.00
O7     O     0.07190   0.29900   0.84490   0.01267  Uiso   1.00
O8     O     0.14490   0.37550   0.85610   0.01267  Uiso   1.00
O9     O     0.06900   0.85850   0.21580   0.01267  Uiso   1.00
O10    O     0.80750   0.06850   0.40870   0.01267  Uiso   1.00
O11    O     0.21270   0.54940   0.92280   0.01267  Uiso   1.00
O12    O     0.00080   0.92960   0.80880   0.01267  Uiso   1.00
O13    O     0.27930   0.53220   0.64970   0.01267  Uiso   1.00
O14    O     0.25380   0.57820   0.52930   0.01267  Uiso   1.00
O15    O     0.27970   0.37780   0.90860   0.01267  Uiso   1.00
O16    O     0.98080   0.86280   0.14700   0.01267  Uiso   1.00
O17    O     0.78290   0.19120   0.45790   0.01267  Uiso   1.00
O18    O     0.63840   0.64800   0.27870   0.01267  Uiso   1.00
O19    O     0.28140   0.79700   0.34330   0.01267  Uiso   1.00
O20    O     0.11910   0.87150   0.36490   0.01267  Uiso   1.00
O21    O     0.09160   0.11830   0.07020   0.01267  Uiso   1.00
O22    O     0.92570   0.32730   0.03810   0.01267  Uiso   1.00
O23    O     0.49190   0.63580   0.34430   0.01267  Uiso   1.00
O24    O     0.92810   0.70100   0.15510   0.01267  Uiso   1.00
O25    O     0.85510   0.62450   0.14390   0.01267  Uiso   1.00
O26    O     0.93100   0.14150   0.78420   0.01267  Uiso   1.00
O27    O     0.19250   0.93150   0.59130   0.01267  Uiso   1.00
O28    O     0.78730   0.45060   0.07720   0.01267  Uiso   1.00
O29    O     0.99920   0.07040   0.19120   0.01267  Uiso   1.00
O30    O     0.72070   0.46780   0.35030   0.01267  Uiso   1.00
O31    O     0.74620   0.42180   0.47070   0.01267  Uiso   1.00
O32    O     0.72030   0.62220   0.09140   0.01267  Uiso   1.00
O33    O     0.01920   0.13720   0.85300   0.01267  Uiso   1.00
O34    O     0.21710   0.80880   0.54210   0.01267  Uiso   1.00
