data_image0
_cell_length_a       21.5609
_cell_length_b       21.5609
_cell_length_c       11.3677
_cell_angle_alpha    90
_cell_angle_beta     90
_cell_angle_gamma    90

_symmetry_space_group_name_H-M    "P 1"
_symmetry_int_tables_number       1

loop_
  _symmetry_equiv_pos_as_xyz
  'x, y, z'

loop_
  _atom_site_label
  _atom_site_occupancy
  _atom_site_fract_x
  _atom_site_fract_y
  _atom_site_fract_z
  _atom_site_thermal_displace_type
  _atom_site_B_iso_or_equiv
  _atom_site_type_symbol
  Mo1      1.0000 0.38398  0.46513  0.21632  Biso   1.000  Mo
  Mo2      1.0000 0.45187  0.35886  0.14452  Biso   1.000  Mo
  P1       1.0000 0.29071  0.43888  0.44356  Biso   1.000  P
  P2       1.0000 0.26492  0.54434  0.27797  Biso   1.000  P
  S1       1.0000 0.46571  0.41754  0.31401  Biso   1.000  S
  S2       1.0000 0.35522  0.39140  0.07771  Biso   1.000  S
  O1       1.0000 0.42432  0.51631  0.13359  Biso   1.000  O
  O2       1.0000 0.37262  0.51664  0.36845  Biso   1.000  O
  O3       1.0000 0.29780  0.50710  0.18088  Biso   1.000  O
  O4       1.0000 0.31483  0.40490  0.33481  Biso   1.000  O
  O5       1.0000 0.49800  0.39625  0.04839  Biso   1.000  O
  O6       1.0000 0.22003  0.43246  0.45787  Biso   1.000  O
  O7       1.0000 0.19699  0.52336  0.28651  Biso   1.000  O
  O8       1.0000 0.39388  0.29751  0.28164  Biso   1.000  O
  H1       1.0000 0.36260  0.31550  0.30100  Biso   1.000  H
  H2       1.0000 0.38700  0.26720  0.26300  Biso   1.000  H
  O9       1.0000 0.32264  0.42104  0.55676  Biso   1.000  O
  O10      1.0000 0.27030  0.61319  0.26328  Biso   1.000  O
  C1       1.0000 0.30951  0.51959  0.40761  Biso   1.000  C
  C2       1.0000 0.30867  0.56493  0.51157  Biso   1.000  C
  H3       1.0000 0.33590  0.54850  0.57450  Biso   1.000  H
  H4       1.0000 0.32620  0.60510  0.48540  Biso   1.000  H
  N1       1.0000 0.24675  0.57580  0.56070  Biso   1.000  N
  C3       1.0000 0.20267  0.61709  0.51987  Biso   1.000  C
  H5       1.0000 0.20610  0.64310  0.45270  Biso   1.000  H
  C4       1.0000 0.15366  0.61342  0.59398  Biso   1.000  C
  H6       1.0000 0.11620  0.63650  0.58920  Biso   1.000  H
  C5       1.0000 0.22471  0.54835  0.65585  Biso   1.000  C
  H7       1.0000 0.24570  0.51810  0.70160  Biso   1.000  H
  N2       1.0000 0.16835  0.57019  0.67668  Biso   1.000  N
  H8       1.0000 0.14410  0.55850  0.73500  Biso   1.000  H
  Rb1      1.0000 0.56515  0.51654  0.13187  Biso   1.000  Rb
  Rb2      1.0000 0.46899  0.28601  0.50311  Biso   1.000  Rb
  Mo3      1.0000 0.11602  0.03487  0.21632  Biso   1.000  Mo
  Mo4      1.0000 0.04813  0.14114  0.14452  Biso   1.000  Mo
  P3       1.0000 0.20929  0.06112  0.44356  Biso   1.000  P
  P4       1.0000 0.23508  0.95566  0.27797  Biso   1.000  P
  S3       1.0000 0.03429  0.08246  0.31401  Biso   1.000  S
  S4       1.0000 0.14478  0.10860  0.07771  Biso   1.000  S
  O11      1.0000 0.07568  0.98369  0.13359  Biso   1.000  O
  O12      1.0000 0.12738  0.98336  0.36845  Biso   1.000  O
  O13      1.0000 0.20220  0.99290  0.18088  Biso   1.000  O
  O14      1.0000 0.18517  0.09510  0.33481  Biso   1.000  O
  O15      1.0000 0.00200  0.10375  0.04839  Biso   1.000  O
  O16      1.0000 0.27997  0.06754  0.45787  Biso   1.000  O
  O17      1.0000 0.30301  0.97664  0.28651  Biso   1.000  O
  O18      1.0000 0.10612  0.20249  0.28164  Biso   1.000  O
  H9       1.0000 0.13740  0.18450  0.30100  Biso   1.000  H
  H10      1.0000 0.11300  0.23280  0.26300  Biso   1.000  H
  O19      1.0000 0.17736  0.07896  0.55676  Biso   1.000  O
  O20      1.0000 0.22970  0.88681  0.26328  Biso   1.000  O
  C6       1.0000 0.19049  0.98041  0.40761  Biso   1.000  C
  C7       1.0000 0.19133  0.93507  0.51157  Biso   1.000  C
  H11      1.0000 0.16410  0.95150  0.57450  Biso   1.000  H
  H12      1.0000 0.17380  0.89490  0.48540  Biso   1.000  H
  N3       1.0000 0.25325  0.92420  0.56070  Biso   1.000  N
  C8       1.0000 0.29733  0.88291  0.51987  Biso   1.000  C
  H13      1.0000 0.29390  0.85690  0.45270  Biso   1.000  H
  C9       1.0000 0.34634  0.88658  0.59398  Biso   1.000  C
  H14      1.0000 0.38380  0.86350  0.58920  Biso   1.000  H
  C10      1.0000 0.27529  0.95165  0.65585  Biso   1.000  C
  H15      1.0000 0.25430  0.98190  0.70160  Biso   1.000  H
  N4       1.0000 0.33165  0.92981  0.67668  Biso   1.000  N
  H16      1.0000 0.35590  0.94150  0.73500  Biso   1.000  H
  Rb3      1.0000 0.93485  0.98346  0.13187  Biso   1.000  Rb
  Rb4      1.0000 0.03101  0.21399  0.50311  Biso   1.000  Rb
  Mo5      1.0000 0.53487  0.88398  0.71632  Biso   1.000  Mo
  Mo6      1.0000 0.64114  0.95187  0.64452  Biso   1.000  Mo
  P5       1.0000 0.56112  0.79071  0.94356  Biso   1.000  P
  P6       1.0000 0.45566  0.76492  0.77797  Biso   1.000  P
  S5       1.0000 0.58246  0.96571  0.81401  Biso   1.000  S
  S6       1.0000 0.60860  0.85522  0.57771  Biso   1.000  S
  O21      1.0000 0.48369  0.92432  0.63359  Biso   1.000  O
  O22      1.0000 0.48336  0.87262  0.86845  Biso   1.000  O
  O23      1.0000 0.49290  0.79780  0.68088  Biso   1.000  O
  O24      1.0000 0.59510  0.81483  0.83481  Biso   1.000  O
  O25      1.0000 0.60375  0.99800  0.54839  Biso   1.000  O
  O26      1.0000 0.56754  0.72003  0.95787  Biso   1.000  O
  O27      1.0000 0.47664  0.69699  0.78651  Biso   1.000  O
  O28      1.0000 0.70249  0.89388  0.78164  Biso   1.000  O
  H17      1.0000 0.68450  0.86260  0.80100  Biso   1.000  H
  H18      1.0000 0.73280  0.88700  0.76300  Biso   1.000  H
  O29      1.0000 0.57896  0.82264  0.05676  Biso   1.000  O
  O30      1.0000 0.38681  0.77030  0.76328  Biso   1.000  O
  C11      1.0000 0.48041  0.80951  0.90761  Biso   1.000  C
  C12      1.0000 0.43507  0.80867  0.01157  Biso   1.000  C
  H19      1.0000 0.45150  0.83590  0.07450  Biso   1.000  H
  H20      1.0000 0.39490  0.82620  0.98540  Biso   1.000  H
  N5       1.0000 0.42420  0.74675  0.06070  Biso   1.000  N
  C13      1.0000 0.38291  0.70267  0.01987  Biso   1.000  C
  H21      1.0000 0.35690  0.70610  0.95270  Biso   1.000  H
  C14      1.0000 0.38658  0.65366  0.09398  Biso   1.000  C
  H22      1.0000 0.36350  0.61620  0.08920  Biso   1.000  H
  C15      1.0000 0.45165  0.72471  0.15585  Biso   1.000  C
  H23      1.0000 0.48190  0.74570  0.20160  Biso   1.000  H
  N6       1.0000 0.42981  0.66835  0.17668  Biso   1.000  N
  H24      1.0000 0.44150  0.64410  0.23500  Biso   1.000  H
  Rb5      1.0000 0.48346  0.06515  0.63187  Biso   1.000  Rb
  Rb6      1.0000 0.71399  0.96899  0.00311  Biso   1.000  Rb
  Mo7      1.0000 0.96513  0.61602  0.71632  Biso   1.000  Mo
  Mo8      1.0000 0.85886  0.54813  0.64452  Biso   1.000  Mo
  P7       1.0000 0.93888  0.70929  0.94356  Biso   1.000  P
  P8       1.0000 0.04434  0.73508  0.77797  Biso   1.000  P
  S7       1.0000 0.91754  0.53429  0.81401  Biso   1.000  S
  S8       1.0000 0.89140  0.64478  0.57771  Biso   1.000  S
  O31      1.0000 0.01631  0.57568  0.63359  Biso   1.000  O
  O32      1.0000 0.01664  0.62738  0.86845  Biso   1.000  O
  O33      1.0000 0.00710  0.70220  0.68088  Biso   1.000  O
  O34      1.0000 0.90490  0.68517  0.83481  Biso   1.000  O
  O35      1.0000 0.89625  0.50200  0.54839  Biso   1.000  O
  O36      1.0000 0.93246  0.77997  0.95787  Biso   1.000  O
  O37      1.0000 0.02336  0.80301  0.78651  Biso   1.000  O
  O38      1.0000 0.79751  0.60612  0.78164  Biso   1.000  O
  H25      1.0000 0.81550  0.63740  0.80100  Biso   1.000  H
  H26      1.0000 0.76720  0.61300  0.76300  Biso   1.000  H
  O39      1.0000 0.92104  0.67736  0.05676  Biso   1.000  O
  O40      1.0000 0.11319  0.72970  0.76328  Biso   1.000  O
  C16      1.0000 0.01959  0.69049  0.90761  Biso   1.000  C
  C17      1.0000 0.06493  0.69133  0.01157  Biso   1.000  C
  H27      1.0000 0.04850  0.66410  0.07450  Biso   1.000  H
  H28      1.0000 0.10510  0.67380  0.98540  Biso   1.000  H
  N7       1.0000 0.07580  0.75325  0.06070  Biso   1.000  N
  C18      1.0000 0.11709  0.79733  0.01987  Biso   1.000  C
  H29      1.0000 0.14310  0.79390  0.95270  Biso   1.000  H
  C19      1.0000 0.11342  0.84634  0.09398  Biso   1.000  C
  H30      1.0000 0.13650  0.88380  0.08920  Biso   1.000  H
  C20      1.0000 0.04835  0.77529  0.15585  Biso   1.000  C
  H31      1.0000 0.01810  0.75430  0.20160  Biso   1.000  H
  N8       1.0000 0.07019  0.83165  0.17668  Biso   1.000  N
  H32      1.0000 0.05850  0.85590  0.23500  Biso   1.000  H
  Rb7      1.0000 0.01654  0.43485  0.63187  Biso   1.000  Rb
  Rb8      1.0000 0.78601  0.53101  0.00311  Biso   1.000  Rb
  Mo9      1.0000 0.61602  0.53487  0.78368  Biso   1.000  Mo
  Mo10     1.0000 0.54813  0.64114  0.85548  Biso   1.000  Mo
  P9       1.0000 0.70929  0.56112  0.55644  Biso   1.000  P
  P10      1.0000 0.73508  0.45566  0.72203  Biso   1.000  P
  S9       1.0000 0.53429  0.58246  0.68599  Biso   1.000  S
  S10      1.0000 0.64478  0.60860  0.92229  Biso   1.000  S
  O41      1.0000 0.57568  0.48369  0.86641  Biso   1.000  O
  O42      1.0000 0.62738  0.48336  0.63155  Biso   1.000  O
  O43      1.0000 0.70220  0.49290  0.81912  Biso   1.000  O
  O44      1.0000 0.68517  0.59510  0.66519  Biso   1.000  O
  O45      1.0000 0.50200  0.60375  0.95161  Biso   1.000  O
  O46      1.0000 0.77997  0.56754  0.54213  Biso   1.000  O
  O47      1.0000 0.80301  0.47664  0.71349  Biso   1.000  O
  O48      1.0000 0.60612  0.70249  0.71836  Biso   1.000  O
  H33      1.0000 0.63740  0.68450  0.69900  Biso   1.000  H
  H34      1.0000 0.61300  0.73280  0.73700  Biso   1.000  H
  O49      1.0000 0.67736  0.57896  0.44324  Biso   1.000  O
  O50      1.0000 0.72970  0.38681  0.73672  Biso   1.000  O
  C21      1.0000 0.69049  0.48041  0.59239  Biso   1.000  C
  C22      1.0000 0.69133  0.43507  0.48843  Biso   1.000  C
  H35      1.0000 0.66410  0.45150  0.42550  Biso   1.000  H
  H36      1.0000 0.67380  0.39490  0.51460  Biso   1.000  H
  N9       1.0000 0.75325  0.42420  0.43930  Biso   1.000  N
  C23      1.0000 0.79733  0.38291  0.48013  Biso   1.000  C
  H37      1.0000 0.79390  0.35690  0.54730  Biso   1.000  H
  C24      1.0000 0.84634  0.38658  0.40602  Biso   1.000  C
  H38      1.0000 0.88380  0.36350  0.41080  Biso   1.000  H
  C25      1.0000 0.77529  0.45165  0.34415  Biso   1.000  C
  H39      1.0000 0.75430  0.48190  0.29840  Biso   1.000  H
  N10      1.0000 0.83165  0.42981  0.32332  Biso   1.000  N
  H40      1.0000 0.85590  0.44150  0.26500  Biso   1.000  H
  Rb9      1.0000 0.43485  0.48346  0.86813  Biso   1.000  Rb
  Rb10     1.0000 0.53101  0.71399  0.49689  Biso   1.000  Rb
  Mo11     1.0000 0.88398  0.96513  0.78368  Biso   1.000  Mo
  Mo12     1.0000 0.95187  0.85886  0.85548  Biso   1.000  Mo
  P11      1.0000 0.79071  0.93888  0.55644  Biso   1.000  P
  P12      1.0000 0.76492  0.04434  0.72203  Biso   1.000  P
  S11      1.0000 0.96571  0.91754  0.68599  Biso   1.000  S
  S12      1.0000 0.85522  0.89139  0.92229  Biso   1.000  S
  O51      1.0000 0.92432  0.01631  0.86641  Biso   1.000  O
  O52      1.0000 0.87262  0.01664  0.63155  Biso   1.000  O
  O53      1.0000 0.79780  0.00710  0.81912  Biso   1.000  O
  O54      1.0000 0.81483  0.90490  0.66519  Biso   1.000  O
  O55      1.0000 0.99800  0.89625  0.95161  Biso   1.000  O
  O56      1.0000 0.72003  0.93246  0.54213  Biso   1.000  O
  O57      1.0000 0.69699  0.02336  0.71349  Biso   1.000  O
  O58      1.0000 0.89388  0.79751  0.71836  Biso   1.000  O
  H41      1.0000 0.86260  0.81550  0.69900  Biso   1.000  H
  H42      1.0000 0.88700  0.76720  0.73700  Biso   1.000  H
  O59      1.0000 0.82264  0.92104  0.44324  Biso   1.000  O
  O60      1.0000 0.77030  0.11319  0.73672  Biso   1.000  O
  C26      1.0000 0.80951  0.01959  0.59239  Biso   1.000  C
  C27      1.0000 0.80867  0.06493  0.48843  Biso   1.000  C
  H43      1.0000 0.83590  0.04850  0.42550  Biso   1.000  H
  H44      1.0000 0.82620  0.10510  0.51460  Biso   1.000  H
  N11      1.0000 0.74675  0.07580  0.43930  Biso   1.000  N
  C28      1.0000 0.70267  0.11709  0.48013  Biso   1.000  C
  H45      1.0000 0.70610  0.14310  0.54730  Biso   1.000  H
  C29      1.0000 0.65366  0.11342  0.40602  Biso   1.000  C
  H46      1.0000 0.61620  0.13650  0.41080  Biso   1.000  H
  C30      1.0000 0.72471  0.04835  0.34415  Biso   1.000  C
  H47      1.0000 0.74570  0.01810  0.29840  Biso   1.000  H
  N12      1.0000 0.66835  0.07019  0.32332  Biso   1.000  N
  H48      1.0000 0.64410  0.05850  0.26500  Biso   1.000  H
  Rb11     1.0000 0.06515  0.01654  0.86813  Biso   1.000  Rb
  Rb12     1.0000 0.96899  0.78601  0.49689  Biso   1.000  Rb
  Mo13     1.0000 0.46513  0.11602  0.28368  Biso   1.000  Mo
  Mo14     1.0000 0.35886  0.04813  0.35548  Biso   1.000  Mo
  P13      1.0000 0.43888  0.20929  0.05644  Biso   1.000  P
  P14      1.0000 0.54434  0.23508  0.22203  Biso   1.000  P
  S13      1.0000 0.41754  0.03429  0.18599  Biso   1.000  S
  S14      1.0000 0.39140  0.14478  0.42229  Biso   1.000  S
  O61      1.0000 0.51631  0.07568  0.36641  Biso   1.000  O
  O62      1.0000 0.51664  0.12738  0.13155  Biso   1.000  O
  O63      1.0000 0.50710  0.20220  0.31912  Biso   1.000  O
  O64      1.0000 0.40490  0.18517  0.16519  Biso   1.000  O
  O65      1.0000 0.39625  0.00200  0.45161  Biso   1.000  O
  O66      1.0000 0.43246  0.27997  0.04213  Biso   1.000  O
  O67      1.0000 0.52336  0.30301  0.21349  Biso   1.000  O
  O68      1.0000 0.29751  0.10612  0.21836  Biso   1.000  O
  H49      1.0000 0.31550  0.13740  0.19900  Biso   1.000  H
  H50      1.0000 0.26720  0.11300  0.23700  Biso   1.000  H
  O69      1.0000 0.42104  0.17736  0.94324  Biso   1.000  O
  O70      1.0000 0.61319  0.22970  0.23672  Biso   1.000  O
  C31      1.0000 0.51959  0.19049  0.09239  Biso   1.000  C
  C32      1.0000 0.56493  0.19133  0.98843  Biso   1.000  C
  H51      1.0000 0.54850  0.16410  0.92550  Biso   1.000  H
  H52      1.0000 0.60510  0.17380  0.01460  Biso   1.000  H
  N13      1.0000 0.57580  0.25325  0.93930  Biso   1.000  N
  C33      1.0000 0.61709  0.29733  0.98013  Biso   1.000  C
  H53      1.0000 0.64310  0.29390  0.04730  Biso   1.000  H
  C34      1.0000 0.61342  0.34634  0.90602  Biso   1.000  C
  H54      1.0000 0.63650  0.38380  0.91080  Biso   1.000  H
  C35      1.0000 0.54835  0.27529  0.84415  Biso   1.000  C
  H55      1.0000 0.51810  0.25430  0.79840  Biso   1.000  H
  N14      1.0000 0.57019  0.33165  0.82332  Biso   1.000  N
  H56      1.0000 0.55850  0.35590  0.76500  Biso   1.000  H
  Rb13     1.0000 0.51654  0.93485  0.36813  Biso   1.000  Rb
  Rb14     1.0000 0.28601  0.03101  0.99689  Biso   1.000  Rb
  Mo15     1.0000 0.03487  0.38398  0.28368  Biso   1.000  Mo
  Mo16     1.0000 0.14114  0.45187  0.35548  Biso   1.000  Mo
  P15      1.0000 0.06112  0.29071  0.05644  Biso   1.000  P
  P16      1.0000 0.95566  0.26492  0.22203  Biso   1.000  P
  S15      1.0000 0.08246  0.46571  0.18599  Biso   1.000  S
  S16      1.0000 0.10860  0.35522  0.42229  Biso   1.000  S
  O71      1.0000 0.98369  0.42432  0.36641  Biso   1.000  O
  O72      1.0000 0.98336  0.37262  0.13155  Biso   1.000  O
  O73      1.0000 0.99290  0.29780  0.31912  Biso   1.000  O
  O74      1.0000 0.09510  0.31483  0.16519  Biso   1.000  O
  O75      1.0000 0.10375  0.49800  0.45161  Biso   1.000  O
  O76      1.0000 0.06754  0.22003  0.04213  Biso   1.000  O
  O77      1.0000 0.97664  0.19699  0.21349  Biso   1.000  O
  O78      1.0000 0.20249  0.39388  0.21836  Biso   1.000  O
  H57      1.0000 0.18450  0.36260  0.19900  Biso   1.000  H
  H58      1.0000 0.23280  0.38700  0.23700  Biso   1.000  H
  O79      1.0000 0.07896  0.32264  0.94324  Biso   1.000  O
  O80      1.0000 0.88681  0.27030  0.23672  Biso   1.000  O
  C36      1.0000 0.98041  0.30951  0.09239  Biso   1.000  C
  C37      1.0000 0.93507  0.30867  0.98843  Biso   1.000  C
  H59      1.0000 0.95150  0.33590  0.92550  Biso   1.000  H
  H60      1.0000 0.89490  0.32620  0.01460  Biso   1.000  H
  N15      1.0000 0.92420  0.24675  0.93930  Biso   1.000  N
  C38      1.0000 0.88291  0.20267  0.98013  Biso   1.000  C
  H61      1.0000 0.85690  0.20610  0.04730  Biso   1.000  H
  C39      1.0000 0.88658  0.15366  0.90602  Biso   1.000  C
  H62      1.0000 0.86350  0.11620  0.91080  Biso   1.000  H
  C40      1.0000 0.95165  0.22471  0.84415  Biso   1.000  C
  H63      1.0000 0.98190  0.24570  0.79840  Biso   1.000  H
  N16      1.0000 0.92981  0.16835  0.82332  Biso   1.000  N
  H64      1.0000 0.94150  0.14410  0.76500  Biso   1.000  H
  Rb15     1.0000 0.98346  0.56515  0.36813  Biso   1.000  Rb
  Rb16     1.0000 0.21399  0.46899  0.99689  Biso   1.000  Rb
