data_image0
_cell_length_a       22.521
_cell_length_b       22.521
_cell_length_c       22.521
_cell_angle_alpha    90
_cell_angle_beta     90
_cell_angle_gamma    90

_symmetry_space_group_name_H-M    "P 1"
_symmetry_int_tables_number       1

loop_
  _symmetry_equiv_pos_as_xyz
  'x, y, z'

loop_
  _atom_site_label
  _atom_site_occupancy
  _atom_site_fract_x
  _atom_site_fract_y
  _atom_site_fract_z
  _atom_site_thermal_displace_type
  _atom_site_B_iso_or_equiv
  _atom_site_type_symbol
  Cd1      1.0000 0.28534  0.28534  0.71466  Biso   1.000  Cd
  Cd2      1.0000 0.71466  0.71466  0.71466  Biso   1.000  Cd
  Cd3      1.0000 0.71466  0.28534  0.28534  Biso   1.000  Cd
  Cd4      1.0000 0.28534  0.71466  0.28534  Biso   1.000  Cd
  Cd5      1.0000 0.28534  0.28534  0.28534  Biso   1.000  Cd
  Cd6      1.0000 0.71466  0.71466  0.28534  Biso   1.000  Cd
  Cd7      1.0000 0.28534  0.71466  0.71466  Biso   1.000  Cd
  Cd8      1.0000 0.71466  0.28534  0.71466  Biso   1.000  Cd
  Cd9      1.0000 0.00000  0.00000  0.53800  Biso   1.000  Cd
  Cd10     1.0000 0.00000  0.00000  0.46200  Biso   1.000  Cd
  Cd11     1.0000 0.53800  0.00000  0.00000  Biso   1.000  Cd
  Cd12     1.0000 0.46200  0.00000  0.00000  Biso   1.000  Cd
  Cd13     1.0000 0.00000  0.53800  0.00000  Biso   1.000  Cd
  Cd14     1.0000 0.00000  0.46200  0.00000  Biso   1.000  Cd
  N1       1.0000 0.00000  0.09570  0.50000  Biso   1.000  N
  N2       1.0000 0.00000  0.90430  0.50000  Biso   1.000  N
  N3       1.0000 0.50000  0.00000  0.09570  Biso   1.000  N
  N4       1.0000 0.50000  0.00000  0.90430  Biso   1.000  N
  N5       1.0000 0.09570  0.50000  0.00000  Biso   1.000  N
  N6       1.0000 0.90430  0.50000  0.00000  Biso   1.000  N
  N7       1.0000 0.09570  0.00000  0.50000  Biso   1.000  N
  N8       1.0000 0.90430  0.00000  0.50000  Biso   1.000  N
  N9       1.0000 0.00000  0.50000  0.90430  Biso   1.000  N
  N10      1.0000 0.00000  0.50000  0.09570  Biso   1.000  N
  N11      1.0000 0.50000  0.09570  0.00000  Biso   1.000  N
  N12      1.0000 0.50000  0.90430  0.00000  Biso   1.000  N
  O1       1.0000 0.22510  0.22510  0.65540  Biso   1.000  O
  C1       1.0000 0.22160  0.22160  0.55300  Biso   1.000  C
  C2       1.0000 0.17770  0.17770  0.55310  Biso   1.000  C
  H1       1.0000 0.16320  0.16320  0.58890  Biso   1.000  H
  O2       1.0000 0.28290  0.28290  0.60760  Biso   1.000  O
  C3       1.0000 0.24450  0.24450  0.61060  Biso   1.000  C
  O3       1.0000 0.77490  0.77490  0.65540  Biso   1.000  O
  C4       1.0000 0.77840  0.77840  0.55300  Biso   1.000  C
  C5       1.0000 0.82230  0.82230  0.55310  Biso   1.000  C
  H2       1.0000 0.83680  0.83680  0.58890  Biso   1.000  H
  O4       1.0000 0.71710  0.71710  0.60760  Biso   1.000  O
  C6       1.0000 0.75550  0.75550  0.61060  Biso   1.000  C
  O5       1.0000 0.77490  0.22510  0.34460  Biso   1.000  O
  C7       1.0000 0.77840  0.22160  0.44700  Biso   1.000  C
  C8       1.0000 0.82230  0.17770  0.44690  Biso   1.000  C
  H3       1.0000 0.83680  0.16320  0.41110  Biso   1.000  H
  O6       1.0000 0.71710  0.28290  0.39240  Biso   1.000  O
  C9       1.0000 0.75550  0.24450  0.38940  Biso   1.000  C
  O7       1.0000 0.22510  0.77490  0.34460  Biso   1.000  O
  C10      1.0000 0.22160  0.77840  0.44700  Biso   1.000  C
  C11      1.0000 0.17770  0.82230  0.44690  Biso   1.000  C
  H4       1.0000 0.16320  0.83680  0.41110  Biso   1.000  H
  O8       1.0000 0.28290  0.71710  0.39240  Biso   1.000  O
  C12      1.0000 0.24450  0.75550  0.38940  Biso   1.000  C
  O9       1.0000 0.65540  0.22510  0.22510  Biso   1.000  O
  C13      1.0000 0.55300  0.22160  0.22160  Biso   1.000  C
  C14      1.0000 0.55310  0.17770  0.17770  Biso   1.000  C
  H5       1.0000 0.58890  0.16320  0.16320  Biso   1.000  H
  O10      1.0000 0.60760  0.28290  0.28290  Biso   1.000  O
  C15      1.0000 0.61060  0.24450  0.24450  Biso   1.000  C
  O11      1.0000 0.65540  0.77490  0.77490  Biso   1.000  O
  C16      1.0000 0.55300  0.77840  0.77840  Biso   1.000  C
  C17      1.0000 0.55310  0.82230  0.82230  Biso   1.000  C
  H6       1.0000 0.58890  0.83680  0.83680  Biso   1.000  H
  O12      1.0000 0.60760  0.71710  0.71710  Biso   1.000  O
  C18      1.0000 0.61060  0.75550  0.75550  Biso   1.000  C
  O13      1.0000 0.34460  0.77490  0.22510  Biso   1.000  O
  C19      1.0000 0.44700  0.77840  0.22160  Biso   1.000  C
  C20      1.0000 0.44690  0.82230  0.17770  Biso   1.000  C
  H7       1.0000 0.41110  0.83680  0.16320  Biso   1.000  H
  O14      1.0000 0.39240  0.71710  0.28290  Biso   1.000  O
  C21      1.0000 0.38940  0.75550  0.24450  Biso   1.000  C
  O15      1.0000 0.34460  0.22510  0.77490  Biso   1.000  O
  C22      1.0000 0.44700  0.22160  0.77840  Biso   1.000  C
  C23      1.0000 0.44690  0.17770  0.82230  Biso   1.000  C
  H8       1.0000 0.41110  0.16320  0.83680  Biso   1.000  H
  O16      1.0000 0.39240  0.28290  0.71710  Biso   1.000  O
  C24      1.0000 0.38940  0.24450  0.75550  Biso   1.000  C
  O17      1.0000 0.22510  0.65540  0.22510  Biso   1.000  O
  C25      1.0000 0.22160  0.55300  0.22160  Biso   1.000  C
  C26      1.0000 0.17770  0.55310  0.17770  Biso   1.000  C
  H9       1.0000 0.16320  0.58890  0.16320  Biso   1.000  H
  O18      1.0000 0.28290  0.60760  0.28290  Biso   1.000  O
  C27      1.0000 0.24450  0.61060  0.24450  Biso   1.000  C
  O19      1.0000 0.77490  0.65540  0.77490  Biso   1.000  O
  C28      1.0000 0.77840  0.55300  0.77840  Biso   1.000  C
  C29      1.0000 0.82230  0.55310  0.82230  Biso   1.000  C
  H10      1.0000 0.83680  0.58890  0.83680  Biso   1.000  H
  O20      1.0000 0.71710  0.60760  0.71710  Biso   1.000  O
  C30      1.0000 0.75550  0.61060  0.75550  Biso   1.000  C
  O21      1.0000 0.22510  0.34460  0.77490  Biso   1.000  O
  C31      1.0000 0.22160  0.44700  0.77840  Biso   1.000  C
  C32      1.0000 0.17770  0.44690  0.82230  Biso   1.000  C
  H11      1.0000 0.16320  0.41110  0.83680  Biso   1.000  H
  O22      1.0000 0.28290  0.39240  0.71710  Biso   1.000  O
  C33      1.0000 0.24450  0.38940  0.75550  Biso   1.000  C
  O23      1.0000 0.77490  0.34460  0.22510  Biso   1.000  O
  C34      1.0000 0.77840  0.44700  0.22160  Biso   1.000  C
  C35      1.0000 0.82230  0.44690  0.17770  Biso   1.000  C
  H12      1.0000 0.83680  0.41110  0.16320  Biso   1.000  H
  O24      1.0000 0.71710  0.39240  0.28290  Biso   1.000  O
  C36      1.0000 0.75550  0.38940  0.24450  Biso   1.000  C
  O25      1.0000 0.22510  0.22510  0.34460  Biso   1.000  O
  C37      1.0000 0.22160  0.22160  0.44700  Biso   1.000  C
  C38      1.0000 0.17770  0.17770  0.44690  Biso   1.000  C
  H13      1.0000 0.16320  0.16320  0.41110  Biso   1.000  H
  O26      1.0000 0.28290  0.28290  0.39240  Biso   1.000  O
  C39      1.0000 0.24450  0.24450  0.38940  Biso   1.000  C
  O27      1.0000 0.77490  0.77490  0.34460  Biso   1.000  O
  C40      1.0000 0.77840  0.77840  0.44700  Biso   1.000  C
  C41      1.0000 0.82230  0.82230  0.44690  Biso   1.000  C
  H14      1.0000 0.83680  0.83680  0.41110  Biso   1.000  H
  O28      1.0000 0.71710  0.71710  0.39240  Biso   1.000  O
  C42      1.0000 0.75550  0.75550  0.38940  Biso   1.000  C
  O29      1.0000 0.22510  0.77490  0.65540  Biso   1.000  O
  C43      1.0000 0.22160  0.77840  0.55300  Biso   1.000  C
  C44      1.0000 0.17770  0.82230  0.55310  Biso   1.000  C
  H15      1.0000 0.16320  0.83680  0.58890  Biso   1.000  H
  O30      1.0000 0.28290  0.71710  0.60760  Biso   1.000  O
  C45      1.0000 0.24450  0.75550  0.61060  Biso   1.000  C
  O31      1.0000 0.77490  0.22510  0.65540  Biso   1.000  O
  C46      1.0000 0.77840  0.22160  0.55300  Biso   1.000  C
  C47      1.0000 0.82230  0.17770  0.55310  Biso   1.000  C
  H16      1.0000 0.83680  0.16320  0.58890  Biso   1.000  H
  O32      1.0000 0.71710  0.28290  0.60760  Biso   1.000  O
  C48      1.0000 0.75550  0.24450  0.61060  Biso   1.000  C
  O33      1.0000 0.22510  0.65540  0.77490  Biso   1.000  O
  C49      1.0000 0.22160  0.55300  0.77840  Biso   1.000  C
  C50      1.0000 0.17770  0.55310  0.82230  Biso   1.000  C
  H17      1.0000 0.16320  0.58890  0.83680  Biso   1.000  H
  O34      1.0000 0.28290  0.60760  0.71710  Biso   1.000  O
  C51      1.0000 0.24450  0.61060  0.75550  Biso   1.000  C
  O35      1.0000 0.77490  0.65540  0.22510  Biso   1.000  O
  C52      1.0000 0.77840  0.55300  0.22160  Biso   1.000  C
  C53      1.0000 0.82230  0.55310  0.17770  Biso   1.000  C
  H18      1.0000 0.83680  0.58890  0.16320  Biso   1.000  H
  O36      1.0000 0.71710  0.60760  0.28290  Biso   1.000  O
  C54      1.0000 0.75550  0.61060  0.24450  Biso   1.000  C
  O37      1.0000 0.77490  0.34460  0.77490  Biso   1.000  O
  C55      1.0000 0.77840  0.44700  0.77840  Biso   1.000  C
  C56      1.0000 0.82230  0.44690  0.82230  Biso   1.000  C
  H19      1.0000 0.83680  0.41110  0.83680  Biso   1.000  H
  O38      1.0000 0.71710  0.39240  0.71710  Biso   1.000  O
  C57      1.0000 0.75550  0.38940  0.75550  Biso   1.000  C
  O39      1.0000 0.22510  0.34460  0.22510  Biso   1.000  O
  C58      1.0000 0.22160  0.44700  0.22160  Biso   1.000  C
  C59      1.0000 0.17770  0.44690  0.17770  Biso   1.000  C
  H20      1.0000 0.16320  0.41110  0.16320  Biso   1.000  H
  O40      1.0000 0.28290  0.39240  0.28290  Biso   1.000  O
  C60      1.0000 0.24450  0.38940  0.24450  Biso   1.000  C
  O41      1.0000 0.65540  0.22510  0.77490  Biso   1.000  O
  C61      1.0000 0.55300  0.22160  0.77840  Biso   1.000  C
  C62      1.0000 0.55310  0.17770  0.82230  Biso   1.000  C
  H21      1.0000 0.58890  0.16320  0.83680  Biso   1.000  H
  O42      1.0000 0.60760  0.28290  0.71710  Biso   1.000  O
  C63      1.0000 0.61060  0.24450  0.75550  Biso   1.000  C
  O43      1.0000 0.65540  0.77490  0.22510  Biso   1.000  O
  C64      1.0000 0.55300  0.77840  0.22160  Biso   1.000  C
  C65      1.0000 0.55310  0.82230  0.17770  Biso   1.000  C
  H22      1.0000 0.58890  0.83680  0.16320  Biso   1.000  H
  O44      1.0000 0.60760  0.71710  0.28290  Biso   1.000  O
  C66      1.0000 0.61060  0.75550  0.24450  Biso   1.000  C
  O45      1.0000 0.34460  0.22510  0.22510  Biso   1.000  O
  C67      1.0000 0.44700  0.22160  0.22160  Biso   1.000  C
  C68      1.0000 0.44690  0.17770  0.17770  Biso   1.000  C
  H23      1.0000 0.41110  0.16320  0.16320  Biso   1.000  H
  O46      1.0000 0.39240  0.28290  0.28290  Biso   1.000  O
  C69      1.0000 0.38940  0.24450  0.24450  Biso   1.000  C
  O47      1.0000 0.34460  0.77490  0.77490  Biso   1.000  O
  C70      1.0000 0.44700  0.77840  0.77840  Biso   1.000  C
  C71      1.0000 0.44690  0.82230  0.82230  Biso   1.000  C
  H24      1.0000 0.41110  0.83680  0.83680  Biso   1.000  H
  O48      1.0000 0.39240  0.71710  0.71710  Biso   1.000  O
  C72      1.0000 0.38940  0.75550  0.75550  Biso   1.000  C
  C73      1.0000 0.05090  0.13090  0.50000  Biso   1.000  C
  C74      1.0000 0.03010  0.19270  0.50000  Biso   1.000  C
  H25      1.0000 0.05420  0.22620  0.50000  Biso   1.000  H
  C75      1.0000 0.94910  0.86910  0.50000  Biso   1.000  C
  C76      1.0000 0.96990  0.80730  0.50000  Biso   1.000  C
  H26      1.0000 0.94580  0.77380  0.50000  Biso   1.000  H
  C77      1.0000 0.94910  0.13090  0.50000  Biso   1.000  C
  C78      1.0000 0.96990  0.19270  0.50000  Biso   1.000  C
  H27      1.0000 0.94580  0.22620  0.50000  Biso   1.000  H
  C79      1.0000 0.05090  0.86910  0.50000  Biso   1.000  C
  C80      1.0000 0.03010  0.80730  0.50000  Biso   1.000  C
  H28      1.0000 0.05420  0.77380  0.50000  Biso   1.000  H
  C81      1.0000 0.50000  0.05090  0.13090  Biso   1.000  C
  C82      1.0000 0.50000  0.03010  0.19270  Biso   1.000  C
  H29      1.0000 0.50000  0.05420  0.22620  Biso   1.000  H
  C83      1.0000 0.50000  0.94910  0.86910  Biso   1.000  C
  C84      1.0000 0.50000  0.96990  0.80730  Biso   1.000  C
  H30      1.0000 0.50000  0.94580  0.77380  Biso   1.000  H
  C85      1.0000 0.50000  0.94910  0.13090  Biso   1.000  C
  C86      1.0000 0.50000  0.96990  0.19270  Biso   1.000  C
  H31      1.0000 0.50000  0.94580  0.22620  Biso   1.000  H
  C87      1.0000 0.50000  0.05090  0.86910  Biso   1.000  C
  C88      1.0000 0.50000  0.03010  0.80730  Biso   1.000  C
  H32      1.0000 0.50000  0.05420  0.77380  Biso   1.000  H
  C89      1.0000 0.13090  0.50000  0.05090  Biso   1.000  C
  C90      1.0000 0.19270  0.50000  0.03010  Biso   1.000  C
  H33      1.0000 0.22620  0.50000  0.05420  Biso   1.000  H
  C91      1.0000 0.86910  0.50000  0.94910  Biso   1.000  C
  C92      1.0000 0.80730  0.50000  0.96990  Biso   1.000  C
  H34      1.0000 0.77380  0.50000  0.94580  Biso   1.000  H
  C93      1.0000 0.13090  0.50000  0.94910  Biso   1.000  C
  C94      1.0000 0.19270  0.50000  0.96990  Biso   1.000  C
  H35      1.0000 0.22620  0.50000  0.94580  Biso   1.000  H
  C95      1.0000 0.86910  0.50000  0.05090  Biso   1.000  C
  C96      1.0000 0.80730  0.50000  0.03010  Biso   1.000  C
  H36      1.0000 0.77380  0.50000  0.05420  Biso   1.000  H
  C97      1.0000 0.13090  0.05090  0.50000  Biso   1.000  C
  C98      1.0000 0.19270  0.03010  0.50000  Biso   1.000  C
  H37      1.0000 0.22620  0.05420  0.50000  Biso   1.000  H
  C99      1.0000 0.86910  0.94910  0.50000  Biso   1.000  C
  C100     1.0000 0.80730  0.96990  0.50000  Biso   1.000  C
  H38      1.0000 0.77380  0.94580  0.50000  Biso   1.000  H
  C101     1.0000 0.13090  0.94910  0.50000  Biso   1.000  C
  C102     1.0000 0.19270  0.96990  0.50000  Biso   1.000  C
  H39      1.0000 0.22620  0.94580  0.50000  Biso   1.000  H
  C103     1.0000 0.86910  0.05090  0.50000  Biso   1.000  C
  C104     1.0000 0.80730  0.03010  0.50000  Biso   1.000  C
  H40      1.0000 0.77380  0.05420  0.50000  Biso   1.000  H
  C105     1.0000 0.05090  0.50000  0.86910  Biso   1.000  C
  C106     1.0000 0.03010  0.50000  0.80730  Biso   1.000  C
  H41      1.0000 0.05420  0.50000  0.77380  Biso   1.000  H
  C107     1.0000 0.94910  0.50000  0.13090  Biso   1.000  C
  C108     1.0000 0.96990  0.50000  0.19270  Biso   1.000  C
  H42      1.0000 0.94580  0.50000  0.22620  Biso   1.000  H
  C109     1.0000 0.94910  0.50000  0.86910  Biso   1.000  C
  C110     1.0000 0.96990  0.50000  0.80730  Biso   1.000  C
  H43      1.0000 0.94580  0.50000  0.77380  Biso   1.000  H
  C111     1.0000 0.05090  0.50000  0.13090  Biso   1.000  C
  C112     1.0000 0.03010  0.50000  0.19270  Biso   1.000  C
  H44      1.0000 0.05420  0.50000  0.22620  Biso   1.000  H
  C113     1.0000 0.50000  0.13090  0.94910  Biso   1.000  C
  C114     1.0000 0.50000  0.19270  0.96990  Biso   1.000  C
  H45      1.0000 0.50000  0.22620  0.94580  Biso   1.000  H
  C115     1.0000 0.50000  0.86910  0.05090  Biso   1.000  C
  C116     1.0000 0.50000  0.80730  0.03010  Biso   1.000  C
  H46      1.0000 0.50000  0.77380  0.05420  Biso   1.000  H
  C117     1.0000 0.50000  0.13090  0.05090  Biso   1.000  C
  C118     1.0000 0.50000  0.19270  0.03010  Biso   1.000  C
  H47      1.0000 0.50000  0.22620  0.05420  Biso   1.000  H
  C119     1.0000 0.50000  0.86910  0.94910  Biso   1.000  C
  C120     1.0000 0.50000  0.80730  0.96990  Biso   1.000  C
  H48      1.0000 0.50000  0.77380  0.94580  Biso   1.000  H
  C121     1.0000 0.10910  0.10910  0.50000  Biso   1.000  C
  C122     1.0000 0.15600  0.15600  0.50000  Biso   1.000  C
  C123     1.0000 0.24270  0.24270  0.50000  Biso   1.000  C
  H49      1.0000 0.27190  0.27190  0.50000  Biso   1.000  H
  C124     1.0000 0.89090  0.89090  0.50000  Biso   1.000  C
  C125     1.0000 0.84400  0.84400  0.50000  Biso   1.000  C
  C126     1.0000 0.75730  0.75730  0.50000  Biso   1.000  C
  H50      1.0000 0.72810  0.72810  0.50000  Biso   1.000  H
  C127     1.0000 0.89090  0.10910  0.50000  Biso   1.000  C
  C128     1.0000 0.84400  0.15600  0.50000  Biso   1.000  C
  C129     1.0000 0.75730  0.24270  0.50000  Biso   1.000  C
  H51      1.0000 0.72810  0.27190  0.50000  Biso   1.000  H
  C130     1.0000 0.10910  0.89090  0.50000  Biso   1.000  C
  C131     1.0000 0.15600  0.84400  0.50000  Biso   1.000  C
  C132     1.0000 0.24270  0.75730  0.50000  Biso   1.000  C
  H52      1.0000 0.27190  0.72810  0.50000  Biso   1.000  H
  C133     1.0000 0.50000  0.10910  0.10910  Biso   1.000  C
  C134     1.0000 0.50000  0.15600  0.15600  Biso   1.000  C
  C135     1.0000 0.50000  0.24270  0.24270  Biso   1.000  C
  H53      1.0000 0.50000  0.27190  0.27190  Biso   1.000  H
  C136     1.0000 0.50000  0.89090  0.89090  Biso   1.000  C
  C137     1.0000 0.50000  0.84400  0.84400  Biso   1.000  C
  C138     1.0000 0.50000  0.75730  0.75730  Biso   1.000  C
  H54      1.0000 0.50000  0.72810  0.72810  Biso   1.000  H
  C139     1.0000 0.50000  0.89090  0.10910  Biso   1.000  C
  C140     1.0000 0.50000  0.84400  0.15600  Biso   1.000  C
  C141     1.0000 0.50000  0.75730  0.24270  Biso   1.000  C
  H55      1.0000 0.50000  0.72810  0.27190  Biso   1.000  H
  C142     1.0000 0.50000  0.10910  0.89090  Biso   1.000  C
  C143     1.0000 0.50000  0.15600  0.84400  Biso   1.000  C
  C144     1.0000 0.50000  0.24270  0.75730  Biso   1.000  C
  H56      1.0000 0.50000  0.27190  0.72810  Biso   1.000  H
  C145     1.0000 0.10910  0.50000  0.10910  Biso   1.000  C
  C146     1.0000 0.15600  0.50000  0.15600  Biso   1.000  C
  C147     1.0000 0.24270  0.50000  0.24270  Biso   1.000  C
  H57      1.0000 0.27190  0.50000  0.27190  Biso   1.000  H
  C148     1.0000 0.89090  0.50000  0.89090  Biso   1.000  C
  C149     1.0000 0.84400  0.50000  0.84400  Biso   1.000  C
  C150     1.0000 0.75730  0.50000  0.75730  Biso   1.000  C
  H58      1.0000 0.72810  0.50000  0.72810  Biso   1.000  H
  C151     1.0000 0.10910  0.50000  0.89090  Biso   1.000  C
  C152     1.0000 0.15600  0.50000  0.84400  Biso   1.000  C
  C153     1.0000 0.24270  0.50000  0.75730  Biso   1.000  C
  H59      1.0000 0.27190  0.50000  0.72810  Biso   1.000  H
  C154     1.0000 0.89090  0.50000  0.10910  Biso   1.000  C
  C155     1.0000 0.84400  0.50000  0.15600  Biso   1.000  C
  C156     1.0000 0.75730  0.50000  0.24270  Biso   1.000  C
  H60      1.0000 0.72810  0.50000  0.27190  Biso   1.000  H
