data_image0
_cell_length_a       18.9701
_cell_length_b       18.9701
_cell_length_c       16.74
_cell_angle_alpha    90
_cell_angle_beta     90
_cell_angle_gamma    90

_symmetry_space_group_name_H-M    "P 1"
_symmetry_int_tables_number       1

loop_
  _symmetry_equiv_pos_as_xyz
  'x, y, z'

loop_
  _atom_site_label
  _atom_site_occupancy
  _atom_site_fract_x
  _atom_site_fract_y
  _atom_site_fract_z
  _atom_site_thermal_displace_type
  _atom_site_B_iso_or_equiv
  _atom_site_type_symbol
  Zn1      1.0000 0.60549  0.17336  0.17924  Biso   1.000  Zn
  C1       1.0000 0.63980  0.30920  0.26560  Biso   1.000  C
  H1       1.0000 0.60270  0.30580  0.30180  Biso   1.000  H
  C2       1.0000 0.63820  0.03260  0.25050  Biso   1.000  C
  H2       1.0000 0.60470  0.01060  0.21840  Biso   1.000  H
  C3       1.0000 0.69920  0.10930  0.30660  Biso   1.000  C
  H3       1.0000 0.71800  0.15250  0.32210  Biso   1.000  H
  C4       1.0000 0.68120  0.10880  0.04220  Biso   1.000  C
  H4       1.0000 0.71250  0.08450  0.07480  Biso   1.000  H
  C5       1.0000 0.71730  0.04730  0.33770  Biso   1.000  C
  H5       1.0000 0.75080  0.03960  0.37730  Biso   1.000  H
  N1       1.0000 0.65220  0.26460  0.20440  Biso   1.000  N
  N2       1.0000 0.64920  0.10060  0.24880  Biso   1.000  N
  N3       1.0000 0.62800  0.14990  0.06710  Biso   1.000  N
  N4       1.0000 0.67790  0.99790  0.30080  Biso   1.000  N
  Zn2      1.0000 0.39451  0.82664  0.17924  Biso   1.000  Zn
  C6       1.0000 0.36020  0.69080  0.26560  Biso   1.000  C
  H6       1.0000 0.39730  0.69420  0.30180  Biso   1.000  H
  C7       1.0000 0.36180  0.96740  0.25050  Biso   1.000  C
  H7       1.0000 0.39530  0.98940  0.21840  Biso   1.000  H
  C8       1.0000 0.30080  0.89070  0.30660  Biso   1.000  C
  H8       1.0000 0.28200  0.84750  0.32210  Biso   1.000  H
  C9       1.0000 0.31880  0.89120  0.04220  Biso   1.000  C
  H9       1.0000 0.28750  0.91550  0.07480  Biso   1.000  H
  C10      1.0000 0.28270  0.95270  0.33770  Biso   1.000  C
  H10      1.0000 0.24920  0.96040  0.37730  Biso   1.000  H
  N5       1.0000 0.34780  0.73540  0.20440  Biso   1.000  N
  N6       1.0000 0.35080  0.89940  0.24880  Biso   1.000  N
  N7       1.0000 0.37200  0.85010  0.06710  Biso   1.000  N
  N8       1.0000 0.32210  0.00210  0.30080  Biso   1.000  N
  Zn3      1.0000 0.32664  0.10549  0.67924  Biso   1.000  Zn
  C11      1.0000 0.19080  0.13980  0.76560  Biso   1.000  C
  H11      1.0000 0.19420  0.10270  0.80180  Biso   1.000  H
  C12      1.0000 0.46740  0.13820  0.75050  Biso   1.000  C
  H12      1.0000 0.48940  0.10470  0.71840  Biso   1.000  H
  C13      1.0000 0.39070  0.19920  0.80660  Biso   1.000  C
  H13      1.0000 0.34750  0.21800  0.82210  Biso   1.000  H
  C14      1.0000 0.39120  0.18120  0.54220  Biso   1.000  C
  H14      1.0000 0.41550  0.21250  0.57480  Biso   1.000  H
  C15      1.0000 0.45270  0.21730  0.83770  Biso   1.000  C
  H15      1.0000 0.46040  0.25080  0.87730  Biso   1.000  H
  N9       1.0000 0.23540  0.15220  0.70440  Biso   1.000  N
  N10      1.0000 0.39940  0.14920  0.74880  Biso   1.000  N
  N11      1.0000 0.35010  0.12800  0.56710  Biso   1.000  N
  N12      1.0000 0.50210  0.17790  0.80080  Biso   1.000  N
  Zn4      1.0000 0.67336  0.89451  0.67924  Biso   1.000  Zn
  C16      1.0000 0.80920  0.86020  0.76560  Biso   1.000  C
  H16      1.0000 0.80580  0.89730  0.80180  Biso   1.000  H
  C17      1.0000 0.53260  0.86180  0.75050  Biso   1.000  C
  H17      1.0000 0.51060  0.89530  0.71840  Biso   1.000  H
  C18      1.0000 0.60930  0.80080  0.80660  Biso   1.000  C
  H18      1.0000 0.65250  0.78200  0.82210  Biso   1.000  H
  C19      1.0000 0.60880  0.81880  0.54220  Biso   1.000  C
  H19      1.0000 0.58450  0.78750  0.57480  Biso   1.000  H
  C20      1.0000 0.54730  0.78270  0.83770  Biso   1.000  C
  H20      1.0000 0.53960  0.74920  0.87730  Biso   1.000  H
  N13      1.0000 0.76460  0.84780  0.70440  Biso   1.000  N
  N14      1.0000 0.60060  0.85080  0.74880  Biso   1.000  N
  N15      1.0000 0.64990  0.87200  0.56710  Biso   1.000  N
  N16      1.0000 0.49790  0.82210  0.80080  Biso   1.000  N
  Zn5      1.0000 0.89451  0.67336  0.32076  Biso   1.000  Zn
  C21      1.0000 0.86020  0.80920  0.23440  Biso   1.000  C
  H21      1.0000 0.89730  0.80580  0.19820  Biso   1.000  H
  C22      1.0000 0.86180  0.53260  0.24950  Biso   1.000  C
  H22      1.0000 0.89530  0.51060  0.28160  Biso   1.000  H
  C23      1.0000 0.80080  0.60930  0.19340  Biso   1.000  C
  H23      1.0000 0.78200  0.65250  0.17790  Biso   1.000  H
  C24      1.0000 0.81880  0.60880  0.45780  Biso   1.000  C
  H24      1.0000 0.78750  0.58450  0.42520  Biso   1.000  H
  C25      1.0000 0.78270  0.54730  0.16230  Biso   1.000  C
  H25      1.0000 0.74920  0.53960  0.12270  Biso   1.000  H
  N17      1.0000 0.84780  0.76460  0.29560  Biso   1.000  N
  N18      1.0000 0.85080  0.60060  0.25120  Biso   1.000  N
  N19      1.0000 0.87200  0.64990  0.43290  Biso   1.000  N
  N20      1.0000 0.82210  0.49790  0.19920  Biso   1.000  N
  Zn6      1.0000 0.10549  0.32664  0.32076  Biso   1.000  Zn
  C26      1.0000 0.13980  0.19080  0.23440  Biso   1.000  C
  H26      1.0000 0.10270  0.19420  0.19820  Biso   1.000  H
  C27      1.0000 0.13820  0.46740  0.24950  Biso   1.000  C
  H27      1.0000 0.10470  0.48940  0.28160  Biso   1.000  H
  C28      1.0000 0.19920  0.39070  0.19340  Biso   1.000  C
  H28      1.0000 0.21800  0.34750  0.17790  Biso   1.000  H
  C29      1.0000 0.18120  0.39120  0.45780  Biso   1.000  C
  H29      1.0000 0.21250  0.41550  0.42520  Biso   1.000  H
  C30      1.0000 0.21730  0.45270  0.16230  Biso   1.000  C
  H30      1.0000 0.25080  0.46040  0.12270  Biso   1.000  H
  N21      1.0000 0.15220  0.23540  0.29560  Biso   1.000  N
  N22      1.0000 0.14920  0.39940  0.25120  Biso   1.000  N
  N23      1.0000 0.12800  0.35010  0.43290  Biso   1.000  N
  N24      1.0000 0.17790  0.50210  0.19920  Biso   1.000  N
  Zn7      1.0000 0.17336  0.60549  0.82076  Biso   1.000  Zn
  C31      1.0000 0.30920  0.63980  0.73440  Biso   1.000  C
  H31      1.0000 0.30580  0.60270  0.69820  Biso   1.000  H
  C32      1.0000 0.03260  0.63820  0.74950  Biso   1.000  C
  H32      1.0000 0.01060  0.60470  0.78160  Biso   1.000  H
  C33      1.0000 0.10930  0.69920  0.69340  Biso   1.000  C
  H33      1.0000 0.15250  0.71800  0.67790  Biso   1.000  H
  C34      1.0000 0.10880  0.68120  0.95780  Biso   1.000  C
  H34      1.0000 0.08450  0.71250  0.92520  Biso   1.000  H
  C35      1.0000 0.04730  0.71730  0.66230  Biso   1.000  C
  H35      1.0000 0.03960  0.75080  0.62270  Biso   1.000  H
  N25      1.0000 0.26460  0.65220  0.79560  Biso   1.000  N
  N26      1.0000 0.10060  0.64920  0.75120  Biso   1.000  N
  N27      1.0000 0.14990  0.62800  0.93290  Biso   1.000  N
  N28      1.0000 0.99790  0.67790  0.69920  Biso   1.000  N
  Zn8      1.0000 0.82664  0.39451  0.82076  Biso   1.000  Zn
  C36      1.0000 0.69080  0.36020  0.73440  Biso   1.000  C
  H36      1.0000 0.69420  0.39730  0.69820  Biso   1.000  H
  C37      1.0000 0.96740  0.36180  0.74950  Biso   1.000  C
  H37      1.0000 0.98940  0.39530  0.78160  Biso   1.000  H
  C38      1.0000 0.89070  0.30080  0.69340  Biso   1.000  C
  H38      1.0000 0.84750  0.28200  0.67790  Biso   1.000  H
  C39      1.0000 0.89120  0.31880  0.95780  Biso   1.000  C
  H39      1.0000 0.91550  0.28750  0.92520  Biso   1.000  H
  C40      1.0000 0.95270  0.28270  0.66230  Biso   1.000  C
  H40      1.0000 0.96040  0.24920  0.62270  Biso   1.000  H
  N29      1.0000 0.73540  0.34780  0.79560  Biso   1.000  N
  N30      1.0000 0.89940  0.35080  0.75120  Biso   1.000  N
  N31      1.0000 0.85010  0.37200  0.93290  Biso   1.000  N
  N32      1.0000 0.00210  0.32210  0.69920  Biso   1.000  N
  Zn9      1.0000 0.39451  0.82664  0.82076  Biso   1.000  Zn
  C41      1.0000 0.36020  0.69080  0.73440  Biso   1.000  C
  H41      1.0000 0.39730  0.69420  0.69820  Biso   1.000  H
  C42      1.0000 0.36180  0.96740  0.74950  Biso   1.000  C
  H42      1.0000 0.39530  0.98940  0.78160  Biso   1.000  H
  C43      1.0000 0.30080  0.89070  0.69340  Biso   1.000  C
  H43      1.0000 0.28200  0.84750  0.67790  Biso   1.000  H
  C44      1.0000 0.31880  0.89120  0.95780  Biso   1.000  C
  H44      1.0000 0.28750  0.91550  0.92520  Biso   1.000  H
  C45      1.0000 0.28270  0.95270  0.66230  Biso   1.000  C
  H45      1.0000 0.24920  0.96040  0.62270  Biso   1.000  H
  N33      1.0000 0.34780  0.73540  0.79560  Biso   1.000  N
  N34      1.0000 0.35080  0.89940  0.75120  Biso   1.000  N
  N35      1.0000 0.37200  0.85010  0.93290  Biso   1.000  N
  N36      1.0000 0.32210  0.00210  0.69920  Biso   1.000  N
  Zn10     1.0000 0.60549  0.17336  0.82076  Biso   1.000  Zn
  C46      1.0000 0.63980  0.30920  0.73440  Biso   1.000  C
  H46      1.0000 0.60270  0.30580  0.69820  Biso   1.000  H
  C47      1.0000 0.63820  0.03260  0.74950  Biso   1.000  C
  H47      1.0000 0.60470  0.01060  0.78160  Biso   1.000  H
  C48      1.0000 0.69920  0.10930  0.69340  Biso   1.000  C
  H48      1.0000 0.71800  0.15250  0.67790  Biso   1.000  H
  C49      1.0000 0.68120  0.10880  0.95780  Biso   1.000  C
  H49      1.0000 0.71250  0.08450  0.92520  Biso   1.000  H
  C50      1.0000 0.71730  0.04730  0.66230  Biso   1.000  C
  H50      1.0000 0.75080  0.03960  0.62270  Biso   1.000  H
  N37      1.0000 0.65220  0.26460  0.79560  Biso   1.000  N
  N38      1.0000 0.64920  0.10060  0.75120  Biso   1.000  N
  N39      1.0000 0.62800  0.14990  0.93290  Biso   1.000  N
  N40      1.0000 0.67790  0.99790  0.69920  Biso   1.000  N
  Zn11     1.0000 0.67336  0.89451  0.32076  Biso   1.000  Zn
  C51      1.0000 0.80920  0.86020  0.23440  Biso   1.000  C
  H51      1.0000 0.80580  0.89730  0.19820  Biso   1.000  H
  C52      1.0000 0.53260  0.86180  0.24950  Biso   1.000  C
  H52      1.0000 0.51060  0.89530  0.28160  Biso   1.000  H
  C53      1.0000 0.60930  0.80080  0.19340  Biso   1.000  C
  H53      1.0000 0.65250  0.78200  0.17790  Biso   1.000  H
  C54      1.0000 0.60880  0.81880  0.45780  Biso   1.000  C
  H54      1.0000 0.58450  0.78750  0.42520  Biso   1.000  H
  C55      1.0000 0.54730  0.78270  0.16230  Biso   1.000  C
  H55      1.0000 0.53960  0.74920  0.12270  Biso   1.000  H
  N41      1.0000 0.76460  0.84780  0.29560  Biso   1.000  N
  N42      1.0000 0.60060  0.85080  0.25120  Biso   1.000  N
  N43      1.0000 0.64990  0.87200  0.43290  Biso   1.000  N
  N44      1.0000 0.49790  0.82210  0.19920  Biso   1.000  N
  Zn12     1.0000 0.32664  0.10549  0.32076  Biso   1.000  Zn
  C56      1.0000 0.19080  0.13980  0.23440  Biso   1.000  C
  H56      1.0000 0.19420  0.10270  0.19820  Biso   1.000  H
  C57      1.0000 0.46740  0.13820  0.24950  Biso   1.000  C
  H57      1.0000 0.48940  0.10470  0.28160  Biso   1.000  H
  C58      1.0000 0.39070  0.19920  0.19340  Biso   1.000  C
  H58      1.0000 0.34750  0.21800  0.17790  Biso   1.000  H
  C59      1.0000 0.39120  0.18120  0.45780  Biso   1.000  C
  H59      1.0000 0.41550  0.21250  0.42520  Biso   1.000  H
  C60      1.0000 0.45270  0.21730  0.16230  Biso   1.000  C
  H60      1.0000 0.46040  0.25080  0.12270  Biso   1.000  H
  N45      1.0000 0.23540  0.15220  0.29560  Biso   1.000  N
  N46      1.0000 0.39940  0.14920  0.25120  Biso   1.000  N
  N47      1.0000 0.35010  0.12800  0.43290  Biso   1.000  N
  N48      1.0000 0.50210  0.17790  0.19920  Biso   1.000  N
  Zn13     1.0000 0.10549  0.32664  0.67924  Biso   1.000  Zn
  C61      1.0000 0.13980  0.19080  0.76560  Biso   1.000  C
  H61      1.0000 0.10270  0.19420  0.80180  Biso   1.000  H
  C62      1.0000 0.13820  0.46740  0.75050  Biso   1.000  C
  H62      1.0000 0.10470  0.48940  0.71840  Biso   1.000  H
  C63      1.0000 0.19920  0.39070  0.80660  Biso   1.000  C
  H63      1.0000 0.21800  0.34750  0.82210  Biso   1.000  H
  C64      1.0000 0.18120  0.39120  0.54220  Biso   1.000  C
  H64      1.0000 0.21250  0.41550  0.57480  Biso   1.000  H
  C65      1.0000 0.21730  0.45270  0.83770  Biso   1.000  C
  H65      1.0000 0.25080  0.46040  0.87730  Biso   1.000  H
  N49      1.0000 0.15220  0.23540  0.70440  Biso   1.000  N
  N50      1.0000 0.14920  0.39940  0.74880  Biso   1.000  N
  N51      1.0000 0.12800  0.35010  0.56710  Biso   1.000  N
  N52      1.0000 0.17790  0.50210  0.80080  Biso   1.000  N
  Zn14     1.0000 0.89451  0.67336  0.67924  Biso   1.000  Zn
  C66      1.0000 0.86020  0.80920  0.76560  Biso   1.000  C
  H66      1.0000 0.89730  0.80580  0.80180  Biso   1.000  H
  C67      1.0000 0.86180  0.53260  0.75050  Biso   1.000  C
  H67      1.0000 0.89530  0.51060  0.71840  Biso   1.000  H
  C68      1.0000 0.80080  0.60930  0.80660  Biso   1.000  C
  H68      1.0000 0.78200  0.65250  0.82210  Biso   1.000  H
  C69      1.0000 0.81880  0.60880  0.54220  Biso   1.000  C
  H69      1.0000 0.78750  0.58450  0.57480  Biso   1.000  H
  C70      1.0000 0.78270  0.54730  0.83770  Biso   1.000  C
  H70      1.0000 0.74920  0.53960  0.87730  Biso   1.000  H
  N53      1.0000 0.84780  0.76460  0.70440  Biso   1.000  N
  N54      1.0000 0.85080  0.60060  0.74880  Biso   1.000  N
  N55      1.0000 0.87200  0.64990  0.56710  Biso   1.000  N
  N56      1.0000 0.82210  0.49790  0.80080  Biso   1.000  N
  Zn15     1.0000 0.82664  0.39451  0.17924  Biso   1.000  Zn
  C71      1.0000 0.69080  0.36020  0.26560  Biso   1.000  C
  H71      1.0000 0.69420  0.39730  0.30180  Biso   1.000  H
  C72      1.0000 0.96740  0.36180  0.25050  Biso   1.000  C
  H72      1.0000 0.98940  0.39530  0.21840  Biso   1.000  H
  C73      1.0000 0.89070  0.30080  0.30660  Biso   1.000  C
  H73      1.0000 0.84750  0.28200  0.32210  Biso   1.000  H
  C74      1.0000 0.89120  0.31880  0.04220  Biso   1.000  C
  H74      1.0000 0.91550  0.28750  0.07480  Biso   1.000  H
  C75      1.0000 0.95270  0.28270  0.33770  Biso   1.000  C
  H75      1.0000 0.96040  0.24920  0.37730  Biso   1.000  H
  N57      1.0000 0.73540  0.34780  0.20440  Biso   1.000  N
  N58      1.0000 0.89940  0.35080  0.24880  Biso   1.000  N
  N59      1.0000 0.85010  0.37200  0.06710  Biso   1.000  N
  N60      1.0000 0.00210  0.32210  0.30080  Biso   1.000  N
  Zn16     1.0000 0.17336  0.60549  0.17924  Biso   1.000  Zn
  C76      1.0000 0.30920  0.63980  0.26560  Biso   1.000  C
  H76      1.0000 0.30580  0.60270  0.30180  Biso   1.000  H
  C77      1.0000 0.03260  0.63820  0.25050  Biso   1.000  C
  H77      1.0000 0.01060  0.60470  0.21840  Biso   1.000  H
  C78      1.0000 0.10930  0.69920  0.30660  Biso   1.000  C
  H78      1.0000 0.15250  0.71800  0.32210  Biso   1.000  H
  C79      1.0000 0.10880  0.68120  0.04220  Biso   1.000  C
  H79      1.0000 0.08450  0.71250  0.07480  Biso   1.000  H
  C80      1.0000 0.04730  0.71730  0.33770  Biso   1.000  C
  H80      1.0000 0.03960  0.75080  0.37730  Biso   1.000  H
  N61      1.0000 0.26460  0.65220  0.20440  Biso   1.000  N
  N62      1.0000 0.10060  0.64920  0.24880  Biso   1.000  N
  N63      1.0000 0.14990  0.62800  0.06710  Biso   1.000  N
  N64      1.0000 0.99790  0.67790  0.30080  Biso   1.000  N
  C81      1.0000 0.71070  0.28930  0.17270  Biso   1.000  C
  H81      1.0000 0.73320  0.26680  0.13050  Biso   1.000  H
  C82      1.0000 0.28930  0.71070  0.17270  Biso   1.000  C
  H82      1.0000 0.26680  0.73320  0.13050  Biso   1.000  H
  C83      1.0000 0.21070  0.21070  0.67270  Biso   1.000  C
  H83      1.0000 0.23320  0.23320  0.63050  Biso   1.000  H
  C84      1.0000 0.78930  0.78930  0.67270  Biso   1.000  C
  H84      1.0000 0.76680  0.76680  0.63050  Biso   1.000  H
  C85      1.0000 0.78930  0.78930  0.32730  Biso   1.000  C
  H85      1.0000 0.76680  0.76680  0.36950  Biso   1.000  H
  C86      1.0000 0.21070  0.21070  0.32730  Biso   1.000  C
  H86      1.0000 0.23320  0.23320  0.36950  Biso   1.000  H
  C87      1.0000 0.28930  0.71070  0.82730  Biso   1.000  C
  H87      1.0000 0.26680  0.73320  0.86950  Biso   1.000  H
  C88      1.0000 0.71070  0.28930  0.82730  Biso   1.000  C
  H88      1.0000 0.73320  0.26680  0.86950  Biso   1.000  H
  C89      1.0000 0.59710  0.17110  0.00000  Biso   1.000  C
  H89      1.0000 0.55670  0.19890  0.00000  Biso   1.000  H
  C90      1.0000 0.40290  0.82890  0.00000  Biso   1.000  C
  H90      1.0000 0.44330  0.80110  0.00000  Biso   1.000  H
  C91      1.0000 0.32890  0.09710  0.50000  Biso   1.000  C
  H91      1.0000 0.30110  0.05670  0.50000  Biso   1.000  H
  C92      1.0000 0.67110  0.90290  0.50000  Biso   1.000  C
  H92      1.0000 0.69890  0.94330  0.50000  Biso   1.000  H
  C93      1.0000 0.90290  0.67110  0.50000  Biso   1.000  C
  H93      1.0000 0.94330  0.69890  0.50000  Biso   1.000  H
  C94      1.0000 0.09710  0.32890  0.50000  Biso   1.000  C
  H94      1.0000 0.05670  0.30110  0.50000  Biso   1.000  H
  C95      1.0000 0.17110  0.59710  0.00000  Biso   1.000  C
  H95      1.0000 0.19890  0.55670  0.00000  Biso   1.000  H
  C96      1.0000 0.82890  0.40290  0.00000  Biso   1.000  C
  H96      1.0000 0.80110  0.44330  0.00000  Biso   1.000  H
