data_image0
_cell_length_a       22.9437
_cell_length_b       22.9437
_cell_length_c       15.747
_cell_angle_alpha    90
_cell_angle_beta     90
_cell_angle_gamma    120

_symmetry_space_group_name_H-M    "P 1"
_symmetry_int_tables_number       1

loop_
  _symmetry_equiv_pos_as_xyz
  'x, y, z'

loop_
  _atom_site_label
  _atom_site_occupancy
  _atom_site_fract_x
  _atom_site_fract_y
  _atom_site_fract_z
  _atom_site_thermal_displace_type
  _atom_site_B_iso_or_equiv
  _atom_site_type_symbol
  C1       1.0000 0.32940  0.02880  0.17560  Biso   1.000  C
  H1       1.0000 0.33330  0.07100  0.17140  Biso   1.000  H
  C2       1.0000 0.33670  0.94560  0.22340  Biso   1.000  C
  C3       1.0000 0.34760  0.90060  0.27140  Biso   1.000  C
  H2       1.0000 0.36750  0.91170  0.32490  Biso   1.000  H
  C4       1.0000 0.32700  0.83940  0.23450  Biso   1.000  C
  H3       1.0000 0.33460  0.80850  0.26350  Biso   1.000  H
  C5       1.0000 0.39260  0.20060  0.33940  Biso   1.000  C
  H4       1.0000 0.36590  0.18910  0.38780  Biso   1.000  H
  C6       1.0000 0.45220  0.19570  0.23770  Biso   1.000  C
  C7       1.0000 0.48700  0.17940  0.18000  Biso   1.000  C
  H5       1.0000 0.48630  0.13850  0.18290  Biso   1.000  H
  C8       1.0000 0.52280  0.22580  0.11810  Biso   1.000  C
  H6       1.0000 0.54760  0.21670  0.07890  Biso   1.000  H
  C9       1.0000 0.45240  0.25670  0.23280  Biso   1.000  C
  C10      1.0000 0.48870  0.30380  0.17020  Biso   1.000  C
  H7       1.0000 0.48990  0.34480  0.16720  Biso   1.000  H
  C11      1.0000 0.52260  0.28640  0.11290  Biso   1.000  C
  H8       1.0000 0.54630  0.31620  0.06920  Biso   1.000  H
  C12      1.0000 0.30400  0.92770  0.14540  Biso   1.000  C
  C13      1.0000 0.28370  0.86520  0.11060  Biso   1.000  C
  H9       1.0000 0.26280  0.85330  0.05780  Biso   1.000  H
  C14      1.0000 0.29520  0.82090  0.15640  Biso   1.000  C
  H10      1.0000 0.28160  0.77830  0.13480  Biso   1.000  H
  Co1      1.0000 0.39885  0.07006  0.34075  Biso   1.000  Co
  N1       1.0000 0.35260  0.01120  0.24270  Biso   1.000  N
  N2       1.0000 0.41240  0.15970  0.30630  Biso   1.000  N
  N3       1.0000 0.41290  0.25830  0.29990  Biso   1.000  N
  N4       1.0000 0.30040  0.98250  0.11490  Biso   1.000  N
  C15      1.0000 0.99607  0.36213  0.50893  Biso   1.000  C
  H11      1.0000 0.99997  0.40433  0.50473  Biso   1.000  H
  C16      1.0000 0.00337  0.27893  0.55673  Biso   1.000  C
  C17      1.0000 0.01427  0.23393  0.60473  Biso   1.000  C
  H12      1.0000 0.03417  0.24503  0.65823  Biso   1.000  H
  C18      1.0000 0.99367  0.17273  0.56783  Biso   1.000  C
  H13      1.0000 0.00127  0.14183  0.59683  Biso   1.000  H
  C19      1.0000 0.05927  0.53393  0.67273  Biso   1.000  C
  H14      1.0000 0.03257  0.52243  0.72113  Biso   1.000  H
  C20      1.0000 0.11887  0.52903  0.57103  Biso   1.000  C
  C21      1.0000 0.15367  0.51273  0.51333  Biso   1.000  C
  H15      1.0000 0.15297  0.47183  0.51623  Biso   1.000  H
  C22      1.0000 0.18947  0.55913  0.45143  Biso   1.000  C
  H16      1.0000 0.21427  0.55003  0.41223  Biso   1.000  H
  C23      1.0000 0.11907  0.59003  0.56613  Biso   1.000  C
  C24      1.0000 0.15537  0.63713  0.50353  Biso   1.000  C
  H17      1.0000 0.15657  0.67813  0.50053  Biso   1.000  H
  C25      1.0000 0.18927  0.61973  0.44623  Biso   1.000  C
  H18      1.0000 0.21297  0.64953  0.40253  Biso   1.000  H
  C26      1.0000 0.97067  0.26103  0.47873  Biso   1.000  C
  C27      1.0000 0.95037  0.19853  0.44393  Biso   1.000  C
  H19      1.0000 0.92947  0.18663  0.39113  Biso   1.000  H
  C28      1.0000 0.96187  0.15423  0.48973  Biso   1.000  C
  H20      1.0000 0.94827  0.11163  0.46813  Biso   1.000  H
  Co2      1.0000 0.06552  0.40339  0.67408  Biso   1.000  Co
  N5       1.0000 0.01927  0.34453  0.57603  Biso   1.000  N
  N6       1.0000 0.07907  0.49303  0.63963  Biso   1.000  N
  N7       1.0000 0.07957  0.59163  0.63323  Biso   1.000  N
  N8       1.0000 0.96707  0.31583  0.44823  Biso   1.000  N
  C29      1.0000 0.66273  0.69547  0.84227  Biso   1.000  C
  H21      1.0000 0.66663  0.73767  0.83807  Biso   1.000  H
  C30      1.0000 0.67003  0.61227  0.89007  Biso   1.000  C
  C31      1.0000 0.68093  0.56727  0.93807  Biso   1.000  C
  H22      1.0000 0.70083  0.57837  0.99157  Biso   1.000  H
  C32      1.0000 0.66033  0.50607  0.90117  Biso   1.000  C
  H23      1.0000 0.66793  0.47517  0.93017  Biso   1.000  H
  C33      1.0000 0.72593  0.86727  0.00607  Biso   1.000  C
  H24      1.0000 0.69923  0.85577  0.05447  Biso   1.000  H
  C34      1.0000 0.78553  0.86237  0.90437  Biso   1.000  C
  C35      1.0000 0.82033  0.84607  0.84667  Biso   1.000  C
  H25      1.0000 0.81963  0.80517  0.84957  Biso   1.000  H
  C36      1.0000 0.85613  0.89247  0.78477  Biso   1.000  C
  H26      1.0000 0.88093  0.88337  0.74557  Biso   1.000  H
  C37      1.0000 0.78573  0.92337  0.89947  Biso   1.000  C
  C38      1.0000 0.82203  0.97047  0.83687  Biso   1.000  C
  H27      1.0000 0.82323  0.01147  0.83387  Biso   1.000  H
  C39      1.0000 0.85593  0.95307  0.77957  Biso   1.000  C
  H28      1.0000 0.87963  0.98287  0.73587  Biso   1.000  H
  C40      1.0000 0.63733  0.59437  0.81207  Biso   1.000  C
  C41      1.0000 0.61703  0.53187  0.77727  Biso   1.000  C
  H29      1.0000 0.59613  0.51997  0.72447  Biso   1.000  H
  C42      1.0000 0.62853  0.48757  0.82307  Biso   1.000  C
  H30      1.0000 0.61493  0.44497  0.80147  Biso   1.000  H
  Co3      1.0000 0.73218  0.73673  0.00742  Biso   1.000  Co
  N9       1.0000 0.68593  0.67787  0.90937  Biso   1.000  N
  N10      1.0000 0.74573  0.82637  0.97297  Biso   1.000  N
  N11      1.0000 0.74623  0.92497  0.96657  Biso   1.000  N
  N12      1.0000 0.63373  0.64917  0.78157  Biso   1.000  N
  C43      1.0000 0.97120  0.30060  0.17560  Biso   1.000  C
  H31      1.0000 0.92900  0.26230  0.17140  Biso   1.000  H
  C44      1.0000 0.05440  0.39110  0.22340  Biso   1.000  C
  C45      1.0000 0.09940  0.44700  0.27140  Biso   1.000  C
  H32      1.0000 0.08830  0.45580  0.32490  Biso   1.000  H
  C46      1.0000 0.16060  0.48760  0.23450  Biso   1.000  C
  H33      1.0000 0.19150  0.52610  0.26350  Biso   1.000  H
  C47      1.0000 0.79940  0.19200  0.33940  Biso   1.000  C
  H34      1.0000 0.81090  0.17680  0.38780  Biso   1.000  H
  C48      1.0000 0.80430  0.25650  0.23770  Biso   1.000  C
  C49      1.0000 0.82060  0.30760  0.18000  Biso   1.000  C
  H35      1.0000 0.86150  0.34780  0.18290  Biso   1.000  H
  C50      1.0000 0.77420  0.29700  0.11810  Biso   1.000  C
  H36      1.0000 0.78330  0.33090  0.07890  Biso   1.000  H
  C51      1.0000 0.74330  0.19570  0.23280  Biso   1.000  C
  C52      1.0000 0.69620  0.18490  0.17020  Biso   1.000  C
  H37      1.0000 0.65520  0.14510  0.16720  Biso   1.000  H
  C53      1.0000 0.71360  0.23620  0.11290  Biso   1.000  C
  H38      1.0000 0.68380  0.23010  0.06920  Biso   1.000  H
  C54      1.0000 0.07230  0.37630  0.14540  Biso   1.000  C
  C55      1.0000 0.13480  0.41850  0.11060  Biso   1.000  C
  H39      1.0000 0.14670  0.40950  0.05780  Biso   1.000  H
  C56      1.0000 0.17910  0.47430  0.15640  Biso   1.000  C
  H40      1.0000 0.22170  0.50330  0.13480  Biso   1.000  H
  Co4      1.0000 0.92994  0.32879  0.34075  Biso   1.000  Co
  N13      1.0000 0.98880  0.34140  0.24270  Biso   1.000  N
  N14      1.0000 0.84030  0.25270  0.30630  Biso   1.000  N
  N15      1.0000 0.74170  0.15460  0.29990  Biso   1.000  N
  N16      1.0000 0.01750  0.31790  0.11490  Biso   1.000  N
  C57      1.0000 0.63787  0.63393  0.50893  Biso   1.000  C
  H41      1.0000 0.59567  0.59563  0.50473  Biso   1.000  H
  C58      1.0000 0.72107  0.72443  0.55673  Biso   1.000  C
  C59      1.0000 0.76607  0.78033  0.60473  Biso   1.000  C
  H42      1.0000 0.75497  0.78913  0.65823  Biso   1.000  H
  C60      1.0000 0.82727  0.82093  0.56783  Biso   1.000  C
  H43      1.0000 0.85817  0.85943  0.59683  Biso   1.000  H
  C61      1.0000 0.46607  0.52533  0.67273  Biso   1.000  C
  H44      1.0000 0.47757  0.51013  0.72113  Biso   1.000  H
  C62      1.0000 0.47097  0.58983  0.57103  Biso   1.000  C
  C63      1.0000 0.48727  0.64093  0.51333  Biso   1.000  C
  H45      1.0000 0.52817  0.68113  0.51623  Biso   1.000  H
  C64      1.0000 0.44087  0.63033  0.45143  Biso   1.000  C
  H46      1.0000 0.44997  0.66423  0.41223  Biso   1.000  H
  C65      1.0000 0.40997  0.52903  0.56613  Biso   1.000  C
  C66      1.0000 0.36287  0.51823  0.50353  Biso   1.000  C
  H47      1.0000 0.32187  0.47843  0.50053  Biso   1.000  H
  C67      1.0000 0.38027  0.56953  0.44623  Biso   1.000  C
  H48      1.0000 0.35047  0.56343  0.40253  Biso   1.000  H
  C68      1.0000 0.73897  0.70963  0.47873  Biso   1.000  C
  C69      1.0000 0.80147  0.75183  0.44393  Biso   1.000  C
  H49      1.0000 0.81337  0.74283  0.39113  Biso   1.000  H
  C70      1.0000 0.84577  0.80763  0.48973  Biso   1.000  C
  H50      1.0000 0.88837  0.83663  0.46813  Biso   1.000  H
  Co5      1.0000 0.59661  0.66212  0.67408  Biso   1.000  Co
  N17      1.0000 0.65547  0.67473  0.57603  Biso   1.000  N
  N18      1.0000 0.50697  0.58603  0.63963  Biso   1.000  N
  N19      1.0000 0.40837  0.48793  0.63323  Biso   1.000  N
  N20      1.0000 0.68417  0.65123  0.44823  Biso   1.000  N
  C71      1.0000 0.30453  0.96727  0.84227  Biso   1.000  C
  H51      1.0000 0.26233  0.92897  0.83807  Biso   1.000  H
  C72      1.0000 0.38773  0.05777  0.89007  Biso   1.000  C
  C73      1.0000 0.43273  0.11367  0.93807  Biso   1.000  C
  H52      1.0000 0.42163  0.12247  0.99157  Biso   1.000  H
  C74      1.0000 0.49393  0.15427  0.90117  Biso   1.000  C
  H53      1.0000 0.52483  0.19277  0.93017  Biso   1.000  H
  C75      1.0000 0.13273  0.85867  0.00607  Biso   1.000  C
  H54      1.0000 0.14423  0.84347  0.05447  Biso   1.000  H
  C76      1.0000 0.13763  0.92317  0.90437  Biso   1.000  C
  C77      1.0000 0.15393  0.97427  0.84667  Biso   1.000  C
  H55      1.0000 0.19483  0.01447  0.84957  Biso   1.000  H
  C78      1.0000 0.10753  0.96367  0.78477  Biso   1.000  C
  H56      1.0000 0.11663  0.99757  0.74557  Biso   1.000  H
  C79      1.0000 0.07663  0.86237  0.89947  Biso   1.000  C
  C80      1.0000 0.02953  0.85157  0.83687  Biso   1.000  C
  H57      1.0000 0.98853  0.81177  0.83387  Biso   1.000  H
  C81      1.0000 0.04693  0.90287  0.77957  Biso   1.000  C
  H58      1.0000 0.01713  0.89677  0.73587  Biso   1.000  H
  C82      1.0000 0.40563  0.04297  0.81207  Biso   1.000  C
  C83      1.0000 0.46813  0.08517  0.77727  Biso   1.000  C
  H59      1.0000 0.48003  0.07617  0.72447  Biso   1.000  H
  C84      1.0000 0.51243  0.14097  0.82307  Biso   1.000  C
  H60      1.0000 0.55503  0.16997  0.80147  Biso   1.000  H
  Co6      1.0000 0.26327  0.99546  0.00742  Biso   1.000  Co
  N21      1.0000 0.32213  0.00807  0.90937  Biso   1.000  N
  N22      1.0000 0.17363  0.91937  0.97297  Biso   1.000  N
  N23      1.0000 0.07503  0.82127  0.96657  Biso   1.000  N
  N24      1.0000 0.35083  0.98457  0.78157  Biso   1.000  N
  C85      1.0000 0.69940  0.67060  0.17560  Biso   1.000  C
  H61      1.0000 0.73770  0.66670  0.17140  Biso   1.000  H
  C86      1.0000 0.60890  0.66330  0.22340  Biso   1.000  C
  C87      1.0000 0.55300  0.65240  0.27140  Biso   1.000  C
  H62      1.0000 0.54420  0.63250  0.32490  Biso   1.000  H
  C88      1.0000 0.51240  0.67300  0.23450  Biso   1.000  C
  H63      1.0000 0.47390  0.66540  0.26350  Biso   1.000  H
  C89      1.0000 0.80800  0.60740  0.33940  Biso   1.000  C
  H64      1.0000 0.82320  0.63410  0.38780  Biso   1.000  H
  C90      1.0000 0.74350  0.54780  0.23770  Biso   1.000  C
  C91      1.0000 0.69240  0.51300  0.18000  Biso   1.000  C
  H65      1.0000 0.65220  0.51370  0.18290  Biso   1.000  H
  C92      1.0000 0.70300  0.47720  0.11810  Biso   1.000  C
  H66      1.0000 0.66910  0.45240  0.07890  Biso   1.000  H
  C93      1.0000 0.80430  0.54760  0.23280  Biso   1.000  C
  C94      1.0000 0.81510  0.51130  0.17020  Biso   1.000  C
  H67      1.0000 0.85490  0.51010  0.16720  Biso   1.000  H
  C95      1.0000 0.76380  0.47740  0.11290  Biso   1.000  C
  H68      1.0000 0.76990  0.45370  0.06920  Biso   1.000  H
  C96      1.0000 0.62370  0.69600  0.14540  Biso   1.000  C
  C97      1.0000 0.58150  0.71630  0.11060  Biso   1.000  C
  H69      1.0000 0.59050  0.73720  0.05780  Biso   1.000  H
  C98      1.0000 0.52570  0.70480  0.15640  Biso   1.000  C
  H70      1.0000 0.49670  0.71840  0.13480  Biso   1.000  H
  Co7      1.0000 0.67121  0.60115  0.34075  Biso   1.000  Co
  N25      1.0000 0.65860  0.64740  0.24270  Biso   1.000  N
  N26      1.0000 0.74730  0.58760  0.30630  Biso   1.000  N
  N27      1.0000 0.84540  0.58710  0.29990  Biso   1.000  N
  N28      1.0000 0.68210  0.69960  0.11490  Biso   1.000  N
  C99      1.0000 0.36607  0.00393  0.50893  Biso   1.000  C
  H71      1.0000 0.40437  0.00003  0.50473  Biso   1.000  H
  C100     1.0000 0.27557  0.99663  0.55673  Biso   1.000  C
  C101     1.0000 0.21967  0.98573  0.60473  Biso   1.000  C
  H72      1.0000 0.21087  0.96583  0.65823  Biso   1.000  H
  C102     1.0000 0.17907  0.00633  0.56783  Biso   1.000  C
  H73      1.0000 0.14057  0.99873  0.59683  Biso   1.000  H
  C103     1.0000 0.47467  0.94073  0.67273  Biso   1.000  C
  H74      1.0000 0.48987  0.96743  0.72113  Biso   1.000  H
  C104     1.0000 0.41017  0.88113  0.57103  Biso   1.000  C
  C105     1.0000 0.35907  0.84633  0.51333  Biso   1.000  C
  H75      1.0000 0.31887  0.84703  0.51623  Biso   1.000  H
  C106     1.0000 0.36967  0.81053  0.45143  Biso   1.000  C
  H76      1.0000 0.33577  0.78573  0.41223  Biso   1.000  H
  C107     1.0000 0.47097  0.88093  0.56613  Biso   1.000  C
  C108     1.0000 0.48177  0.84463  0.50353  Biso   1.000  C
  H77      1.0000 0.52157  0.84343  0.50053  Biso   1.000  H
  C109     1.0000 0.43047  0.81073  0.44623  Biso   1.000  C
  H78      1.0000 0.43657  0.78703  0.40253  Biso   1.000  H
  C110     1.0000 0.29037  0.02933  0.47873  Biso   1.000  C
  C111     1.0000 0.24817  0.04963  0.44393  Biso   1.000  C
  H79      1.0000 0.25717  0.07053  0.39113  Biso   1.000  H
  C112     1.0000 0.19237  0.03813  0.48973  Biso   1.000  C
  H80      1.0000 0.16337  0.05173  0.46813  Biso   1.000  H
  Co8      1.0000 0.33788  0.93448  0.67408  Biso   1.000  Co
  N29      1.0000 0.32527  0.98073  0.57603  Biso   1.000  N
  N30      1.0000 0.41397  0.92093  0.63963  Biso   1.000  N
  N31      1.0000 0.51207  0.92043  0.63323  Biso   1.000  N
  N32      1.0000 0.34877  0.03293  0.44823  Biso   1.000  N
  C113     1.0000 0.03273  0.33727  0.84227  Biso   1.000  C
  H81      1.0000 0.07103  0.33337  0.83807  Biso   1.000  H
  C114     1.0000 0.94223  0.32997  0.89007  Biso   1.000  C
  C115     1.0000 0.88633  0.31907  0.93807  Biso   1.000  C
  H82      1.0000 0.87753  0.29917  0.99157  Biso   1.000  H
  C116     1.0000 0.84573  0.33967  0.90117  Biso   1.000  C
  H83      1.0000 0.80723  0.33207  0.93017  Biso   1.000  H
  C117     1.0000 0.14133  0.27407  0.00607  Biso   1.000  C
  H84      1.0000 0.15653  0.30077  0.05447  Biso   1.000  H
  C118     1.0000 0.07683  0.21447  0.90437  Biso   1.000  C
  C119     1.0000 0.02573  0.17967  0.84667  Biso   1.000  C
  H85      1.0000 0.98553  0.18037  0.84957  Biso   1.000  H
  C120     1.0000 0.03633  0.14387  0.78477  Biso   1.000  C
  H86      1.0000 0.00243  0.11907  0.74557  Biso   1.000  H
  C121     1.0000 0.13763  0.21427  0.89947  Biso   1.000  C
  C122     1.0000 0.14843  0.17797  0.83687  Biso   1.000  C
  H87      1.0000 0.18823  0.17677  0.83387  Biso   1.000  H
  C123     1.0000 0.09713  0.14407  0.77957  Biso   1.000  C
  H88      1.0000 0.10323  0.12037  0.73587  Biso   1.000  H
  C124     1.0000 0.95703  0.36267  0.81207  Biso   1.000  C
  C125     1.0000 0.91483  0.38297  0.77727  Biso   1.000  C
  H89      1.0000 0.92383  0.40387  0.72447  Biso   1.000  H
  C126     1.0000 0.85903  0.37147  0.82307  Biso   1.000  C
  H90      1.0000 0.83003  0.38507  0.80147  Biso   1.000  H
  Co9      1.0000 0.00454  0.26782  0.00742  Biso   1.000  Co
  N33      1.0000 0.99193  0.31407  0.90937  Biso   1.000  N
  N34      1.0000 0.08063  0.25427  0.97297  Biso   1.000  N
  N35      1.0000 0.17873  0.25377  0.96657  Biso   1.000  N
  N36      1.0000 0.01543  0.36627  0.78157  Biso   1.000  N
  C127     1.0000 0.67060  0.97120  0.82440  Biso   1.000  C
  H91      1.0000 0.66670  0.92900  0.82860  Biso   1.000  H
  C128     1.0000 0.66330  0.05440  0.77660  Biso   1.000  C
  C129     1.0000 0.65240  0.09940  0.72860  Biso   1.000  C
  H92      1.0000 0.63250  0.08830  0.67510  Biso   1.000  H
  C130     1.0000 0.67300  0.16060  0.76550  Biso   1.000  C
  H93      1.0000 0.66540  0.19150  0.73650  Biso   1.000  H
  C131     1.0000 0.60740  0.79940  0.66060  Biso   1.000  C
  H94      1.0000 0.63410  0.81090  0.61220  Biso   1.000  H
  C132     1.0000 0.54780  0.80430  0.76230  Biso   1.000  C
  C133     1.0000 0.51300  0.82060  0.82000  Biso   1.000  C
  H95      1.0000 0.51370  0.86150  0.81710  Biso   1.000  H
  C134     1.0000 0.47720  0.77420  0.88190  Biso   1.000  C
  H96      1.0000 0.45240  0.78330  0.92110  Biso   1.000  H
  C135     1.0000 0.54760  0.74330  0.76720  Biso   1.000  C
  C136     1.0000 0.51130  0.69620  0.82980  Biso   1.000  C
  H97      1.0000 0.51010  0.65520  0.83280  Biso   1.000  H
  C137     1.0000 0.47740  0.71360  0.88710  Biso   1.000  C
  H98      1.0000 0.45370  0.68380  0.93080  Biso   1.000  H
  C138     1.0000 0.69600  0.07230  0.85460  Biso   1.000  C
  C139     1.0000 0.71630  0.13480  0.88940  Biso   1.000  C
  H99      1.0000 0.73720  0.14670  0.94220  Biso   1.000  H
  C140     1.0000 0.70480  0.17910  0.84360  Biso   1.000  C
  H100     1.0000 0.71840  0.22170  0.86520  Biso   1.000  H
  Co10     1.0000 0.60115  0.92994  0.65925  Biso   1.000  Co
  N37      1.0000 0.64740  0.98880  0.75730  Biso   1.000  N
  N38      1.0000 0.58760  0.84030  0.69370  Biso   1.000  N
  N39      1.0000 0.58710  0.74170  0.70010  Biso   1.000  N
  N40      1.0000 0.69960  0.01750  0.88510  Biso   1.000  N
  C141     1.0000 0.33727  0.30453  0.15773  Biso   1.000  C
  H101     1.0000 0.33337  0.26233  0.16193  Biso   1.000  H
  C142     1.0000 0.32997  0.38773  0.10993  Biso   1.000  C
  C143     1.0000 0.31907  0.43273  0.06193  Biso   1.000  C
  H102     1.0000 0.29917  0.42163  0.00843  Biso   1.000  H
  C144     1.0000 0.33967  0.49393  0.09883  Biso   1.000  C
  H103     1.0000 0.33207  0.52483  0.06983  Biso   1.000  H
  C145     1.0000 0.27407  0.13273  0.99393  Biso   1.000  C
  H104     1.0000 0.30077  0.14423  0.94553  Biso   1.000  H
  C146     1.0000 0.21447  0.13763  0.09563  Biso   1.000  C
  C147     1.0000 0.17967  0.15393  0.15333  Biso   1.000  C
  H105     1.0000 0.18037  0.19483  0.15043  Biso   1.000  H
  C148     1.0000 0.14387  0.10753  0.21523  Biso   1.000  C
  H106     1.0000 0.11907  0.11663  0.25443  Biso   1.000  H
  C149     1.0000 0.21427  0.07663  0.10053  Biso   1.000  C
  C150     1.0000 0.17797  0.02953  0.16313  Biso   1.000  C
  H107     1.0000 0.17677  0.98853  0.16613  Biso   1.000  H
  C151     1.0000 0.14407  0.04693  0.22043  Biso   1.000  C
  H108     1.0000 0.12037  0.01713  0.26413  Biso   1.000  H
  C152     1.0000 0.36267  0.40563  0.18793  Biso   1.000  C
  C153     1.0000 0.38297  0.46813  0.22273  Biso   1.000  C
  H109     1.0000 0.40387  0.48003  0.27553  Biso   1.000  H
  C154     1.0000 0.37147  0.51243  0.17693  Biso   1.000  C
  H110     1.0000 0.38507  0.55503  0.19853  Biso   1.000  H
  Co11     1.0000 0.26782  0.26327  0.99258  Biso   1.000  Co
  N41      1.0000 0.31407  0.32213  0.09063  Biso   1.000  N
  N42      1.0000 0.25427  0.17363  0.02703  Biso   1.000  N
  N43      1.0000 0.25377  0.07503  0.03343  Biso   1.000  N
  N44      1.0000 0.36627  0.35083  0.21843  Biso   1.000  N
  C155     1.0000 0.00393  0.63787  0.49107  Biso   1.000  C
  H111     1.0000 0.00003  0.59567  0.49527  Biso   1.000  H
  C156     1.0000 0.99663  0.72107  0.44327  Biso   1.000  C
  C157     1.0000 0.98573  0.76607  0.39527  Biso   1.000  C
  H112     1.0000 0.96583  0.75497  0.34177  Biso   1.000  H
  C158     1.0000 0.00633  0.82727  0.43217  Biso   1.000  C
  H113     1.0000 0.99873  0.85817  0.40317  Biso   1.000  H
  C159     1.0000 0.94073  0.46607  0.32727  Biso   1.000  C
  H114     1.0000 0.96743  0.47757  0.27887  Biso   1.000  H
  C160     1.0000 0.88113  0.47097  0.42897  Biso   1.000  C
  C161     1.0000 0.84633  0.48727  0.48667  Biso   1.000  C
  H115     1.0000 0.84703  0.52817  0.48377  Biso   1.000  H
  C162     1.0000 0.81053  0.44087  0.54857  Biso   1.000  C
  H116     1.0000 0.78573  0.44997  0.58777  Biso   1.000  H
  C163     1.0000 0.88093  0.40997  0.43387  Biso   1.000  C
  C164     1.0000 0.84463  0.36287  0.49647  Biso   1.000  C
  H117     1.0000 0.84343  0.32187  0.49947  Biso   1.000  H
  C165     1.0000 0.81073  0.38027  0.55377  Biso   1.000  C
  H118     1.0000 0.78703  0.35047  0.59747  Biso   1.000  H
  C166     1.0000 0.02933  0.73897  0.52127  Biso   1.000  C
  C167     1.0000 0.04963  0.80147  0.55607  Biso   1.000  C
  H119     1.0000 0.07053  0.81337  0.60887  Biso   1.000  H
  C168     1.0000 0.03813  0.84577  0.51027  Biso   1.000  C
  H120     1.0000 0.05173  0.88837  0.53187  Biso   1.000  H
  Co12     1.0000 0.93448  0.59661  0.32592  Biso   1.000  Co
  N45      1.0000 0.98073  0.65547  0.42397  Biso   1.000  N
  N46      1.0000 0.92093  0.50697  0.36037  Biso   1.000  N
  N47      1.0000 0.92043  0.40837  0.36677  Biso   1.000  N
  N48      1.0000 0.03293  0.68417  0.55177  Biso   1.000  N
  C169     1.0000 0.02880  0.69940  0.82440  Biso   1.000  C
  H121     1.0000 0.07100  0.73770  0.82860  Biso   1.000  H
  C170     1.0000 0.94560  0.60890  0.77660  Biso   1.000  C
  C171     1.0000 0.90060  0.55300  0.72860  Biso   1.000  C
  H122     1.0000 0.91170  0.54420  0.67510  Biso   1.000  H
  C172     1.0000 0.83940  0.51240  0.76550  Biso   1.000  C
  H123     1.0000 0.80850  0.47390  0.73650  Biso   1.000  H
  C173     1.0000 0.20060  0.80800  0.66060  Biso   1.000  C
  H124     1.0000 0.18910  0.82320  0.61220  Biso   1.000  H
  C174     1.0000 0.19570  0.74350  0.76230  Biso   1.000  C
  C175     1.0000 0.17940  0.69240  0.82000  Biso   1.000  C
  H125     1.0000 0.13850  0.65220  0.81710  Biso   1.000  H
  C176     1.0000 0.22580  0.70300  0.88190  Biso   1.000  C
  H126     1.0000 0.21670  0.66910  0.92110  Biso   1.000  H
  C177     1.0000 0.25670  0.80430  0.76720  Biso   1.000  C
  C178     1.0000 0.30380  0.81510  0.82980  Biso   1.000  C
  H127     1.0000 0.34480  0.85490  0.83280  Biso   1.000  H
  C179     1.0000 0.28640  0.76380  0.88710  Biso   1.000  C
  H128     1.0000 0.31620  0.76990  0.93080  Biso   1.000  H
  C180     1.0000 0.92770  0.62370  0.85460  Biso   1.000  C
  C181     1.0000 0.86520  0.58150  0.88940  Biso   1.000  C
  H129     1.0000 0.85330  0.59050  0.94220  Biso   1.000  H
  C182     1.0000 0.82090  0.52570  0.84360  Biso   1.000  C
  H130     1.0000 0.77830  0.49670  0.86520  Biso   1.000  H
  Co13     1.0000 0.07006  0.67121  0.65925  Biso   1.000  Co
  N49      1.0000 0.01120  0.65860  0.75730  Biso   1.000  N
  N50      1.0000 0.15970  0.74730  0.69370  Biso   1.000  N
  N51      1.0000 0.25830  0.84540  0.70010  Biso   1.000  N
  N52      1.0000 0.98250  0.68210  0.88510  Biso   1.000  N
  C183     1.0000 0.69547  0.03273  0.15773  Biso   1.000  C
  H131     1.0000 0.73767  0.07103  0.16193  Biso   1.000  H
  C184     1.0000 0.61227  0.94223  0.10993  Biso   1.000  C
  C185     1.0000 0.56727  0.88633  0.06193  Biso   1.000  C
  H132     1.0000 0.57837  0.87753  0.00843  Biso   1.000  H
  C186     1.0000 0.50607  0.84573  0.09883  Biso   1.000  C
  H133     1.0000 0.47517  0.80723  0.06983  Biso   1.000  H
  C187     1.0000 0.86727  0.14133  0.99393  Biso   1.000  C
  H134     1.0000 0.85577  0.15653  0.94553  Biso   1.000  H
  C188     1.0000 0.86237  0.07683  0.09563  Biso   1.000  C
  C189     1.0000 0.84607  0.02573  0.15333  Biso   1.000  C
  H135     1.0000 0.80517  0.98553  0.15043  Biso   1.000  H
  C190     1.0000 0.89247  0.03633  0.21523  Biso   1.000  C
  H136     1.0000 0.88337  0.00243  0.25443  Biso   1.000  H
  C191     1.0000 0.92337  0.13763  0.10053  Biso   1.000  C
  C192     1.0000 0.97047  0.14843  0.16313  Biso   1.000  C
  H137     1.0000 0.01147  0.18823  0.16613  Biso   1.000  H
  C193     1.0000 0.95307  0.09713  0.22043  Biso   1.000  C
  H138     1.0000 0.98287  0.10323  0.26413  Biso   1.000  H
  C194     1.0000 0.59437  0.95703  0.18793  Biso   1.000  C
  C195     1.0000 0.53187  0.91483  0.22273  Biso   1.000  C
  H139     1.0000 0.51997  0.92383  0.27553  Biso   1.000  H
  C196     1.0000 0.48757  0.85903  0.17693  Biso   1.000  C
  H140     1.0000 0.44497  0.83003  0.19853  Biso   1.000  H
  Co14     1.0000 0.73673  0.00454  0.99258  Biso   1.000  Co
  N53      1.0000 0.67787  0.99193  0.09063  Biso   1.000  N
  N54      1.0000 0.82637  0.08063  0.02703  Biso   1.000  N
  N55      1.0000 0.92497  0.17873  0.03343  Biso   1.000  N
  N56      1.0000 0.64917  0.01543  0.21843  Biso   1.000  N
  C197     1.0000 0.36213  0.36607  0.49107  Biso   1.000  C
  H141     1.0000 0.40433  0.40437  0.49527  Biso   1.000  H
  C198     1.0000 0.27893  0.27557  0.44327  Biso   1.000  C
  C199     1.0000 0.23393  0.21967  0.39527  Biso   1.000  C
  H142     1.0000 0.24503  0.21087  0.34177  Biso   1.000  H
  C200     1.0000 0.17273  0.17907  0.43217  Biso   1.000  C
  H143     1.0000 0.14183  0.14057  0.40317  Biso   1.000  H
  C201     1.0000 0.53393  0.47467  0.32727  Biso   1.000  C
  H144     1.0000 0.52243  0.48987  0.27887  Biso   1.000  H
  C202     1.0000 0.52903  0.41017  0.42897  Biso   1.000  C
  C203     1.0000 0.51273  0.35907  0.48667  Biso   1.000  C
  H145     1.0000 0.47183  0.31887  0.48377  Biso   1.000  H
  C204     1.0000 0.55913  0.36967  0.54857  Biso   1.000  C
  H146     1.0000 0.55003  0.33577  0.58777  Biso   1.000  H
  C205     1.0000 0.59003  0.47097  0.43387  Biso   1.000  C
  C206     1.0000 0.63713  0.48177  0.49647  Biso   1.000  C
  H147     1.0000 0.67813  0.52157  0.49947  Biso   1.000  H
  C207     1.0000 0.61973  0.43047  0.55377  Biso   1.000  C
  H148     1.0000 0.64953  0.43657  0.59747  Biso   1.000  H
  C208     1.0000 0.26103  0.29037  0.52127  Biso   1.000  C
  C209     1.0000 0.19853  0.24817  0.55607  Biso   1.000  C
  H149     1.0000 0.18663  0.25717  0.60887  Biso   1.000  H
  C210     1.0000 0.15423  0.19237  0.51027  Biso   1.000  C
  H150     1.0000 0.11163  0.16337  0.53187  Biso   1.000  H
  Co15     1.0000 0.40339  0.33788  0.32592  Biso   1.000  Co
  N57      1.0000 0.34453  0.32527  0.42397  Biso   1.000  N
  N58      1.0000 0.49303  0.41397  0.36037  Biso   1.000  N
  N59      1.0000 0.59163  0.51207  0.36677  Biso   1.000  N
  N60      1.0000 0.31583  0.34877  0.55177  Biso   1.000  N
  C211     1.0000 0.30060  0.32940  0.82440  Biso   1.000  C
  H151     1.0000 0.26230  0.33330  0.82860  Biso   1.000  H
  C212     1.0000 0.39110  0.33670  0.77660  Biso   1.000  C
  C213     1.0000 0.44700  0.34760  0.72860  Biso   1.000  C
  H152     1.0000 0.45580  0.36750  0.67510  Biso   1.000  H
  C214     1.0000 0.48760  0.32700  0.76550  Biso   1.000  C
  H153     1.0000 0.52610  0.33460  0.73650  Biso   1.000  H
  C215     1.0000 0.19200  0.39260  0.66060  Biso   1.000  C
  H154     1.0000 0.17680  0.36590  0.61220  Biso   1.000  H
  C216     1.0000 0.25650  0.45220  0.76230  Biso   1.000  C
  C217     1.0000 0.30760  0.48700  0.82000  Biso   1.000  C
  H155     1.0000 0.34780  0.48630  0.81710  Biso   1.000  H
  C218     1.0000 0.29700  0.52280  0.88190  Biso   1.000  C
  H156     1.0000 0.33090  0.54760  0.92110  Biso   1.000  H
  C219     1.0000 0.19570  0.45240  0.76720  Biso   1.000  C
  C220     1.0000 0.18490  0.48870  0.82980  Biso   1.000  C
  H157     1.0000 0.14510  0.48990  0.83280  Biso   1.000  H
  C221     1.0000 0.23620  0.52260  0.88710  Biso   1.000  C
  H158     1.0000 0.23010  0.54630  0.93080  Biso   1.000  H
  C222     1.0000 0.37630  0.30400  0.85460  Biso   1.000  C
  C223     1.0000 0.41850  0.28370  0.88940  Biso   1.000  C
  H159     1.0000 0.40950  0.26280  0.94220  Biso   1.000  H
  C224     1.0000 0.47430  0.29520  0.84360  Biso   1.000  C
  H160     1.0000 0.50330  0.28160  0.86520  Biso   1.000  H
  Co16     1.0000 0.32879  0.39885  0.65925  Biso   1.000  Co
  N61      1.0000 0.34140  0.35260  0.75730  Biso   1.000  N
  N62      1.0000 0.25270  0.41240  0.69370  Biso   1.000  N
  N63      1.0000 0.15460  0.41290  0.70010  Biso   1.000  N
  N64      1.0000 0.31790  0.30040  0.88510  Biso   1.000  N
  C225     1.0000 0.96727  0.66273  0.15773  Biso   1.000  C
  H161     1.0000 0.92897  0.66663  0.16193  Biso   1.000  H
  C226     1.0000 0.05777  0.67003  0.10993  Biso   1.000  C
  C227     1.0000 0.11367  0.68093  0.06193  Biso   1.000  C
  H162     1.0000 0.12247  0.70083  0.00843  Biso   1.000  H
  C228     1.0000 0.15427  0.66033  0.09883  Biso   1.000  C
  H163     1.0000 0.19277  0.66793  0.06983  Biso   1.000  H
  C229     1.0000 0.85867  0.72593  0.99393  Biso   1.000  C
  H164     1.0000 0.84347  0.69923  0.94553  Biso   1.000  H
  C230     1.0000 0.92317  0.78553  0.09563  Biso   1.000  C
  C231     1.0000 0.97427  0.82033  0.15333  Biso   1.000  C
  H165     1.0000 0.01447  0.81963  0.15043  Biso   1.000  H
  C232     1.0000 0.96367  0.85613  0.21523  Biso   1.000  C
  H166     1.0000 0.99757  0.88093  0.25443  Biso   1.000  H
  C233     1.0000 0.86237  0.78573  0.10053  Biso   1.000  C
  C234     1.0000 0.85157  0.82203  0.16313  Biso   1.000  C
  H167     1.0000 0.81177  0.82323  0.16613  Biso   1.000  H
  C235     1.0000 0.90287  0.85593  0.22043  Biso   1.000  C
  H168     1.0000 0.89677  0.87963  0.26413  Biso   1.000  H
  C236     1.0000 0.04297  0.63733  0.18793  Biso   1.000  C
  C237     1.0000 0.08517  0.61703  0.22273  Biso   1.000  C
  H169     1.0000 0.07617  0.59613  0.27553  Biso   1.000  H
  C238     1.0000 0.14097  0.62853  0.17693  Biso   1.000  C
  H170     1.0000 0.16997  0.61493  0.19853  Biso   1.000  H
  Co17     1.0000 0.99546  0.73218  0.99258  Biso   1.000  Co
  N65      1.0000 0.00807  0.68593  0.09063  Biso   1.000  N
  N66      1.0000 0.91937  0.74573  0.02703  Biso   1.000  N
  N67      1.0000 0.82127  0.74623  0.03343  Biso   1.000  N
  N68      1.0000 0.98457  0.63373  0.21843  Biso   1.000  N
  C239     1.0000 0.63393  0.99607  0.49107  Biso   1.000  C
  H171     1.0000 0.59563  0.99997  0.49527  Biso   1.000  H
  C240     1.0000 0.72443  0.00337  0.44327  Biso   1.000  C
  C241     1.0000 0.78033  0.01427  0.39527  Biso   1.000  C
  H172     1.0000 0.78913  0.03417  0.34177  Biso   1.000  H
  C242     1.0000 0.82093  0.99367  0.43217  Biso   1.000  C
  H173     1.0000 0.85943  0.00127  0.40317  Biso   1.000  H
  C243     1.0000 0.52533  0.05927  0.32727  Biso   1.000  C
  H174     1.0000 0.51013  0.03257  0.27887  Biso   1.000  H
  C244     1.0000 0.58983  0.11887  0.42897  Biso   1.000  C
  C245     1.0000 0.64093  0.15367  0.48667  Biso   1.000  C
  H175     1.0000 0.68113  0.15297  0.48377  Biso   1.000  H
  C246     1.0000 0.63033  0.18947  0.54857  Biso   1.000  C
  H176     1.0000 0.66423  0.21427  0.58777  Biso   1.000  H
  C247     1.0000 0.52903  0.11907  0.43387  Biso   1.000  C
  C248     1.0000 0.51823  0.15537  0.49647  Biso   1.000  C
  H177     1.0000 0.47843  0.15657  0.49947  Biso   1.000  H
  C249     1.0000 0.56953  0.18927  0.55377  Biso   1.000  C
  H178     1.0000 0.56343  0.21297  0.59747  Biso   1.000  H
  C250     1.0000 0.70963  0.97067  0.52127  Biso   1.000  C
  C251     1.0000 0.75183  0.95037  0.55607  Biso   1.000  C
  H179     1.0000 0.74283  0.92947  0.60887  Biso   1.000  H
  C252     1.0000 0.80763  0.96187  0.51027  Biso   1.000  C
  H180     1.0000 0.83663  0.94827  0.53187  Biso   1.000  H
  Co18     1.0000 0.66212  0.06552  0.32592  Biso   1.000  Co
  N69      1.0000 0.67473  0.01927  0.42397  Biso   1.000  N
  N70      1.0000 0.58603  0.07907  0.36037  Biso   1.000  N
  N71      1.0000 0.48793  0.07957  0.36677  Biso   1.000  N
  N72      1.0000 0.65123  0.96707  0.55177  Biso   1.000  N
