data_image0
_cell_length_a       7.2642
_cell_length_b       15.0204
_cell_length_c       8.8286
_cell_angle_alpha    90
_cell_angle_beta     90
_cell_angle_gamma    90

_symmetry_space_group_name_H-M    "P 1"
_symmetry_int_tables_number       1

loop_
  _symmetry_equiv_pos_as_xyz
  'x, y, z'

loop_
  _atom_site_label
  _atom_site_occupancy
  _atom_site_fract_x
  _atom_site_fract_y
  _atom_site_fract_z
  _atom_site_thermal_displace_type
  _atom_site_B_iso_or_equiv
  _atom_site_type_symbol
  H1       1.0000 0.25000  0.45450  0.67990  Biso   1.000  H
  O1       1.0000 0.38190  0.41555  0.32490  Biso   1.000  O
  O2       1.0000 0.08810  0.38390  0.37990  Biso   1.000  O
  O3       1.0000 0.38600  0.29464  0.09950  Biso   1.000  O
  H2       1.0000 0.48440  0.30690  0.14730  Biso   1.000  H
  C1       1.0000 0.23570  0.37140  0.31180  Biso   1.000  C
  C2       1.0000 0.23570  0.29260  0.20250  Biso   1.000  C
  H3       1.0000 0.12130  0.29450  0.14380  Biso   1.000  H
  H4       1.0000 0.25000  0.54550  0.67990  Biso   1.000  H
  O4       1.0000 0.11810  0.58445  0.32490  Biso   1.000  O
  O5       1.0000 0.41190  0.61610  0.37990  Biso   1.000  O
  O6       1.0000 0.11400  0.70536  0.09950  Biso   1.000  O
  H5       1.0000 0.01560  0.69310  0.14730  Biso   1.000  H
  C3       1.0000 0.26430  0.62860  0.31180  Biso   1.000  C
  C4       1.0000 0.26430  0.70740  0.20250  Biso   1.000  C
  H6       1.0000 0.37870  0.70550  0.14380  Biso   1.000  H
  H7       1.0000 0.25000  0.95450  0.82010  Biso   1.000  H
  O7       1.0000 0.11810  0.91555  0.17510  Biso   1.000  O
  O8       1.0000 0.41190  0.88390  0.12010  Biso   1.000  O
  O9       1.0000 0.11400  0.79464  0.40050  Biso   1.000  O
  H8       1.0000 0.01560  0.80690  0.35270  Biso   1.000  H
  C5       1.0000 0.26430  0.87140  0.18820  Biso   1.000  C
  C6       1.0000 0.26430  0.79260  0.29750  Biso   1.000  C
  H9       1.0000 0.37870  0.79450  0.35620  Biso   1.000  H
  H10      1.0000 0.25000  0.04550  0.82010  Biso   1.000  H
  O10      1.0000 0.38190  0.08445  0.17510  Biso   1.000  O
  O11      1.0000 0.08810  0.11610  0.12010  Biso   1.000  O
  O12      1.0000 0.38600  0.20536  0.40050  Biso   1.000  O
  H11      1.0000 0.48440  0.19310  0.35270  Biso   1.000  H
  C7       1.0000 0.23570  0.12860  0.18820  Biso   1.000  C
  C8       1.0000 0.23570  0.20740  0.29750  Biso   1.000  C
  H12      1.0000 0.12130  0.20550  0.35620  Biso   1.000  H
  H13      1.0000 0.75000  0.54550  0.32010  Biso   1.000  H
  O13      1.0000 0.61810  0.58445  0.67510  Biso   1.000  O
  O14      1.0000 0.91190  0.61610  0.62010  Biso   1.000  O
  O15      1.0000 0.61400  0.70536  0.90050  Biso   1.000  O
  H14      1.0000 0.51560  0.69310  0.85270  Biso   1.000  H
  C9       1.0000 0.76430  0.62860  0.68820  Biso   1.000  C
  C10      1.0000 0.76430  0.70740  0.79750  Biso   1.000  C
  H15      1.0000 0.87870  0.70550  0.85620  Biso   1.000  H
  H16      1.0000 0.75000  0.45450  0.32010  Biso   1.000  H
  O16      1.0000 0.88190  0.41555  0.67510  Biso   1.000  O
  O17      1.0000 0.58810  0.38390  0.62010  Biso   1.000  O
  O18      1.0000 0.88600  0.29464  0.90050  Biso   1.000  O
  H17      1.0000 0.98440  0.30690  0.85270  Biso   1.000  H
  C11      1.0000 0.73570  0.37140  0.68820  Biso   1.000  C
  C12      1.0000 0.73570  0.29260  0.79750  Biso   1.000  C
  H18      1.0000 0.62130  0.29450  0.85620  Biso   1.000  H
  H19      1.0000 0.75000  0.04550  0.17990  Biso   1.000  H
  O19      1.0000 0.88190  0.08445  0.82490  Biso   1.000  O
  O20      1.0000 0.58810  0.11610  0.87990  Biso   1.000  O
  O21      1.0000 0.88600  0.20536  0.59950  Biso   1.000  O
  H20      1.0000 0.98440  0.19310  0.64730  Biso   1.000  H
  C13      1.0000 0.73570  0.12860  0.81180  Biso   1.000  C
  C14      1.0000 0.73570  0.20740  0.70250  Biso   1.000  C
  H21      1.0000 0.62130  0.20550  0.64380  Biso   1.000  H
  H22      1.0000 0.75000  0.95450  0.17990  Biso   1.000  H
  O22      1.0000 0.61810  0.91555  0.82490  Biso   1.000  O
  O23      1.0000 0.91190  0.88390  0.87990  Biso   1.000  O
  O24      1.0000 0.61400  0.79464  0.59950  Biso   1.000  O
  H23      1.0000 0.51560  0.80690  0.64730  Biso   1.000  H
  C15      1.0000 0.76430  0.87140  0.81180  Biso   1.000  C
  C16      1.0000 0.76430  0.79260  0.70250  Biso   1.000  C
  H24      1.0000 0.87870  0.79450  0.64380  Biso   1.000  H
  In1      1.0000 0.50000  0.50000  0.50000  Biso   1.000  In
  In2      1.0000 0.00000  0.50000  0.50000  Biso   1.000  In
  In3      1.0000 0.00000  0.00000  0.00000  Biso   1.000  In
  In4      1.0000 0.50000  0.00000  0.00000  Biso   1.000  In
  O25      1.0000 0.25000  0.50000  0.62280  Biso   1.000  O
  O26      1.0000 0.25000  0.00000  0.87720  Biso   1.000  O
  O27      1.0000 0.75000  0.50000  0.37720  Biso   1.000  O
  O28      1.0000 0.75000  0.00000  0.12280  Biso   1.000  O
