data_image0
_cell_length_a       13.5396
_cell_length_b       30.438
_cell_length_c       15.7217
_cell_angle_alpha    90
_cell_angle_beta     110.535
_cell_angle_gamma    90

_symmetry_space_group_name_H-M    "P 1"
_symmetry_int_tables_number       1

loop_
  _symmetry_equiv_pos_as_xyz
  'x, y, z'

loop_
  _atom_site_label
  _atom_site_occupancy
  _atom_site_fract_x
  _atom_site_fract_y
  _atom_site_fract_z
  _atom_site_thermal_displace_type
  _atom_site_B_iso_or_equiv
  _atom_site_type_symbol
  Zn1      1.0000 0.47570  0.05073  0.85948  Biso   1.000  Zn
  Zn2      1.0000 0.33333  0.08294  0.29189  Biso   1.000  Zn
  Zn3      1.0000 0.61372  0.02324  0.43044  Biso   1.000  Zn
  S1       1.0000 0.22681  0.80975  0.72576  Biso   1.000  S
  S2       1.0000 0.21429  0.21569  0.51121  Biso   1.000  S
  P1       1.0000 0.49392  0.95180  0.78262  Biso   1.000  P
  P2       1.0000 0.44306  0.06752  0.49939  Biso   1.000  P
  N1       1.0000 0.77100  0.02820  0.50270  Biso   1.000  N
  N2       1.0000 0.31500  0.04646  0.76460  Biso   1.000  N
  N3       1.0000 0.63500  0.05574  0.95390  Biso   1.000  N
  N4       1.0000 0.17620  0.08028  0.21950  Biso   1.000  N
  N5       1.0000 0.46030  0.12298  0.86020  Biso   1.000  N
  N6       1.0000 0.37210  0.35208  0.80290  Biso   1.000  N
  C1       1.0000 0.35020  0.83428  0.78730  Biso   1.000  C
  C2       1.0000 0.42540  0.81118  0.85450  Biso   1.000  C
  H1       1.0000 0.41080  0.78300  0.86950  Biso   1.000  H
  C3       1.0000 0.52260  0.83002  0.89970  Biso   1.000  C
  H2       1.0000 0.57380  0.81440  0.94480  Biso   1.000  H
  C4       1.0000 0.54390  0.87244  0.87780  Biso   1.000  C
  H3       1.0000 0.61000  0.88470  0.90740  Biso   1.000  H
  C5       1.0000 0.46710  0.89660  0.81200  Biso   1.000  C
  C6       1.0000 0.36990  0.87719  0.76650  Biso   1.000  C
  H4       1.0000 0.31790  0.89290  0.72210  Biso   1.000  H
  C7       1.0000 0.43580  0.12280  0.53850  Biso   1.000  C
  C8       1.0000 0.52650  0.14479  0.59210  Biso   1.000  C
  H5       1.0000 0.59180  0.13110  0.60680  Biso   1.000  H
  C9       1.0000 0.52040  0.18683  0.62390  Biso   1.000  C
  H6       1.0000 0.58100  0.20080  0.66150  Biso   1.000  H
  C10      1.0000 0.42410  0.20782  0.59960  Biso   1.000  C
  H7       1.0000 0.42000  0.23620  0.62000  Biso   1.000  H
  C11      1.0000 0.33610  0.18722  0.54630  Biso   1.000  C
  C12      1.0000 0.34020  0.14436  0.51520  Biso   1.000  C
  H8       1.0000 0.27860  0.13050  0.47890  Biso   1.000  H
  C13      1.0000 0.81840  0.06727  0.52100  Biso   1.000  C
  H9       1.0000 0.77790  0.09230  0.49990  Biso   1.000  H
  C14      1.0000 0.92490  0.07233  0.56990  Biso   1.000  C
  H10      1.0000 0.95520  0.10020  0.57990  Biso   1.000  H
  C15      1.0000 0.98580  0.03536  0.60360  Biso   1.000  C
  C16      1.0000 0.93710  0.99480  0.58420  Biso   1.000  C
  H11      1.0000 0.97590  0.96920  0.60450  Biso   1.000  H
  C17      1.0000 0.83060  0.99245  0.53460  Biso   1.000  C
  H12      1.0000 0.79880  0.96490  0.52280  Biso   1.000  H
  C18      1.0000 0.10060  0.03878  0.65730  Biso   1.000  C
  C19      1.0000 0.16310  0.07254  0.64270  Biso   1.000  C
  H13      1.0000 0.13410  0.09320  0.59730  Biso   1.000  H
  C20      1.0000 0.26910  0.07464  0.69700  Biso   1.000  C
  H14      1.0000 0.31020  0.09680  0.68570  Biso   1.000  H
  C21      1.0000 0.25500  0.01370  0.77740  Biso   1.000  C
  H15      1.0000 0.28620  0.99320  0.82270  Biso   1.000  H
  C22      1.0000 0.14890  0.00910  0.72600  Biso   1.000  C
  H16      1.0000 0.11020  0.98610  0.73770  Biso   1.000  H
  C23      1.0000 0.71050  0.03177  0.93930  Biso   1.000  C
  H17      1.0000 0.69100  0.01110  0.89280  Biso   1.000  H
  C24      1.0000 0.81630  0.03650  0.99050  Biso   1.000  C
  H18      1.0000 0.86610  0.01920  0.97800  Biso   1.000  H
  C25      1.0000 0.84830  0.06695  0.06050  Biso   1.000  C
  C26      1.0000 0.76950  0.09116  0.07760  Biso   1.000  C
  H19      1.0000 0.78680  0.11150  0.12480  Biso   1.000  H
  C27      1.0000 0.66540  0.08440  0.02310  Biso   1.000  C
  H20      1.0000 0.61360  0.10060  0.03520  Biso   1.000  H
  C28      1.0000 0.96210  0.07285  0.11560  Biso   1.000  C
  C29      1.0000 0.03950  0.06368  0.07860  Biso   1.000  C
  H21      1.0000 0.02060  0.05500  0.01830  Biso   1.000  H
  C30      1.0000 0.14450  0.06759  0.13230  Biso   1.000  C
  H22      1.0000 0.19540  0.06110  0.10700  Biso   1.000  H
  C31      1.0000 0.10210  0.09052  0.25430  Biso   1.000  C
  H23      1.0000 0.12320  0.10010  0.31430  Biso   1.000  H
  C32      1.0000 0.99500  0.08747  0.20470  Biso   1.000  C
  H24      1.0000 0.94580  0.09520  0.23100  Biso   1.000  H
  C33      1.0000 0.53590  0.14997  0.85350  Biso   1.000  C
  H25      1.0000 0.59870  0.13750  0.85380  Biso   1.000  H
  C34      1.0000 0.52590  0.19526  0.84620  Biso   1.000  C
  H26      1.0000 0.58100  0.21260  0.84290  Biso   1.000  H
  C35      1.0000 0.43160  0.21422  0.84380  Biso   1.000  C
  C36      1.0000 0.35310  0.18670  0.85210  Biso   1.000  C
  H27      1.0000 0.28920  0.19830  0.85130  Biso   1.000  H
  C37      1.0000 0.37160  0.14214  0.86150  Biso   1.000  C
  H28      1.0000 0.31970  0.12430  0.86930  Biso   1.000  H
  C38      1.0000 0.41240  0.26211  0.82930  Biso   1.000  C
  C39      1.0000 0.49130  0.29315  0.86720  Biso   1.000  C
  H29      1.0000 0.55910  0.28420  0.90210  Biso   1.000  H
  C40      1.0000 0.46780  0.33727  0.85230  Biso   1.000  C
  H30      1.0000 0.52130  0.35760  0.87800  Biso   1.000  H
  C41      1.0000 0.29660  0.32229  0.76580  Biso   1.000  C
  H31      1.0000 0.22970  0.33220  0.73090  Biso   1.000  H
  C42      1.0000 0.31280  0.27757  0.77670  Biso   1.000  C
  H32      1.0000 0.25800  0.25800  0.74930  Biso   1.000  H
  O1       1.0000 0.40760  0.96162  0.69240  Biso   1.000  O
  O2       1.0000 0.60476  0.95115  0.77744  Biso   1.000  O
  O3       1.0000 0.49013  0.98241  0.85827  Biso   1.000  O
  O4       1.0000 0.16490  0.81440  0.78020  Biso   1.000  O
  O5       1.0000 0.18620  0.83140  0.64210  Biso   1.000  O
  O6       1.0000 0.24980  0.76530  0.71300  Biso   1.000  O
  O7       1.0000 0.54980  0.06418  0.48920  Biso   1.000  O
  O8       1.0000 0.35120  0.06022  0.41082  Biso   1.000  O
  O9       1.0000 0.43110  0.03731  0.57253  Biso   1.000  O
  O10      1.0000 0.17160  0.20540  0.57380  Biso   1.000  O
  O11      1.0000 0.15150  0.19820  0.42950  Biso   1.000  O
  O12      1.0000 0.22900  0.25610  0.55100  Biso   1.000  O
  O13      1.0000 0.24020  0.25980  0.47880  Biso   1.000  O
  Zn4      1.0000 0.52430  0.55073  0.64052  Biso   1.000  Zn
  Zn5      1.0000 0.66667  0.58294  0.20811  Biso   1.000  Zn
  Zn6      1.0000 0.38628  0.52324  0.06956  Biso   1.000  Zn
  S3       1.0000 0.77319  0.30975  0.77424  Biso   1.000  S
  S4       1.0000 0.78571  0.71569  0.98879  Biso   1.000  S
  P3       1.0000 0.50608  0.45180  0.71738  Biso   1.000  P
  P4       1.0000 0.55694  0.56752  0.00061  Biso   1.000  P
  N7       1.0000 0.22900  0.52820  0.99730  Biso   1.000  N
  N8       1.0000 0.68500  0.54646  0.73540  Biso   1.000  N
  N9       1.0000 0.36500  0.55574  0.54610  Biso   1.000  N
  N10      1.0000 0.82380  0.58028  0.28050  Biso   1.000  N
  N11      1.0000 0.53970  0.62298  0.63980  Biso   1.000  N
  N12      1.0000 0.62790  0.85208  0.69710  Biso   1.000  N
  C43      1.0000 0.64980  0.33428  0.71270  Biso   1.000  C
  C44      1.0000 0.57460  0.31118  0.64550  Biso   1.000  C
  H33      1.0000 0.58920  0.28300  0.63050  Biso   1.000  H
  C45      1.0000 0.47740  0.33002  0.60030  Biso   1.000  C
  H34      1.0000 0.42620  0.31440  0.55520  Biso   1.000  H
  C46      1.0000 0.45610  0.37244  0.62220  Biso   1.000  C
  H35      1.0000 0.39000  0.38470  0.59260  Biso   1.000  H
  C47      1.0000 0.53290  0.39660  0.68800  Biso   1.000  C
  C48      1.0000 0.63010  0.37719  0.73350  Biso   1.000  C
  H36      1.0000 0.68210  0.39290  0.77790  Biso   1.000  H
  C49      1.0000 0.56420  0.62280  0.96150  Biso   1.000  C
  C50      1.0000 0.47350  0.64479  0.90790  Biso   1.000  C
  H37      1.0000 0.40820  0.63110  0.89320  Biso   1.000  H
  C51      1.0000 0.47960  0.68683  0.87610  Biso   1.000  C
  H38      1.0000 0.41900  0.70080  0.83850  Biso   1.000  H
  C52      1.0000 0.57590  0.70782  0.90040  Biso   1.000  C
  H39      1.0000 0.58000  0.73620  0.88000  Biso   1.000  H
  C53      1.0000 0.66390  0.68722  0.95370  Biso   1.000  C
  C54      1.0000 0.65980  0.64436  0.98480  Biso   1.000  C
  H40      1.0000 0.72140  0.63050  0.02110  Biso   1.000  H
  C55      1.0000 0.18160  0.56727  0.97900  Biso   1.000  C
  H41      1.0000 0.22210  0.59230  0.00010  Biso   1.000  H
  C56      1.0000 0.07510  0.57233  0.93010  Biso   1.000  C
  H42      1.0000 0.04480  0.60020  0.92010  Biso   1.000  H
  C57      1.0000 0.01420  0.53536  0.89640  Biso   1.000  C
  C58      1.0000 0.06290  0.49480  0.91580  Biso   1.000  C
  H43      1.0000 0.02410  0.46920  0.89550  Biso   1.000  H
  C59      1.0000 0.16940  0.49245  0.96540  Biso   1.000  C
  H44      1.0000 0.20120  0.46490  0.97720  Biso   1.000  H
  C60      1.0000 0.89940  0.53878  0.84270  Biso   1.000  C
  C61      1.0000 0.83690  0.57254  0.85730  Biso   1.000  C
  H45      1.0000 0.86590  0.59320  0.90270  Biso   1.000  H
  C62      1.0000 0.73090  0.57464  0.80300  Biso   1.000  C
  H46      1.0000 0.68980  0.59680  0.81430  Biso   1.000  H
  C63      1.0000 0.74500  0.51370  0.72260  Biso   1.000  C
  H47      1.0000 0.71380  0.49320  0.67730  Biso   1.000  H
  C64      1.0000 0.85110  0.50910  0.77400  Biso   1.000  C
  H48      1.0000 0.88980  0.48610  0.76230  Biso   1.000  H
  C65      1.0000 0.28950  0.53177  0.56070  Biso   1.000  C
  H49      1.0000 0.30900  0.51110  0.60720  Biso   1.000  H
  C66      1.0000 0.18370  0.53650  0.50950  Biso   1.000  C
  H50      1.0000 0.13390  0.51920  0.52200  Biso   1.000  H
  C67      1.0000 0.15170  0.56695  0.43950  Biso   1.000  C
  C68      1.0000 0.23050  0.59116  0.42240  Biso   1.000  C
  H51      1.0000 0.21320  0.61150  0.37520  Biso   1.000  H
  C69      1.0000 0.33460  0.58440  0.47690  Biso   1.000  C
  H52      1.0000 0.38640  0.60060  0.46480  Biso   1.000  H
  C70      1.0000 0.03790  0.57285  0.38440  Biso   1.000  C
  C71      1.0000 0.96050  0.56368  0.42140  Biso   1.000  C
  H53      1.0000 0.97940  0.55500  0.48170  Biso   1.000  H
  C72      1.0000 0.85550  0.56759  0.36770  Biso   1.000  C
  H54      1.0000 0.80460  0.56110  0.39300  Biso   1.000  H
  C73      1.0000 0.89790  0.59052  0.24570  Biso   1.000  C
  H55      1.0000 0.87680  0.60010  0.18570  Biso   1.000  H
  C74      1.0000 0.00500  0.58747  0.29530  Biso   1.000  C
  H56      1.0000 0.05420  0.59520  0.26900  Biso   1.000  H
  C75      1.0000 0.46410  0.64997  0.64650  Biso   1.000  C
  H57      1.0000 0.40130  0.63750  0.64620  Biso   1.000  H
  C76      1.0000 0.47410  0.69526  0.65380  Biso   1.000  C
  H58      1.0000 0.41900  0.71260  0.65710  Biso   1.000  H
  C77      1.0000 0.56840  0.71422  0.65620  Biso   1.000  C
  C78      1.0000 0.64690  0.68670  0.64790  Biso   1.000  C
  H59      1.0000 0.71080  0.69830  0.64870  Biso   1.000  H
  C79      1.0000 0.62840  0.64214  0.63850  Biso   1.000  C
  H60      1.0000 0.68030  0.62430  0.63070  Biso   1.000  H
  C80      1.0000 0.58760  0.76211  0.67070  Biso   1.000  C
  C81      1.0000 0.50870  0.79315  0.63280  Biso   1.000  C
  H61      1.0000 0.44090  0.78420  0.59790  Biso   1.000  H
  C82      1.0000 0.53220  0.83727  0.64770  Biso   1.000  C
  H62      1.0000 0.47870  0.85760  0.62200  Biso   1.000  H
  C83      1.0000 0.70340  0.82229  0.73420  Biso   1.000  C
  H63      1.0000 0.77030  0.83220  0.76910  Biso   1.000  H
  C84      1.0000 0.68720  0.77757  0.72330  Biso   1.000  C
  H64      1.0000 0.74200  0.75800  0.75070  Biso   1.000  H
  O14      1.0000 0.59240  0.46162  0.80760  Biso   1.000  O
  O15      1.0000 0.39524  0.45115  0.72256  Biso   1.000  O
  O16      1.0000 0.50987  0.48241  0.64173  Biso   1.000  O
  O17      1.0000 0.83510  0.31440  0.71980  Biso   1.000  O
  O18      1.0000 0.81380  0.33140  0.85790  Biso   1.000  O
  O19      1.0000 0.75020  0.26530  0.78700  Biso   1.000  O
  O20      1.0000 0.45020  0.56418  0.01080  Biso   1.000  O
  O21      1.0000 0.64880  0.56022  0.08918  Biso   1.000  O
  O22      1.0000 0.56890  0.53731  0.92747  Biso   1.000  O
  O23      1.0000 0.82840  0.70540  0.92620  Biso   1.000  O
  O24      1.0000 0.84850  0.69820  0.07050  Biso   1.000  O
  O25      1.0000 0.77100  0.75610  0.94900  Biso   1.000  O
  O26      1.0000 0.75980  0.75980  0.02120  Biso   1.000  O
  Zn7      1.0000 0.52430  0.94927  0.14052  Biso   1.000  Zn
  Zn8      1.0000 0.66667  0.91706  0.70811  Biso   1.000  Zn
  Zn9      1.0000 0.38628  0.97676  0.56956  Biso   1.000  Zn
  S5       1.0000 0.77319  0.19025  0.27424  Biso   1.000  S
  S6       1.0000 0.78571  0.78431  0.48879  Biso   1.000  S
  P5       1.0000 0.50608  0.04820  0.21738  Biso   1.000  P
  P6       1.0000 0.55694  0.93248  0.50061  Biso   1.000  P
  N13      1.0000 0.22900  0.97180  0.49730  Biso   1.000  N
  N14      1.0000 0.68500  0.95354  0.23540  Biso   1.000  N
  N15      1.0000 0.36500  0.94426  0.04610  Biso   1.000  N
  N16      1.0000 0.82380  0.91972  0.78050  Biso   1.000  N
  N17      1.0000 0.53970  0.87702  0.13980  Biso   1.000  N
  N18      1.0000 0.62790  0.64792  0.19710  Biso   1.000  N
  C85      1.0000 0.64980  0.16572  0.21270  Biso   1.000  C
  C86      1.0000 0.57460  0.18882  0.14550  Biso   1.000  C
  H65      1.0000 0.58920  0.21700  0.13050  Biso   1.000  H
  C87      1.0000 0.47740  0.16998  0.10030  Biso   1.000  C
  H66      1.0000 0.42620  0.18560  0.05520  Biso   1.000  H
  C88      1.0000 0.45610  0.12756  0.12220  Biso   1.000  C
  H67      1.0000 0.39000  0.11530  0.09260  Biso   1.000  H
  C89      1.0000 0.53290  0.10340  0.18800  Biso   1.000  C
  C90      1.0000 0.63010  0.12281  0.23350  Biso   1.000  C
  H68      1.0000 0.68210  0.10710  0.27790  Biso   1.000  H
  C91      1.0000 0.56420  0.87720  0.46150  Biso   1.000  C
  C92      1.0000 0.47350  0.85521  0.40790  Biso   1.000  C
  H69      1.0000 0.40820  0.86890  0.39320  Biso   1.000  H
  C93      1.0000 0.47960  0.81317  0.37610  Biso   1.000  C
  H70      1.0000 0.41900  0.79920  0.33850  Biso   1.000  H
  C94      1.0000 0.57590  0.79218  0.40040  Biso   1.000  C
  H71      1.0000 0.58000  0.76380  0.38000  Biso   1.000  H
  C95      1.0000 0.66390  0.81278  0.45370  Biso   1.000  C
  C96      1.0000 0.65980  0.85564  0.48480  Biso   1.000  C
  H72      1.0000 0.72140  0.86950  0.52110  Biso   1.000  H
  C97      1.0000 0.18160  0.93273  0.47900  Biso   1.000  C
  H73      1.0000 0.22210  0.90770  0.50010  Biso   1.000  H
  C98      1.0000 0.07510  0.92767  0.43010  Biso   1.000  C
  H74      1.0000 0.04480  0.89980  0.42010  Biso   1.000  H
  C99      1.0000 0.01420  0.96464  0.39640  Biso   1.000  C
  C100     1.0000 0.06290  0.00520  0.41580  Biso   1.000  C
  H75      1.0000 0.02410  0.03080  0.39550  Biso   1.000  H
  C101     1.0000 0.16940  0.00755  0.46540  Biso   1.000  C
  H76      1.0000 0.20120  0.03510  0.47720  Biso   1.000  H
  C102     1.0000 0.89940  0.96122  0.34270  Biso   1.000  C
  C103     1.0000 0.83690  0.92746  0.35730  Biso   1.000  C
  H77      1.0000 0.86590  0.90680  0.40270  Biso   1.000  H
  C104     1.0000 0.73090  0.92536  0.30300  Biso   1.000  C
  H78      1.0000 0.68980  0.90320  0.31430  Biso   1.000  H
  C105     1.0000 0.74500  0.98630  0.22260  Biso   1.000  C
  H79      1.0000 0.71380  0.00680  0.17730  Biso   1.000  H
  C106     1.0000 0.85110  0.99090  0.27400  Biso   1.000  C
  H80      1.0000 0.88980  0.01390  0.26230  Biso   1.000  H
  C107     1.0000 0.28950  0.96823  0.06070  Biso   1.000  C
  H81      1.0000 0.30900  0.98890  0.10720  Biso   1.000  H
  C108     1.0000 0.18370  0.96350  0.00950  Biso   1.000  C
  H82      1.0000 0.13390  0.98080  0.02200  Biso   1.000  H
  C109     1.0000 0.15170  0.93305  0.93950  Biso   1.000  C
  C110     1.0000 0.23050  0.90884  0.92240  Biso   1.000  C
  H83      1.0000 0.21320  0.88850  0.87520  Biso   1.000  H
  C111     1.0000 0.33460  0.91560  0.97690  Biso   1.000  C
  H84      1.0000 0.38640  0.89940  0.96480  Biso   1.000  H
  C112     1.0000 0.03790  0.92715  0.88440  Biso   1.000  C
  C113     1.0000 0.96050  0.93632  0.92140  Biso   1.000  C
  H85      1.0000 0.97940  0.94500  0.98170  Biso   1.000  H
  C114     1.0000 0.85550  0.93241  0.86770  Biso   1.000  C
  H86      1.0000 0.80460  0.93890  0.89300  Biso   1.000  H
  C115     1.0000 0.89790  0.90948  0.74570  Biso   1.000  C
  H87      1.0000 0.87680  0.89990  0.68570  Biso   1.000  H
  C116     1.0000 0.00500  0.91253  0.79530  Biso   1.000  C
  H88      1.0000 0.05420  0.90480  0.76900  Biso   1.000  H
  C117     1.0000 0.46410  0.85003  0.14650  Biso   1.000  C
  H89      1.0000 0.40130  0.86250  0.14620  Biso   1.000  H
  C118     1.0000 0.47410  0.80474  0.15380  Biso   1.000  C
  H90      1.0000 0.41900  0.78740  0.15710  Biso   1.000  H
  C119     1.0000 0.56840  0.78578  0.15620  Biso   1.000  C
  C120     1.0000 0.64690  0.81330  0.14790  Biso   1.000  C
  H91      1.0000 0.71080  0.80170  0.14870  Biso   1.000  H
  C121     1.0000 0.62840  0.85786  0.13850  Biso   1.000  C
  H92      1.0000 0.68030  0.87570  0.13070  Biso   1.000  H
  C122     1.0000 0.58760  0.73789  0.17070  Biso   1.000  C
  C123     1.0000 0.50870  0.70685  0.13280  Biso   1.000  C
  H93      1.0000 0.44090  0.71580  0.09790  Biso   1.000  H
  C124     1.0000 0.53220  0.66273  0.14770  Biso   1.000  C
  H94      1.0000 0.47870  0.64240  0.12200  Biso   1.000  H
  C125     1.0000 0.70340  0.67771  0.23420  Biso   1.000  C
  H95      1.0000 0.77030  0.66780  0.26910  Biso   1.000  H
  C126     1.0000 0.68720  0.72243  0.22330  Biso   1.000  C
  H96      1.0000 0.74200  0.74200  0.25070  Biso   1.000  H
  O27      1.0000 0.59240  0.03838  0.30760  Biso   1.000  O
  O28      1.0000 0.39524  0.04885  0.22256  Biso   1.000  O
  O29      1.0000 0.50987  0.01759  0.14173  Biso   1.000  O
  O30      1.0000 0.83510  0.18560  0.21980  Biso   1.000  O
  O31      1.0000 0.81380  0.16860  0.35790  Biso   1.000  O
  O32      1.0000 0.75020  0.23470  0.28700  Biso   1.000  O
  O33      1.0000 0.45020  0.93582  0.51080  Biso   1.000  O
  O34      1.0000 0.64880  0.93978  0.58918  Biso   1.000  O
  O35      1.0000 0.56890  0.96269  0.42747  Biso   1.000  O
  O36      1.0000 0.82840  0.79460  0.42620  Biso   1.000  O
  O37      1.0000 0.84850  0.80180  0.57050  Biso   1.000  O
  O38      1.0000 0.77100  0.74390  0.44900  Biso   1.000  O
  O39      1.0000 0.75980  0.74020  0.52120  Biso   1.000  O
  Zn10     1.0000 0.47570  0.44927  0.35948  Biso   1.000  Zn
  Zn11     1.0000 0.33333  0.41706  0.79189  Biso   1.000  Zn
  Zn12     1.0000 0.61372  0.47676  0.93044  Biso   1.000  Zn
  S7       1.0000 0.22681  0.69025  0.22576  Biso   1.000  S
  S8       1.0000 0.21429  0.28431  0.01121  Biso   1.000  S
  P7       1.0000 0.49392  0.54820  0.28262  Biso   1.000  P
  P8       1.0000 0.44306  0.43248  0.99939  Biso   1.000  P
  N19      1.0000 0.77100  0.47180  0.00270  Biso   1.000  N
  N20      1.0000 0.31500  0.45354  0.26460  Biso   1.000  N
  N21      1.0000 0.63500  0.44426  0.45390  Biso   1.000  N
  N22      1.0000 0.17620  0.41972  0.71950  Biso   1.000  N
  N23      1.0000 0.46030  0.37702  0.36020  Biso   1.000  N
  N24      1.0000 0.37210  0.14792  0.30290  Biso   1.000  N
  C127     1.0000 0.35020  0.66572  0.28730  Biso   1.000  C
  C128     1.0000 0.42540  0.68882  0.35450  Biso   1.000  C
  H97      1.0000 0.41080  0.71700  0.36950  Biso   1.000  H
  C129     1.0000 0.52260  0.66998  0.39970  Biso   1.000  C
  H98      1.0000 0.57380  0.68560  0.44480  Biso   1.000  H
  C130     1.0000 0.54390  0.62756  0.37780  Biso   1.000  C
  H99      1.0000 0.61000  0.61530  0.40740  Biso   1.000  H
  C131     1.0000 0.46710  0.60340  0.31200  Biso   1.000  C
  C132     1.0000 0.36990  0.62281  0.26650  Biso   1.000  C
  H100     1.0000 0.31790  0.60710  0.22210  Biso   1.000  H
  C133     1.0000 0.43580  0.37720  0.03850  Biso   1.000  C
  C134     1.0000 0.52650  0.35521  0.09210  Biso   1.000  C
  H101     1.0000 0.59180  0.36890  0.10680  Biso   1.000  H
  C135     1.0000 0.52040  0.31317  0.12390  Biso   1.000  C
  H102     1.0000 0.58100  0.29920  0.16150  Biso   1.000  H
  C136     1.0000 0.42410  0.29218  0.09960  Biso   1.000  C
  H103     1.0000 0.42000  0.26380  0.12000  Biso   1.000  H
  C137     1.0000 0.33610  0.31278  0.04630  Biso   1.000  C
  C138     1.0000 0.34020  0.35564  0.01520  Biso   1.000  C
  H104     1.0000 0.27860  0.36950  0.97890  Biso   1.000  H
  C139     1.0000 0.81840  0.43273  0.02100  Biso   1.000  C
  H105     1.0000 0.77790  0.40770  0.99990  Biso   1.000  H
  C140     1.0000 0.92490  0.42767  0.06990  Biso   1.000  C
  H106     1.0000 0.95520  0.39980  0.07990  Biso   1.000  H
  C141     1.0000 0.98580  0.46464  0.10360  Biso   1.000  C
  C142     1.0000 0.93710  0.50520  0.08420  Biso   1.000  C
  H107     1.0000 0.97590  0.53080  0.10450  Biso   1.000  H
  C143     1.0000 0.83060  0.50755  0.03460  Biso   1.000  C
  H108     1.0000 0.79880  0.53510  0.02280  Biso   1.000  H
  C144     1.0000 0.10060  0.46122  0.15730  Biso   1.000  C
  C145     1.0000 0.16310  0.42746  0.14270  Biso   1.000  C
  H109     1.0000 0.13410  0.40680  0.09730  Biso   1.000  H
  C146     1.0000 0.26910  0.42536  0.19700  Biso   1.000  C
  H110     1.0000 0.31020  0.40320  0.18570  Biso   1.000  H
  C147     1.0000 0.25500  0.48630  0.27740  Biso   1.000  C
  H111     1.0000 0.28620  0.50680  0.32270  Biso   1.000  H
  C148     1.0000 0.14890  0.49090  0.22600  Biso   1.000  C
  H112     1.0000 0.11020  0.51390  0.23770  Biso   1.000  H
  C149     1.0000 0.71050  0.46823  0.43930  Biso   1.000  C
  H113     1.0000 0.69100  0.48890  0.39280  Biso   1.000  H
  C150     1.0000 0.81630  0.46350  0.49050  Biso   1.000  C
  H114     1.0000 0.86610  0.48080  0.47800  Biso   1.000  H
  C151     1.0000 0.84830  0.43305  0.56050  Biso   1.000  C
  C152     1.0000 0.76950  0.40884  0.57760  Biso   1.000  C
  H115     1.0000 0.78680  0.38850  0.62480  Biso   1.000  H
  C153     1.0000 0.66540  0.41560  0.52310  Biso   1.000  C
  H116     1.0000 0.61360  0.39940  0.53520  Biso   1.000  H
  C154     1.0000 0.96210  0.42715  0.61560  Biso   1.000  C
  C155     1.0000 0.03950  0.43632  0.57860  Biso   1.000  C
  H117     1.0000 0.02060  0.44500  0.51830  Biso   1.000  H
  C156     1.0000 0.14450  0.43241  0.63230  Biso   1.000  C
  H118     1.0000 0.19540  0.43890  0.60700  Biso   1.000  H
  C157     1.0000 0.10210  0.40948  0.75430  Biso   1.000  C
  H119     1.0000 0.12320  0.39990  0.81430  Biso   1.000  H
  C158     1.0000 0.99500  0.41253  0.70470  Biso   1.000  C
  H120     1.0000 0.94580  0.40480  0.73100  Biso   1.000  H
  C159     1.0000 0.53590  0.35003  0.35350  Biso   1.000  C
  H121     1.0000 0.59870  0.36250  0.35380  Biso   1.000  H
  C160     1.0000 0.52590  0.30474  0.34620  Biso   1.000  C
  H122     1.0000 0.58100  0.28740  0.34290  Biso   1.000  H
  C161     1.0000 0.43160  0.28578  0.34380  Biso   1.000  C
  C162     1.0000 0.35310  0.31330  0.35210  Biso   1.000  C
  H123     1.0000 0.28920  0.30170  0.35130  Biso   1.000  H
  C163     1.0000 0.37160  0.35786  0.36150  Biso   1.000  C
  H124     1.0000 0.31970  0.37570  0.36930  Biso   1.000  H
  C164     1.0000 0.41240  0.23789  0.32930  Biso   1.000  C
  C165     1.0000 0.49130  0.20685  0.36720  Biso   1.000  C
  H125     1.0000 0.55910  0.21580  0.40210  Biso   1.000  H
  C166     1.0000 0.46780  0.16273  0.35230  Biso   1.000  C
  H126     1.0000 0.52130  0.14240  0.37800  Biso   1.000  H
  C167     1.0000 0.29660  0.17771  0.26580  Biso   1.000  C
  H127     1.0000 0.22970  0.16780  0.23090  Biso   1.000  H
  C168     1.0000 0.31280  0.22243  0.27670  Biso   1.000  C
  H128     1.0000 0.25800  0.24200  0.24930  Biso   1.000  H
  O40      1.0000 0.40760  0.53838  0.19240  Biso   1.000  O
  O41      1.0000 0.60476  0.54885  0.27744  Biso   1.000  O
  O42      1.0000 0.49013  0.51759  0.35827  Biso   1.000  O
  O43      1.0000 0.16490  0.68560  0.28020  Biso   1.000  O
  O44      1.0000 0.18620  0.66860  0.14210  Biso   1.000  O
  O45      1.0000 0.24980  0.73470  0.21300  Biso   1.000  O
  O46      1.0000 0.54980  0.43582  0.98920  Biso   1.000  O
  O47      1.0000 0.35120  0.43978  0.91082  Biso   1.000  O
  O48      1.0000 0.43110  0.46269  0.07253  Biso   1.000  O
  O49      1.0000 0.17160  0.29460  0.07380  Biso   1.000  O
  O50      1.0000 0.15150  0.30180  0.92950  Biso   1.000  O
  O51      1.0000 0.22900  0.24390  0.05100  Biso   1.000  O
  O52      1.0000 0.24020  0.24020  0.97880  Biso   1.000  O
