data_VEMMIK_clean
_audit_creation_date              2014-07-02
_audit_creation_method            'Materials Studio'
_symmetry_space_group_name_H-M    'P1'
_symmetry_Int_Tables_number       1
_symmetry_cell_setting            triclinic
loop_
_symmetry_equiv_pos_as_xyz
  x,y,z
_cell_length_a                    8.6030
_cell_length_b                    19.2774
_cell_length_c                    19.2774
_cell_angle_alpha                 62.1728
_cell_angle_beta                  81.4450
_cell_angle_gamma                 98.5550
loop_
_atom_site_label
_atom_site_type_symbol
_atom_site_fract_x
_atom_site_fract_y
_atom_site_fract_z
_atom_site_U_iso_or_equiv
_atom_site_adp_type
_atom_site_occupancy
Mn1    Mn    0.22110   0.30323   0.27957   0.01267  Uiso   1.00
Mn2    Mn    0.50067   0.27957   0.41720   0.01267  Uiso   1.00
Mn3    Mn    0.91787   0.41720   0.30323   0.01267  Uiso   1.00
Mn4    Mn    0.77890   0.69677   0.72043   0.01267  Uiso   1.00
Mn5    Mn    0.49933   0.72043   0.58280   0.01267  Uiso   1.00
Mn6    Mn    0.08213   0.58280   0.69677   0.01267  Uiso   1.00
H1     H     0.38850   0.36370   0.09500   0.01267  Uiso   1.00
H2     H     0.66530   0.58360   0.02930   0.01267  Uiso   1.00
H3     H     0.48350   0.09500   0.54130   0.01267  Uiso   1.00
H4     H     0.69460   0.02930   0.38710   0.01267  Uiso   1.00
H5     H     0.02480   0.54130   0.36370   0.01267  Uiso   1.00
H6     H     0.08170   0.38710   0.58360   0.01267  Uiso   1.00
H7     H     0.61150   0.63630   0.90500   0.01267  Uiso   1.00
H8     H     0.33470   0.41640   0.97070   0.01267  Uiso   1.00
H9     H     0.51650   0.90500   0.45870   0.01267  Uiso   1.00
H10    H     0.30540   0.97070   0.61290   0.01267  Uiso   1.00
H11    H     0.97520   0.45870   0.63630   0.01267  Uiso   1.00
H12    H     0.91830   0.61290   0.41640   0.01267  Uiso   1.00
C1     C     0.57990   0.43660   0.15350   0.01267  Uiso   1.00
C2     C     0.53780   0.46830   0.07780   0.01267  Uiso   1.00
C3     C     0.43350   0.41800   0.05720   0.01267  Uiso   1.00
C4     C     0.59910   0.54960   0.01780   0.01267  Uiso   1.00
C5     C     0.73340   0.15350   0.40990   0.01267  Uiso   1.00
C6     C     0.61560   0.07780   0.45390   0.01267  Uiso   1.00
C7     C     0.49070   0.05720   0.52480   0.01267  Uiso   1.00
C8     C     0.61690   0.01780   0.43260   0.01267  Uiso   1.00
C9     C     0.14330   0.40990   0.43660   0.01267  Uiso   1.00
C10    C     0.06950   0.45390   0.46830   0.01267  Uiso   1.00
C11    C     0.01550   0.52480   0.41800   0.01267  Uiso   1.00
C12    C     0.04950   0.43260   0.54960   0.01267  Uiso   1.00
C13    C     0.42010   0.56340   0.84650   0.01267  Uiso   1.00
C14    C     0.46220   0.53170   0.92220   0.01267  Uiso   1.00
C15    C     0.56650   0.58200   0.94280   0.01267  Uiso   1.00
C16    C     0.40090   0.45040   0.98220   0.01267  Uiso   1.00
C17    C     0.26660   0.84650   0.59010   0.01267  Uiso   1.00
C18    C     0.38440   0.92220   0.54610   0.01267  Uiso   1.00
C19    C     0.50930   0.94280   0.47520   0.01267  Uiso   1.00
C20    C     0.38310   0.98220   0.56740   0.01267  Uiso   1.00
C21    C     0.85670   0.59010   0.56340   0.01267  Uiso   1.00
C22    C     0.93050   0.54610   0.53170   0.01267  Uiso   1.00
C23    C     0.98450   0.47520   0.58200   0.01267  Uiso   1.00
C24    C     0.95050   0.56740   0.45040   0.01267  Uiso   1.00
N1     N     0.48700   0.37460   0.22380   0.01267  Uiso   1.00
N2     N     0.57640   0.36580   0.27830   0.01267  Uiso   1.00
N3     N     0.71470   0.41970   0.23920   0.01267  Uiso   1.00
N4     N     0.72250   0.46530   0.16210   0.01267  Uiso   1.00
N5     N     0.71080   0.22380   0.40160   0.01267  Uiso   1.00
N6     N     0.85470   0.27830   0.35590   0.01267  Uiso   1.00
N7     N     0.95390   0.23920   0.34110   0.01267  Uiso   1.00
N8     N     0.88460   0.16210   0.37260   0.01267  Uiso   1.00
N9     N     0.11240   0.40160   0.37460   0.01267  Uiso   1.00
N10    N     0.21060   0.35590   0.36580   0.01267  Uiso   1.00
N11    N     0.29500   0.34110   0.41970   0.01267  Uiso   1.00
N12    N     0.25720   0.37260   0.46530   0.01267  Uiso   1.00
N13    N     0.51300   0.62540   0.77620   0.01267  Uiso   1.00
N14    N     0.42360   0.63420   0.72170   0.01267  Uiso   1.00
N15    N     0.28530   0.58030   0.76080   0.01267  Uiso   1.00
N16    N     0.27750   0.53470   0.83790   0.01267  Uiso   1.00
N17    N     0.28920   0.77620   0.59840   0.01267  Uiso   1.00
N18    N     0.14530   0.72170   0.64410   0.01267  Uiso   1.00
N19    N     0.04610   0.76080   0.65890   0.01267  Uiso   1.00
N20    N     0.11540   0.83790   0.62740   0.01267  Uiso   1.00
N21    N     0.88760   0.59840   0.62540   0.01267  Uiso   1.00
N22    N     0.78940   0.64410   0.63420   0.01267  Uiso   1.00
N23    N     0.70500   0.65890   0.58030   0.01267  Uiso   1.00
N24    N     0.74280   0.62740   0.53470   0.01267  Uiso   1.00
Cl1    Cl    0.11994   0.42152   0.19110   0.01267  Uiso   1.00
Cl2    Cl    0.31104   0.19110   0.38738   0.01267  Uiso   1.00
Cl3    Cl    0.69842   0.38738   0.42152   0.01267  Uiso   1.00
Cl4    Cl    0.88006   0.57848   0.80890   0.01267  Uiso   1.00
Cl5    Cl    0.68896   0.80890   0.61262   0.01267  Uiso   1.00
Cl6    Cl    0.30158   0.61262   0.57848   0.01267  Uiso   1.00
