data_image0
_cell_length_a       22.249
_cell_length_b       7.0528
_cell_length_c       13.5747
_cell_angle_alpha    90
_cell_angle_beta     90
_cell_angle_gamma    90

_symmetry_space_group_name_H-M    "P 1"
_symmetry_int_tables_number       1

loop_
  _symmetry_equiv_pos_as_xyz
  'x, y, z'

loop_
  _atom_site_label
  _atom_site_occupancy
  _atom_site_fract_x
  _atom_site_fract_y
  _atom_site_fract_z
  _atom_site_thermal_displace_type
  _atom_site_B_iso_or_equiv
  _atom_site_type_symbol
  N1       1.0000 0.43663  0.65620  0.56569  Biso   1.000  N
  N2       1.0000 0.38905  0.59290  0.61290  Biso   1.000  N
  C1       1.0000 0.27700  0.58180  0.72500  Biso   1.000  C
  H1       1.0000 0.29520  0.46700  0.70920  Biso   1.000  H
  N3       1.0000 0.93663  0.15620  0.06569  Biso   1.000  N
  N4       1.0000 0.88905  0.09290  0.11290  Biso   1.000  N
  C2       1.0000 0.77700  0.08180  0.22500  Biso   1.000  C
  H2       1.0000 0.79520  0.96700  0.20920  Biso   1.000  H
  N5       1.0000 0.56337  0.84380  0.56569  Biso   1.000  N
  N6       1.0000 0.61095  0.90710  0.61290  Biso   1.000  N
  C3       1.0000 0.72300  0.91820  0.72500  Biso   1.000  C
  H3       1.0000 0.70480  0.03300  0.70920  Biso   1.000  H
  N7       1.0000 0.06337  0.34380  0.06569  Biso   1.000  N
  N8       1.0000 0.11095  0.40710  0.11290  Biso   1.000  N
  C4       1.0000 0.22300  0.41820  0.22500  Biso   1.000  C
  H4       1.0000 0.20480  0.53300  0.20920  Biso   1.000  H
  N9       1.0000 0.56337  0.15620  0.43431  Biso   1.000  N
  N10      1.0000 0.61095  0.09290  0.38710  Biso   1.000  N
  C5       1.0000 0.72300  0.08180  0.27500  Biso   1.000  C
  H5       1.0000 0.70480  0.96700  0.29080  Biso   1.000  H
  N11      1.0000 0.06337  0.65620  0.93431  Biso   1.000  N
  N12      1.0000 0.11095  0.59290  0.88710  Biso   1.000  N
  C6       1.0000 0.22300  0.58180  0.77500  Biso   1.000  C
  H6       1.0000 0.20480  0.46700  0.79080  Biso   1.000  H
  N13      1.0000 0.43663  0.34380  0.43431  Biso   1.000  N
  N14      1.0000 0.38905  0.40710  0.38710  Biso   1.000  N
  C7       1.0000 0.27700  0.41820  0.27500  Biso   1.000  C
  H7       1.0000 0.29520  0.53300  0.29080  Biso   1.000  H
  N15      1.0000 0.93663  0.84380  0.93431  Biso   1.000  N
  N16      1.0000 0.88905  0.90710  0.88710  Biso   1.000  N
  C8       1.0000 0.77700  0.91820  0.77500  Biso   1.000  C
  H8       1.0000 0.79520  0.03300  0.79080  Biso   1.000  H
  N17      1.0000 0.56337  0.34380  0.43431  Biso   1.000  N
  N18      1.0000 0.61095  0.40710  0.38710  Biso   1.000  N
  C9       1.0000 0.72300  0.41820  0.27500  Biso   1.000  C
  H9       1.0000 0.70480  0.53300  0.29080  Biso   1.000  H
  N19      1.0000 0.06337  0.84380  0.93431  Biso   1.000  N
  N20      1.0000 0.11095  0.90710  0.88710  Biso   1.000  N
  C10      1.0000 0.22300  0.91820  0.77500  Biso   1.000  C
  H10      1.0000 0.20480  0.03300  0.79080  Biso   1.000  H
  N21      1.0000 0.43663  0.15620  0.43431  Biso   1.000  N
  N22      1.0000 0.38905  0.09290  0.38710  Biso   1.000  N
  C11      1.0000 0.27700  0.08180  0.27500  Biso   1.000  C
  H11      1.0000 0.29520  0.96700  0.29080  Biso   1.000  H
  N23      1.0000 0.93663  0.65620  0.93431  Biso   1.000  N
  N24      1.0000 0.88905  0.59290  0.88710  Biso   1.000  N
  C12      1.0000 0.77700  0.58180  0.77500  Biso   1.000  C
  H12      1.0000 0.79520  0.46700  0.79080  Biso   1.000  H
  N25      1.0000 0.43663  0.84380  0.56569  Biso   1.000  N
  N26      1.0000 0.38905  0.90710  0.61290  Biso   1.000  N
  C13      1.0000 0.27700  0.91820  0.72500  Biso   1.000  C
  H13      1.0000 0.29520  0.03300  0.70920  Biso   1.000  H
  N27      1.0000 0.93663  0.34380  0.06569  Biso   1.000  N
  N28      1.0000 0.88905  0.40710  0.11290  Biso   1.000  N
  C14      1.0000 0.77700  0.41820  0.22500  Biso   1.000  C
  H14      1.0000 0.79520  0.53300  0.20920  Biso   1.000  H
  N29      1.0000 0.56337  0.65620  0.56569  Biso   1.000  N
  N30      1.0000 0.61095  0.59290  0.61290  Biso   1.000  N
  C15      1.0000 0.72300  0.58180  0.72500  Biso   1.000  C
  H15      1.0000 0.70480  0.46700  0.70920  Biso   1.000  H
  N31      1.0000 0.06337  0.15620  0.06569  Biso   1.000  N
  N32      1.0000 0.11095  0.09290  0.11290  Biso   1.000  N
  C16      1.0000 0.22300  0.08180  0.22500  Biso   1.000  C
  H16      1.0000 0.20480  0.96700  0.20920  Biso   1.000  H
  Cu1      1.0000 0.50000  0.50000  0.50000  Biso   1.000  Cu
  Cu2      1.0000 0.00000  0.00000  0.00000  Biso   1.000  Cu
  Cu3      1.0000 0.50000  0.00000  0.50000  Biso   1.000  Cu
  Cu4      1.0000 0.00000  0.50000  0.00000  Biso   1.000  Cu
  C17      1.0000 0.36090  0.75000  0.64170  Biso   1.000  C
  C18      1.0000 0.30460  0.75000  0.69800  Biso   1.000  C
  C19      1.0000 0.86090  0.25000  0.14170  Biso   1.000  C
  C20      1.0000 0.80460  0.25000  0.19800  Biso   1.000  C
  C21      1.0000 0.63910  0.75000  0.64170  Biso   1.000  C
  C22      1.0000 0.69540  0.75000  0.69800  Biso   1.000  C
  C23      1.0000 0.13910  0.25000  0.14170  Biso   1.000  C
  C24      1.0000 0.19540  0.25000  0.19800  Biso   1.000  C
  C25      1.0000 0.63910  0.25000  0.35830  Biso   1.000  C
  C26      1.0000 0.69540  0.25000  0.30200  Biso   1.000  C
  C27      1.0000 0.13910  0.75000  0.85830  Biso   1.000  C
  C28      1.0000 0.19540  0.75000  0.80200  Biso   1.000  C
  C29      1.0000 0.36090  0.25000  0.35830  Biso   1.000  C
  C30      1.0000 0.30460  0.25000  0.30200  Biso   1.000  C
  C31      1.0000 0.86090  0.75000  0.85830  Biso   1.000  C
  C32      1.0000 0.80460  0.75000  0.80200  Biso   1.000  C
