data_image0
_cell_length_a       14.0636
_cell_length_b       15.9152
_cell_length_c       16.5858
_cell_angle_alpha    90
_cell_angle_beta     90
_cell_angle_gamma    90

_symmetry_space_group_name_H-M    "P 1"
_symmetry_int_tables_number       1

loop_
  _symmetry_equiv_pos_as_xyz
  'x, y, z'

loop_
  _atom_site_label
  _atom_site_occupancy
  _atom_site_fract_x
  _atom_site_fract_y
  _atom_site_fract_z
  _atom_site_thermal_displace_type
  _atom_site_B_iso_or_equiv
  _atom_site_type_symbol
  Ni1      1.0000 0.47904  0.81749  0.39336  Biso   1.000  Ni
  C1       1.0000 0.25700  0.99550  0.34118  Biso   1.000  C
  C2       1.0000 0.22100  0.07275  0.36604  Biso   1.000  C
  H1       1.0000 0.24590  0.09860  0.41310  Biso   1.000  H
  C3       1.0000 0.14900  0.11270  0.32273  Biso   1.000  C
  C4       1.0000 0.11380  0.07383  0.25408  Biso   1.000  C
  H2       1.0000 0.06820  0.10230  0.22180  Biso   1.000  H
  C5       1.0000 0.14400  0.99350  0.23144  Biso   1.000  C
  C6       1.0000 0.21600  0.95491  0.27540  Biso   1.000  C
  H3       1.0000 0.23740  0.90050  0.26040  Biso   1.000  H
  C7       1.0000 0.34340  0.95928  0.38255  Biso   1.000  C
  C8       1.0000 0.10730  0.19382  0.34970  Biso   1.000  C
  C9       1.0000 0.09620  0.95317  0.15954  Biso   1.000  C
  O1       1.0000 0.36893  0.99442  0.44679  Biso   1.000  O
  O2       1.0000 0.38201  0.89734  0.34818  Biso   1.000  O
  O3       1.0000 0.13047  0.22470  0.41659  Biso   1.000  O
  O4       1.0000 0.04497  0.22877  0.30538  Biso   1.000  O
  O5       1.0000 0.06409  0.00261  0.10890  Biso   1.000  O
  O6       1.0000 0.09141  0.87368  0.15982  Biso   1.000  O
  C10      1.0000 0.58150  0.80240  0.61450  Biso   1.000  C
  H4       1.0000 0.64940  0.78870  0.61650  Biso   1.000  H
  H5       1.0000 0.54520  0.75880  0.64250  Biso   1.000  H
  H6       1.0000 0.57060  0.85670  0.64070  Biso   1.000  H
  C11      1.0000 0.54990  0.80715  0.52810  Biso   1.000  C
  O7       1.0000 0.56826  0.75021  0.47981  Biso   1.000  O
  O8       1.0000 0.49763  0.86860  0.50511  Biso   1.000  O
  Ni2      1.0000 0.02096  0.18251  0.89336  Biso   1.000  Ni
  C12      1.0000 0.24300  0.00450  0.84118  Biso   1.000  C
  C13      1.0000 0.27900  0.92725  0.86604  Biso   1.000  C
  H7       1.0000 0.25410  0.90140  0.91310  Biso   1.000  H
  C14      1.0000 0.35100  0.88730  0.82273  Biso   1.000  C
  C15      1.0000 0.38620  0.92617  0.75408  Biso   1.000  C
  H8       1.0000 0.43180  0.89770  0.72180  Biso   1.000  H
  C16      1.0000 0.35600  0.00650  0.73144  Biso   1.000  C
  C17      1.0000 0.28400  0.04509  0.77540  Biso   1.000  C
  H9       1.0000 0.26260  0.09950  0.76040  Biso   1.000  H
  C18      1.0000 0.15660  0.04072  0.88255  Biso   1.000  C
  C19      1.0000 0.39270  0.80618  0.84970  Biso   1.000  C
  C20      1.0000 0.40380  0.04683  0.65954  Biso   1.000  C
  O9       1.0000 0.13107  0.00558  0.94679  Biso   1.000  O
  O10      1.0000 0.11799  0.10266  0.84818  Biso   1.000  O
  O11      1.0000 0.36953  0.77530  0.91659  Biso   1.000  O
  O12      1.0000 0.45503  0.77123  0.80538  Biso   1.000  O
  O13      1.0000 0.43591  0.99739  0.60890  Biso   1.000  O
  O14      1.0000 0.40859  0.12632  0.65982  Biso   1.000  O
  C21      1.0000 0.91850  0.19760  0.11450  Biso   1.000  C
  H10      1.0000 0.85060  0.21130  0.11650  Biso   1.000  H
  H11      1.0000 0.95480  0.24120  0.14250  Biso   1.000  H
  H12      1.0000 0.92940  0.14330  0.14070  Biso   1.000  H
  C22      1.0000 0.95010  0.19285  0.02810  Biso   1.000  C
  O15      1.0000 0.93174  0.24979  0.97981  Biso   1.000  O
  O16      1.0000 0.00237  0.13140  0.00511  Biso   1.000  O
  Ni3      1.0000 0.52096  0.31749  0.10664  Biso   1.000  Ni
  C23      1.0000 0.74300  0.49550  0.15882  Biso   1.000  C
  C24      1.0000 0.77900  0.57275  0.13396  Biso   1.000  C
  H13      1.0000 0.75410  0.59860  0.08690  Biso   1.000  H
  C25      1.0000 0.85100  0.61270  0.17727  Biso   1.000  C
  C26      1.0000 0.88620  0.57383  0.24592  Biso   1.000  C
  H14      1.0000 0.93180  0.60230  0.27820  Biso   1.000  H
  C27      1.0000 0.85600  0.49350  0.26856  Biso   1.000  C
  C28      1.0000 0.78400  0.45491  0.22460  Biso   1.000  C
  H15      1.0000 0.76260  0.40050  0.23960  Biso   1.000  H
  C29      1.0000 0.65660  0.45928  0.11745  Biso   1.000  C
  C30      1.0000 0.89270  0.69382  0.15030  Biso   1.000  C
  C31      1.0000 0.90380  0.45317  0.34046  Biso   1.000  C
  O17      1.0000 0.63107  0.49442  0.05321  Biso   1.000  O
  O18      1.0000 0.61799  0.39734  0.15182  Biso   1.000  O
  O19      1.0000 0.86953  0.72470  0.08341  Biso   1.000  O
  O20      1.0000 0.95503  0.72877  0.19462  Biso   1.000  O
  O21      1.0000 0.93591  0.50261  0.39110  Biso   1.000  O
  O22      1.0000 0.90859  0.37368  0.34018  Biso   1.000  O
  C32      1.0000 0.41850  0.30240  0.88550  Biso   1.000  C
  H16      1.0000 0.35060  0.28870  0.88350  Biso   1.000  H
  H17      1.0000 0.45480  0.25880  0.85750  Biso   1.000  H
  H18      1.0000 0.42940  0.35670  0.85930  Biso   1.000  H
  C33      1.0000 0.45010  0.30715  0.97190  Biso   1.000  C
  O23      1.0000 0.43174  0.25021  0.02019  Biso   1.000  O
  O24      1.0000 0.50237  0.36860  0.99489  Biso   1.000  O
  Ni4      1.0000 0.97904  0.68251  0.60664  Biso   1.000  Ni
  C34      1.0000 0.75700  0.50450  0.65882  Biso   1.000  C
  C35      1.0000 0.72100  0.42725  0.63396  Biso   1.000  C
  H19      1.0000 0.74590  0.40140  0.58690  Biso   1.000  H
  C36      1.0000 0.64900  0.38730  0.67727  Biso   1.000  C
  C37      1.0000 0.61380  0.42617  0.74592  Biso   1.000  C
  H20      1.0000 0.56820  0.39770  0.77820  Biso   1.000  H
  C38      1.0000 0.64400  0.50650  0.76856  Biso   1.000  C
  C39      1.0000 0.71600  0.54509  0.72460  Biso   1.000  C
  H21      1.0000 0.73740  0.59950  0.73960  Biso   1.000  H
  C40      1.0000 0.84340  0.54072  0.61745  Biso   1.000  C
  C41      1.0000 0.60730  0.30618  0.65030  Biso   1.000  C
  C42      1.0000 0.59620  0.54683  0.84046  Biso   1.000  C
  O25      1.0000 0.86893  0.50558  0.55321  Biso   1.000  O
  O26      1.0000 0.88201  0.60266  0.65182  Biso   1.000  O
  O27      1.0000 0.63047  0.27530  0.58341  Biso   1.000  O
  O28      1.0000 0.54497  0.27123  0.69462  Biso   1.000  O
  O29      1.0000 0.56409  0.49739  0.89110  Biso   1.000  O
  O30      1.0000 0.59141  0.62632  0.84018  Biso   1.000  O
  C43      1.0000 0.08150  0.69760  0.38550  Biso   1.000  C
  H22      1.0000 0.14940  0.71130  0.38350  Biso   1.000  H
  H23      1.0000 0.04520  0.74120  0.35750  Biso   1.000  H
  H24      1.0000 0.07060  0.64330  0.35930  Biso   1.000  H
  C44      1.0000 0.04990  0.69285  0.47190  Biso   1.000  C
  O31      1.0000 0.06826  0.74979  0.52019  Biso   1.000  O
  O32      1.0000 0.99763  0.63140  0.49489  Biso   1.000  O
  Ni5      1.0000 0.52096  0.18251  0.60664  Biso   1.000  Ni
  C45      1.0000 0.74300  0.00450  0.65882  Biso   1.000  C
  C46      1.0000 0.77900  0.92725  0.63396  Biso   1.000  C
  H25      1.0000 0.75410  0.90140  0.58690  Biso   1.000  H
  C47      1.0000 0.85100  0.88730  0.67727  Biso   1.000  C
  C48      1.0000 0.88620  0.92617  0.74592  Biso   1.000  C
  H26      1.0000 0.93180  0.89770  0.77820  Biso   1.000  H
  C49      1.0000 0.85600  0.00650  0.76856  Biso   1.000  C
  C50      1.0000 0.78400  0.04509  0.72460  Biso   1.000  C
  H27      1.0000 0.76260  0.09950  0.73960  Biso   1.000  H
  C51      1.0000 0.65660  0.04072  0.61745  Biso   1.000  C
  C52      1.0000 0.89270  0.80618  0.65030  Biso   1.000  C
  C53      1.0000 0.90380  0.04683  0.84046  Biso   1.000  C
  O33      1.0000 0.63107  0.00558  0.55321  Biso   1.000  O
  O34      1.0000 0.61799  0.10266  0.65182  Biso   1.000  O
  O35      1.0000 0.86953  0.77530  0.58341  Biso   1.000  O
  O36      1.0000 0.95503  0.77123  0.69462  Biso   1.000  O
  O37      1.0000 0.93591  0.99739  0.89110  Biso   1.000  O
  O38      1.0000 0.90859  0.12632  0.84018  Biso   1.000  O
  C54      1.0000 0.41850  0.19760  0.38550  Biso   1.000  C
  H28      1.0000 0.35060  0.21130  0.38350  Biso   1.000  H
  H29      1.0000 0.45480  0.24120  0.35750  Biso   1.000  H
  H30      1.0000 0.42940  0.14330  0.35930  Biso   1.000  H
  C55      1.0000 0.45010  0.19285  0.47190  Biso   1.000  C
  O39      1.0000 0.43174  0.24979  0.52019  Biso   1.000  O
  O40      1.0000 0.50237  0.13140  0.49489  Biso   1.000  O
  Ni6      1.0000 0.97904  0.81749  0.10664  Biso   1.000  Ni
  C56      1.0000 0.75700  0.99550  0.15882  Biso   1.000  C
  C57      1.0000 0.72100  0.07275  0.13396  Biso   1.000  C
  H31      1.0000 0.74590  0.09860  0.08690  Biso   1.000  H
  C58      1.0000 0.64900  0.11270  0.17727  Biso   1.000  C
  C59      1.0000 0.61380  0.07383  0.24592  Biso   1.000  C
  H32      1.0000 0.56820  0.10230  0.27820  Biso   1.000  H
  C60      1.0000 0.64400  0.99350  0.26856  Biso   1.000  C
  C61      1.0000 0.71600  0.95491  0.22460  Biso   1.000  C
  H33      1.0000 0.73740  0.90050  0.23960  Biso   1.000  H
  C62      1.0000 0.84340  0.95928  0.11745  Biso   1.000  C
  C63      1.0000 0.60730  0.19382  0.15030  Biso   1.000  C
  C64      1.0000 0.59620  0.95317  0.34046  Biso   1.000  C
  O41      1.0000 0.86893  0.99442  0.05321  Biso   1.000  O
  O42      1.0000 0.88201  0.89734  0.15182  Biso   1.000  O
  O43      1.0000 0.63047  0.22470  0.08341  Biso   1.000  O
  O44      1.0000 0.54497  0.22877  0.19462  Biso   1.000  O
  O45      1.0000 0.56409  0.00261  0.39110  Biso   1.000  O
  O46      1.0000 0.59141  0.87368  0.34018  Biso   1.000  O
  C65      1.0000 0.08150  0.80240  0.88550  Biso   1.000  C
  H34      1.0000 0.14940  0.78870  0.88350  Biso   1.000  H
  H35      1.0000 0.04520  0.75880  0.85750  Biso   1.000  H
  H36      1.0000 0.07060  0.85670  0.85930  Biso   1.000  H
  C66      1.0000 0.04990  0.80715  0.97190  Biso   1.000  C
  O47      1.0000 0.06826  0.75021  0.02019  Biso   1.000  O
  O48      1.0000 0.99763  0.86860  0.99489  Biso   1.000  O
  Ni7      1.0000 0.47904  0.68251  0.89336  Biso   1.000  Ni
  C67      1.0000 0.25700  0.50450  0.84118  Biso   1.000  C
  C68      1.0000 0.22100  0.42725  0.86604  Biso   1.000  C
  H37      1.0000 0.24590  0.40140  0.91310  Biso   1.000  H
  C69      1.0000 0.14900  0.38730  0.82273  Biso   1.000  C
  C70      1.0000 0.11380  0.42617  0.75408  Biso   1.000  C
  H38      1.0000 0.06820  0.39770  0.72180  Biso   1.000  H
  C71      1.0000 0.14400  0.50650  0.73144  Biso   1.000  C
  C72      1.0000 0.21600  0.54509  0.77540  Biso   1.000  C
  H39      1.0000 0.23740  0.59950  0.76040  Biso   1.000  H
  C73      1.0000 0.34340  0.54072  0.88255  Biso   1.000  C
  C74      1.0000 0.10730  0.30618  0.84970  Biso   1.000  C
  C75      1.0000 0.09620  0.54683  0.65954  Biso   1.000  C
  O49      1.0000 0.36893  0.50558  0.94679  Biso   1.000  O
  O50      1.0000 0.38201  0.60266  0.84818  Biso   1.000  O
  O51      1.0000 0.13047  0.27530  0.91659  Biso   1.000  O
  O52      1.0000 0.04497  0.27123  0.80538  Biso   1.000  O
  O53      1.0000 0.06409  0.49739  0.60890  Biso   1.000  O
  O54      1.0000 0.09141  0.62632  0.65982  Biso   1.000  O
  C76      1.0000 0.58150  0.69760  0.11450  Biso   1.000  C
  H40      1.0000 0.64940  0.71130  0.11650  Biso   1.000  H
  H41      1.0000 0.54520  0.74120  0.14250  Biso   1.000  H
  H42      1.0000 0.57060  0.64330  0.14070  Biso   1.000  H
  C77      1.0000 0.54990  0.69285  0.02810  Biso   1.000  C
  O55      1.0000 0.56826  0.74979  0.97981  Biso   1.000  O
  O56      1.0000 0.49763  0.63140  0.00511  Biso   1.000  O
  Ni8      1.0000 0.02096  0.31749  0.39336  Biso   1.000  Ni
  C78      1.0000 0.24300  0.49550  0.34118  Biso   1.000  C
  C79      1.0000 0.27900  0.57275  0.36604  Biso   1.000  C
  H43      1.0000 0.25410  0.59860  0.41310  Biso   1.000  H
  C80      1.0000 0.35100  0.61270  0.32273  Biso   1.000  C
  C81      1.0000 0.38620  0.57383  0.25408  Biso   1.000  C
  H44      1.0000 0.43180  0.60230  0.22180  Biso   1.000  H
  C82      1.0000 0.35600  0.49350  0.23144  Biso   1.000  C
  C83      1.0000 0.28400  0.45491  0.27540  Biso   1.000  C
  H45      1.0000 0.26260  0.40050  0.26040  Biso   1.000  H
  C84      1.0000 0.15660  0.45928  0.38255  Biso   1.000  C
  C85      1.0000 0.39270  0.69382  0.34970  Biso   1.000  C
  C86      1.0000 0.40380  0.45317  0.15954  Biso   1.000  C
  O57      1.0000 0.13107  0.49442  0.44679  Biso   1.000  O
  O58      1.0000 0.11799  0.39734  0.34818  Biso   1.000  O
  O59      1.0000 0.36953  0.72470  0.41659  Biso   1.000  O
  O60      1.0000 0.45503  0.72877  0.30538  Biso   1.000  O
  O61      1.0000 0.43591  0.50261  0.10890  Biso   1.000  O
  O62      1.0000 0.40859  0.37368  0.15982  Biso   1.000  O
  C87      1.0000 0.91850  0.30240  0.61450  Biso   1.000  C
  H46      1.0000 0.85060  0.28870  0.61650  Biso   1.000  H
  H47      1.0000 0.95480  0.25880  0.64250  Biso   1.000  H
  H48      1.0000 0.92940  0.35670  0.64070  Biso   1.000  H
  C88      1.0000 0.95010  0.30715  0.52810  Biso   1.000  C
  O63      1.0000 0.93174  0.25021  0.47981  Biso   1.000  O
  O64      1.0000 0.00237  0.36860  0.50511  Biso   1.000  O
  Ni9      1.0000 0.50000  0.00000  0.50000  Biso   1.000  Ni
  Ni10     1.0000 0.00000  0.00000  0.00000  Biso   1.000  Ni
  Ni11     1.0000 0.50000  0.50000  0.00000  Biso   1.000  Ni
  Ni12     1.0000 0.00000  0.50000  0.50000  Biso   1.000  Ni
