data_VEPDEB_charged
_audit_creation_date              2014-07-02
_audit_creation_method            'Materials Studio'
_symmetry_space_group_name_H-M    'P1'
_symmetry_Int_Tables_number       1
_symmetry_cell_setting            triclinic
loop_
_symmetry_equiv_pos_as_xyz
  x,y,z
_cell_length_a                    14.8344
_cell_length_b                    19.0682
_cell_length_c                    19.0682
_cell_angle_alpha                 111.2890
_cell_angle_beta                  108.1180
_cell_angle_gamma                 71.8817
loop_
_atom_site_label
_atom_site_type_symbol
_atom_site_fract_x
_atom_site_fract_y
_atom_site_fract_z
_atom_site_U_iso_or_equiv
_atom_site_adp_type
_atom_site_occupancy
Fe1    Fe    0.37589   0.39214   0.04858   0.01267  Uiso   1.00
Fe2    Fe    0.62411   0.04858   0.39214   0.01267  Uiso   1.00
Fe3    Fe    0.62411   0.60786   0.95142   0.01267  Uiso   1.00
Fe4    Fe    0.37589   0.95142   0.60786   0.01267  Uiso   1.00
Fe5    Fe    0.50000   0.50000  -0.00000   0.01267  Uiso   1.00
Fe6    Fe    0.50000   0.00000   0.50000   0.01267  Uiso   1.00
H1     H     0.30360   0.56970   0.89470   0.01267  Uiso   1.00
H2     H     0.17680   0.44870   0.94770   0.01267  Uiso   1.00
H3     H     0.12100   0.45650   0.76110   0.01267  Uiso   1.00
H4     H     0.16440   0.52130   0.75950   0.01267  Uiso   1.00
H5     H     0.09940   0.66390   0.92970   0.01267  Uiso   1.00
H6     H     0.15080   0.64930   0.86330   0.01267  Uiso   1.00
H7     H     0.64950   0.34760   0.93240   0.01267  Uiso   1.00
H8     H     0.52380   0.23690   0.99950   0.01267  Uiso   1.00
H9     H     0.74590   0.16420   0.02680   0.01267  Uiso   1.00
H10    H     0.65100   0.13190   0.98590   0.01267  Uiso   1.00
H11    H     0.89850   0.02410   0.90290   0.01267  Uiso   1.00
H12    H     0.74750   0.23720   0.88020   0.01267  Uiso   1.00
H13    H     0.80480   0.22830   0.96210   0.01267  Uiso   1.00
H14    H     0.56800   0.59060   0.17740   0.01267  Uiso   1.00
H15    H     0.44030   0.46770   0.22590   0.01267  Uiso   1.00
H16    H     0.48020   0.52950   0.35350   0.01267  Uiso   1.00
H17    H     0.57820   0.46970   0.33950   0.01267  Uiso   1.00
H18    H     0.73730   0.49090   0.43610   0.01267  Uiso   1.00
H19    H     0.68200   0.58940   0.29440   0.01267  Uiso   1.00
H20    H     0.70260   0.50660   0.30320   0.01267  Uiso   1.00
H21    H     0.87980   0.43480   0.81740   0.01267  Uiso   1.00
H22    H     0.77730   0.65550   0.90430   0.01267  Uiso   1.00
H23    H     0.92000   0.67910   0.90310   0.01267  Uiso   1.00
H24    H     0.85500   0.67590   0.81950   0.01267  Uiso   1.00
H25    H     0.99140   0.72490   0.83630   0.01267  Uiso   1.00
H26    H     0.05220   0.63690   0.72510   0.01267  Uiso   1.00
H27    H     0.93860   0.64720   0.70680   0.01267  Uiso   1.00
H28    H     0.01240   0.51850   0.66930   0.01267  Uiso   1.00
H29    H     0.94350   0.46940   0.73440   0.01267  Uiso   1.00
H30    H     0.86860   0.54110   0.71150   0.01267  Uiso   1.00
H31    H     0.03900   0.48020   0.86680   0.01267  Uiso   1.00
H32    H     0.03130   0.55970   0.93210   0.01267  Uiso   1.00
H33    H     0.69640   0.89470   0.56970   0.01267  Uiso   1.00
H34    H     0.82320   0.94770   0.44870   0.01267  Uiso   1.00
H35    H     0.87900   0.76110   0.45650   0.01267  Uiso   1.00
H36    H     0.83560   0.75950   0.52130   0.01267  Uiso   1.00
H37    H     0.90060   0.92970   0.66390   0.01267  Uiso   1.00
H38    H     0.84920   0.86330   0.64930   0.01267  Uiso   1.00
H39    H     0.35050   0.93240   0.34760   0.01267  Uiso   1.00
H40    H     0.47620   0.99950   0.23690   0.01267  Uiso   1.00
H41    H     0.25410   0.02680   0.16420   0.01267  Uiso   1.00
H42    H     0.34900   0.98590   0.13190   0.01267  Uiso   1.00
H43    H     0.10150   0.90290   0.02410   0.01267  Uiso   1.00
H44    H     0.25250   0.88020   0.23720   0.01267  Uiso   1.00
H45    H     0.19520   0.96210   0.22830   0.01267  Uiso   1.00
H46    H     0.43200   0.17740   0.59060   0.01267  Uiso   1.00
H47    H     0.55970   0.22590   0.46770   0.01267  Uiso   1.00
H48    H     0.51980   0.35350   0.52950   0.01267  Uiso   1.00
H49    H     0.42180   0.33950   0.46970   0.01267  Uiso   1.00
H50    H     0.26270   0.43610   0.49090   0.01267  Uiso   1.00
H51    H     0.31800   0.29440   0.58940   0.01267  Uiso   1.00
H52    H     0.29740   0.30320   0.50660   0.01267  Uiso   1.00
H53    H     0.12020   0.81740   0.43480   0.01267  Uiso   1.00
H54    H     0.22270   0.90430   0.65550   0.01267  Uiso   1.00
H55    H     0.08000   0.90310   0.67910   0.01267  Uiso   1.00
H56    H     0.14500   0.81950   0.67590   0.01267  Uiso   1.00
H57    H     0.00860   0.83630   0.72490   0.01267  Uiso   1.00
H58    H     0.94780   0.72510   0.63690   0.01267  Uiso   1.00
H59    H     0.06140   0.70680   0.64720   0.01267  Uiso   1.00
H60    H     0.98760   0.66930   0.51850   0.01267  Uiso   1.00
H61    H     0.05650   0.73440   0.46940   0.01267  Uiso   1.00
H62    H     0.13140   0.71150   0.54110   0.01267  Uiso   1.00
H63    H     0.96100   0.86680   0.48020   0.01267  Uiso   1.00
H64    H     0.96870   0.93210   0.55970   0.01267  Uiso   1.00
H65    H     0.69640   0.43030   0.10530   0.01267  Uiso   1.00
H66    H     0.82320   0.55130   0.05230   0.01267  Uiso   1.00
H67    H     0.87900   0.54350   0.23890   0.01267  Uiso   1.00
H68    H     0.83560   0.47870   0.24050   0.01267  Uiso   1.00
H69    H     0.90060   0.33610   0.07030   0.01267  Uiso   1.00
H70    H     0.84920   0.35070   0.13670   0.01267  Uiso   1.00
H71    H     0.35050   0.65240   0.06760   0.01267  Uiso   1.00
H72    H     0.47620   0.76310   0.00050   0.01267  Uiso   1.00
H73    H     0.25410   0.83580   0.97320   0.01267  Uiso   1.00
H74    H     0.34900   0.86810   0.01410   0.01267  Uiso   1.00
H75    H     0.10150   0.97590   0.09710   0.01267  Uiso   1.00
H76    H     0.25250   0.76280   0.11980   0.01267  Uiso   1.00
H77    H     0.19520   0.77170   0.03790   0.01267  Uiso   1.00
H78    H     0.43200   0.40940   0.82260   0.01267  Uiso   1.00
H79    H     0.55970   0.53230   0.77410   0.01267  Uiso   1.00
H80    H     0.51980   0.47050   0.64650   0.01267  Uiso   1.00
H81    H     0.42180   0.53030   0.66050   0.01267  Uiso   1.00
H82    H     0.26270   0.50910   0.56390   0.01267  Uiso   1.00
H83    H     0.31800   0.41060   0.70560   0.01267  Uiso   1.00
H84    H     0.29740   0.49340   0.69680   0.01267  Uiso   1.00
H85    H     0.12020   0.56520   0.18260   0.01267  Uiso   1.00
H86    H     0.22270   0.34450   0.09570   0.01267  Uiso   1.00
H87    H     0.08000   0.32090   0.09690   0.01267  Uiso   1.00
H88    H     0.14500   0.32410   0.18050   0.01267  Uiso   1.00
H89    H     0.00860   0.27510   0.16370   0.01267  Uiso   1.00
H90    H     0.94780   0.36310   0.27490   0.01267  Uiso   1.00
H91    H     0.06140   0.35280   0.29320   0.01267  Uiso   1.00
H92    H     0.98760   0.48150   0.33070   0.01267  Uiso   1.00
H93    H     0.05650   0.53060   0.26560   0.01267  Uiso   1.00
H94    H     0.13140   0.45890   0.28850   0.01267  Uiso   1.00
H95    H     0.96100   0.51980   0.13320   0.01267  Uiso   1.00
H96    H     0.96870   0.44030   0.06790   0.01267  Uiso   1.00
H97    H     0.30360   0.10530   0.43030   0.01267  Uiso   1.00
H98    H     0.17680   0.05230   0.55130   0.01267  Uiso   1.00
H99    H     0.12100   0.23890   0.54350   0.01267  Uiso   1.00
H100   H     0.16440   0.24050   0.47870   0.01267  Uiso   1.00
H101   H     0.09940   0.07030   0.33610   0.01267  Uiso   1.00
H102   H     0.15080   0.13670   0.35070   0.01267  Uiso   1.00
H103   H     0.64950   0.06760   0.65240   0.01267  Uiso   1.00
H104   H     0.52380   0.00050   0.76310   0.01267  Uiso   1.00
H105   H     0.74590   0.97320   0.83580   0.01267  Uiso   1.00
H106   H     0.65100   0.01410   0.86810   0.01267  Uiso   1.00
H107   H     0.89850   0.09710   0.97590   0.01267  Uiso   1.00
H108   H     0.74750   0.11980   0.76280   0.01267  Uiso   1.00
H109   H     0.80480   0.03790   0.77170   0.01267  Uiso   1.00
H110   H     0.56800   0.82260   0.40940   0.01267  Uiso   1.00
H111   H     0.44030   0.77410   0.53230   0.01267  Uiso   1.00
H112   H     0.48020   0.64650   0.47050   0.01267  Uiso   1.00
H113   H     0.57820   0.66050   0.53030   0.01267  Uiso   1.00
H114   H     0.73730   0.56390   0.50910   0.01267  Uiso   1.00
H115   H     0.68200   0.70560   0.41060   0.01267  Uiso   1.00
H116   H     0.70260   0.69680   0.49340   0.01267  Uiso   1.00
H117   H     0.87980   0.18260   0.56520   0.01267  Uiso   1.00
H118   H     0.77730   0.09570   0.34450   0.01267  Uiso   1.00
H119   H     0.92000   0.09690   0.32090   0.01267  Uiso   1.00
H120   H     0.85500   0.18050   0.32410   0.01267  Uiso   1.00
H121   H     0.99140   0.16370   0.27510   0.01267  Uiso   1.00
H122   H     0.05220   0.27490   0.36310   0.01267  Uiso   1.00
H123   H     0.93860   0.29320   0.35280   0.01267  Uiso   1.00
H124   H     0.01240   0.33070   0.48150   0.01267  Uiso   1.00
H125   H     0.94350   0.26560   0.53060   0.01267  Uiso   1.00
H126   H     0.86860   0.28850   0.45890   0.01267  Uiso   1.00
H127   H     0.03900   0.13320   0.51980   0.01267  Uiso   1.00
H128   H     0.03130   0.06790   0.44030   0.01267  Uiso   1.00
H129   H     0.78950   0.02790   0.97210   0.01267  Uiso   1.00
H130   H     0.88510   0.13340   0.86660   0.01267  Uiso   1.00
H131   H     0.59470   0.18650   0.81350   0.01267  Uiso   1.00
H132   H     0.55750   0.14590   0.85410   0.01267  Uiso   1.00
H133   H     0.21050   0.97210   0.02790   0.01267  Uiso   1.00
H134   H     0.11490   0.86660   0.13340   0.01267  Uiso   1.00
H135   H     0.40530   0.81350   0.18650   0.01267  Uiso   1.00
H136   H     0.44250   0.85410   0.14590   0.01267  Uiso   1.00
H137   H     0.58790   0.52530   0.47470   0.01267  Uiso   1.00
H138   H     0.78990   0.58520   0.41480   0.01267  Uiso   1.00
H139   H     0.52290   0.68490   0.31510   0.01267  Uiso   1.00
H140   H     0.44600   0.66140   0.33860   0.01267  Uiso   1.00
H141   H     0.41210   0.47470   0.52530   0.01267  Uiso   1.00
H142   H     0.21010   0.41480   0.58520   0.01267  Uiso   1.00
H143   H     0.47710   0.31510   0.68490   0.01267  Uiso   1.00
H144   H     0.55400   0.33860   0.66140   0.01267  Uiso   1.00
Au1    Au    0.67377   0.31481   0.30161   0.01267  Uiso   1.00
Au2    Au    0.32623   0.30161   0.31481   0.01267  Uiso   1.00
Au3    Au    0.32623   0.68519   0.69840   0.01267  Uiso   1.00
Au4    Au    0.67377   0.69840   0.68519   0.01267  Uiso   1.00
Au5    Au    0.28041   0.16549   0.83451   0.01267  Uiso   1.00
Au6    Au    0.71959   0.83451   0.16549   0.01267  Uiso   1.00
Au7    Au    0.50000   0.22502   0.22502   0.01267  Uiso   1.00
Au8    Au    0.50000   0.77498   0.77498   0.01267  Uiso   1.00
C1     C     0.29300   0.53688   0.91592   0.01267  Uiso   1.00
C2     C     0.22330   0.47048   0.94512   0.01267  Uiso   1.00
C3     C     0.11220   0.55150   0.85750   0.01267  Uiso   1.00
C4     C     0.11180   0.51180   0.77240   0.01267  Uiso   1.00
C5     C     0.09840   0.63870   0.87530   0.01267  Uiso   1.00
C6     C     0.60790   0.33651   0.95269   0.01267  Uiso   1.00
C7     C     0.53850   0.27566   0.98914   0.01267  Uiso   1.00
C8     C     0.67650   0.19107   0.92433   0.01267  Uiso   1.00
C9     C     0.70790   0.13971   0.97729   0.01267  Uiso   1.00
C10    C     0.76660   0.20369   0.91271   0.01267  Uiso   1.00
C11    C     0.53310   0.55543   0.17217   0.01267  Uiso   1.00
C12    C     0.46260   0.48830   0.19890   0.01267  Uiso   1.00
C13    C     0.54920   0.52400   0.35940   0.01267  Uiso   1.00
C14    C     0.67260   0.56073   0.32347   0.01267  Uiso   1.00
C15    C     0.56380   0.57011   0.31469   0.01267  Uiso   1.00
C16    C     0.84270   0.48130   0.84210   0.01267  Uiso   1.00
C17    C     0.78690   0.60196   0.88924   0.01267  Uiso   1.00
C18    C     0.93240   0.56760   0.82900   0.01267  Uiso   1.00
C19    C     0.91770   0.65470   0.84830   0.01267  Uiso   1.00
C20    C     0.00030   0.66920   0.82620   0.01267  Uiso   1.00
C21    C     0.99980   0.62740   0.73840   0.01267  Uiso   1.00
C22    C     0.01270   0.54450   0.72410   0.01267  Uiso   1.00
C23    C     0.93130   0.52470   0.74350   0.01267  Uiso   1.00
C24    C     0.03030   0.53531   0.87749   0.01267  Uiso   1.00
C25    C     0.29400   0.25716   0.92504   0.01267  Uiso   1.00
C26    C     0.45620   0.29025   0.15575   0.01267  Uiso   1.00
C27    C     0.68730   0.32680   0.20660   0.01267  Uiso   1.00
C28    C     0.66490   0.30997   0.40183   0.01267  Uiso   1.00
C29    C     0.70700   0.91592   0.53688   0.01267  Uiso   1.00
C30    C     0.77670   0.94512   0.47048   0.01267  Uiso   1.00
C31    C     0.88780   0.85750   0.55150   0.01267  Uiso   1.00
C32    C     0.88820   0.77240   0.51180   0.01267  Uiso   1.00
C33    C     0.90160   0.87530   0.63870   0.01267  Uiso   1.00
C34    C     0.39210   0.95269   0.33651   0.01267  Uiso   1.00
C35    C     0.46150   0.98914   0.27566   0.01267  Uiso   1.00
C36    C     0.32350   0.92433   0.19107   0.01267  Uiso   1.00
C37    C     0.29210   0.97729   0.13971   0.01267  Uiso   1.00
C38    C     0.23340   0.91271   0.20369   0.01267  Uiso   1.00
C39    C     0.46690   0.17217   0.55543   0.01267  Uiso   1.00
C40    C     0.53740   0.19890   0.48830   0.01267  Uiso   1.00
C41    C     0.45080   0.35940   0.52400   0.01267  Uiso   1.00
C42    C     0.32740   0.32347   0.56073   0.01267  Uiso   1.00
C43    C     0.43620   0.31469   0.57011   0.01267  Uiso   1.00
C44    C     0.15730   0.84210   0.48130   0.01267  Uiso   1.00
C45    C     0.21310   0.88924   0.60196   0.01267  Uiso   1.00
C46    C     0.06760   0.82900   0.56760   0.01267  Uiso   1.00
C47    C     0.08230   0.84830   0.65470   0.01267  Uiso   1.00
C48    C     0.99970   0.82620   0.66920   0.01267  Uiso   1.00
C49    C     0.00020   0.73840   0.62740   0.01267  Uiso   1.00
C50    C     0.98730   0.72410   0.54450   0.01267  Uiso   1.00
C51    C     0.06870   0.74350   0.52470   0.01267  Uiso   1.00
C52    C     0.96970   0.87749   0.53531   0.01267  Uiso   1.00
C53    C     0.70600   0.92504   0.25716   0.01267  Uiso   1.00
C54    C     0.54380   0.15575   0.29025   0.01267  Uiso   1.00
C55    C     0.31270   0.20660   0.32680   0.01267  Uiso   1.00
C56    C     0.33510   0.40183   0.30997   0.01267  Uiso   1.00
C57    C     0.70700   0.46312   0.08408   0.01267  Uiso   1.00
C58    C     0.77670   0.52952   0.05488   0.01267  Uiso   1.00
C59    C     0.88780   0.44850   0.14250   0.01267  Uiso   1.00
C60    C     0.88820   0.48820   0.22760   0.01267  Uiso   1.00
C61    C     0.90160   0.36130   0.12470   0.01267  Uiso   1.00
C62    C     0.39210   0.66349   0.04731   0.01267  Uiso   1.00
C63    C     0.46150   0.72434   0.01086   0.01267  Uiso   1.00
C64    C     0.32350   0.80893   0.07567   0.01267  Uiso   1.00
C65    C     0.29210   0.86029   0.02271   0.01267  Uiso   1.00
C66    C     0.23340   0.79631   0.08729   0.01267  Uiso   1.00
C67    C     0.46690   0.44457   0.82783   0.01267  Uiso   1.00
C68    C     0.53740   0.51170   0.80110   0.01267  Uiso   1.00
C69    C     0.45080   0.47600   0.64060   0.01267  Uiso   1.00
C70    C     0.32740   0.43927   0.67653   0.01267  Uiso   1.00
C71    C     0.43620   0.42989   0.68531   0.01267  Uiso   1.00
C72    C     0.15730   0.51870   0.15790   0.01267  Uiso   1.00
C73    C     0.21310   0.39804   0.11076   0.01267  Uiso   1.00
C74    C     0.06760   0.43240   0.17100   0.01267  Uiso   1.00
C75    C     0.08230   0.34530   0.15170   0.01267  Uiso   1.00
C76    C     0.99970   0.33080   0.17380   0.01267  Uiso   1.00
C77    C     0.00020   0.37260   0.26160   0.01267  Uiso   1.00
C78    C     0.98730   0.45550   0.27590   0.01267  Uiso   1.00
C79    C     0.06870   0.47530   0.25650   0.01267  Uiso   1.00
C80    C     0.96970   0.46469   0.12251   0.01267  Uiso   1.00
C81    C     0.70600   0.74284   0.07496   0.01267  Uiso   1.00
C82    C     0.54380   0.70975   0.84425   0.01267  Uiso   1.00
C83    C     0.31270   0.67320   0.79340   0.01267  Uiso   1.00
C84    C     0.33510   0.69003   0.59817   0.01267  Uiso   1.00
C85    C     0.29300   0.08408   0.46312   0.01267  Uiso   1.00
C86    C     0.22330   0.05488   0.52952   0.01267  Uiso   1.00
C87    C     0.11220   0.14250   0.44850   0.01267  Uiso   1.00
C88    C     0.11180   0.22760   0.48820   0.01267  Uiso   1.00
C89    C     0.09840   0.12470   0.36130   0.01267  Uiso   1.00
C90    C     0.60790   0.04731   0.66349   0.01267  Uiso   1.00
C91    C     0.53850   0.01086   0.72434   0.01267  Uiso   1.00
C92    C     0.67650   0.07567   0.80893   0.01267  Uiso   1.00
C93    C     0.70790   0.02271   0.86029   0.01267  Uiso   1.00
C94    C     0.76660   0.08729   0.79631   0.01267  Uiso   1.00
C95    C     0.53310   0.82783   0.44457   0.01267  Uiso   1.00
C96    C     0.46260   0.80110   0.51170   0.01267  Uiso   1.00
C97    C     0.54920   0.64060   0.47600   0.01267  Uiso   1.00
C98    C     0.67260   0.67653   0.43927   0.01267  Uiso   1.00
C99    C     0.56380   0.68531   0.42989   0.01267  Uiso   1.00
C100   C     0.84270   0.15790   0.51870   0.01267  Uiso   1.00
C101   C     0.78690   0.11076   0.39804   0.01267  Uiso   1.00
C102   C     0.93240   0.17100   0.43240   0.01267  Uiso   1.00
C103   C     0.91770   0.15170   0.34530   0.01267  Uiso   1.00
C104   C     0.00030   0.17380   0.33080   0.01267  Uiso   1.00
C105   C     0.99980   0.26160   0.37260   0.01267  Uiso   1.00
C106   C     0.01270   0.27590   0.45550   0.01267  Uiso   1.00
C107   C     0.93130   0.25650   0.47530   0.01267  Uiso   1.00
C108   C     0.03030   0.12251   0.46469   0.01267  Uiso   1.00
C109   C     0.29400   0.07496   0.74284   0.01267  Uiso   1.00
C110   C     0.45620   0.84425   0.70975   0.01267  Uiso   1.00
C111   C     0.68730   0.79340   0.67320   0.01267  Uiso   1.00
C112   C     0.66490   0.59817   0.69003   0.01267  Uiso   1.00
C113   C     0.76940   0.06130   0.93870   0.01267  Uiso   1.00
C114   C     0.85940   0.07340   0.92660   0.01267  Uiso   1.00
C115   C     0.82740   0.12540   0.87460   0.01267  Uiso   1.00
C116   C     0.61520   0.15340   0.84660   0.01267  Uiso   1.00
C117   C     0.23060   0.93870   0.06130   0.01267  Uiso   1.00
C118   C     0.14060   0.92660   0.07340   0.01267  Uiso   1.00
C119   C     0.17260   0.87460   0.12540   0.01267  Uiso   1.00
C120   C     0.38480   0.84660   0.15340   0.01267  Uiso   1.00
C121   C     0.59740   0.55450   0.44550   0.01267  Uiso   1.00
C122   C     0.70680   0.54510   0.45490   0.01267  Uiso   1.00
C123   C     0.72030   0.59080   0.40920   0.01267  Uiso   1.00
C124   C     0.51500   0.65560   0.34440   0.01267  Uiso   1.00
C125   C     0.40260   0.44550   0.55450   0.01267  Uiso   1.00
C126   C     0.29320   0.45490   0.54510   0.01267  Uiso   1.00
C127   C     0.27970   0.40920   0.59080   0.01267  Uiso   1.00
C128   C     0.48500   0.34440   0.65560   0.01267  Uiso   1.00
N1     N     0.31540   0.45697   0.97975   0.01267  Uiso   1.00
N2     N     0.48950   0.34776   0.00258   0.01267  Uiso   1.00
N3     N     0.44390   0.47085   0.12317   0.01267  Uiso   1.00
N4     N     0.73590   0.56434   0.90188   0.01267  Uiso   1.00
N5     N     0.31530   0.31086   0.97354   0.01267  Uiso   1.00
N6     N     0.43020   0.32821   0.11559   0.01267  Uiso   1.00
N7     N     0.36030   0.49907   0.96117   0.01267  Uiso   1.00
N8     N     0.20600   0.52094   0.90486   0.01267  Uiso   1.00
N9     N     0.53430   0.38670   0.98062   0.01267  Uiso   1.00
N10    N     0.61350   0.26626   0.95808   0.01267  Uiso   1.00
N11    N     0.49010   0.51303   0.10575   0.01267  Uiso   1.00
N12    N     0.51910   0.54043   0.23139   0.01267  Uiso   1.00
N13    N     0.77200   0.48689   0.87211   0.01267  Uiso   1.00
N14    N     0.85530   0.55168   0.85132   0.01267  Uiso   1.00
N15    N     0.69300   0.33789   0.15291   0.01267  Uiso   1.00
N16    N     0.66410   0.30889   0.46091   0.01267  Uiso   1.00
N17    N     0.68460   0.97975   0.45697   0.01267  Uiso   1.00
N18    N     0.51050   0.00258   0.34776   0.01267  Uiso   1.00
N19    N     0.55610   0.12317   0.47085   0.01267  Uiso   1.00
N20    N     0.26410   0.90188   0.56434   0.01267  Uiso   1.00
N21    N     0.68470   0.97354   0.31086   0.01267  Uiso   1.00
N22    N     0.56980   0.11559   0.32821   0.01267  Uiso   1.00
N23    N     0.63970   0.96117   0.49907   0.01267  Uiso   1.00
N24    N     0.79400   0.90486   0.52094   0.01267  Uiso   1.00
N25    N     0.46570   0.98062   0.38670   0.01267  Uiso   1.00
N26    N     0.38650   0.95808   0.26626   0.01267  Uiso   1.00
N27    N     0.50990   0.10575   0.51303   0.01267  Uiso   1.00
N28    N     0.48090   0.23139   0.54043   0.01267  Uiso   1.00
N29    N     0.22800   0.87211   0.48689   0.01267  Uiso   1.00
N30    N     0.14470   0.85132   0.55168   0.01267  Uiso   1.00
N31    N     0.30700   0.15291   0.33789   0.01267  Uiso   1.00
N32    N     0.33590   0.46091   0.30889   0.01267  Uiso   1.00
N33    N     0.68460   0.54303   0.02025   0.01267  Uiso   1.00
N34    N     0.51050   0.65224   0.99742   0.01267  Uiso   1.00
N35    N     0.55610   0.52915   0.87683   0.01267  Uiso   1.00
N36    N     0.26410   0.43566   0.09812   0.01267  Uiso   1.00
N37    N     0.68470   0.68914   0.02646   0.01267  Uiso   1.00
N38    N     0.56980   0.67179   0.88441   0.01267  Uiso   1.00
N39    N     0.63970   0.50093   0.03883   0.01267  Uiso   1.00
N40    N     0.79400   0.47906   0.09514   0.01267  Uiso   1.00
N41    N     0.46570   0.61330   0.01938   0.01267  Uiso   1.00
N42    N     0.38650   0.73374   0.04192   0.01267  Uiso   1.00
N43    N     0.50990   0.48697   0.89425   0.01267  Uiso   1.00
N44    N     0.48090   0.45957   0.76861   0.01267  Uiso   1.00
N45    N     0.22800   0.51311   0.12789   0.01267  Uiso   1.00
N46    N     0.14470   0.44832   0.14868   0.01267  Uiso   1.00
N47    N     0.30700   0.66211   0.84709   0.01267  Uiso   1.00
N48    N     0.33590   0.69111   0.53909   0.01267  Uiso   1.00
N49    N     0.31540   0.02025   0.54303   0.01267  Uiso   1.00
N50    N     0.48950   0.99742   0.65224   0.01267  Uiso   1.00
N51    N     0.44390   0.87683   0.52915   0.01267  Uiso   1.00
N52    N     0.73590   0.09812   0.43566   0.01267  Uiso   1.00
N53    N     0.31530   0.02646   0.68914   0.01267  Uiso   1.00
N54    N     0.43020   0.88441   0.67179   0.01267  Uiso   1.00
N55    N     0.36030   0.03883   0.50093   0.01267  Uiso   1.00
N56    N     0.20600   0.09514   0.47906   0.01267  Uiso   1.00
N57    N     0.53430   0.01938   0.61330   0.01267  Uiso   1.00
N58    N     0.61350   0.04192   0.73374   0.01267  Uiso   1.00
N59    N     0.49010   0.89425   0.48697   0.01267  Uiso   1.00
N60    N     0.51910   0.76861   0.45957   0.01267  Uiso   1.00
N61    N     0.77200   0.12789   0.51311   0.01267  Uiso   1.00
N62    N     0.85530   0.14868   0.44832   0.01267  Uiso   1.00
N63    N     0.69300   0.84709   0.66211   0.01267  Uiso   1.00
N64    N     0.66410   0.53909   0.69111   0.01267  Uiso   1.00
