data_VEQBOJ_charged
_audit_creation_date              2014-07-02
_audit_creation_method            'Materials Studio'
_symmetry_space_group_name_H-M    'P1'
_symmetry_Int_Tables_number       1
_symmetry_cell_setting            triclinic
loop_
_symmetry_equiv_pos_as_xyz
  x,y,z
_cell_length_a                    10.5470
_cell_length_b                    22.6510
_cell_length_c                    24.6270
_cell_angle_alpha                 90.0000
_cell_angle_beta                  98.1680
_cell_angle_gamma                 90.0000
loop_
_atom_site_label
_atom_site_type_symbol
_atom_site_fract_x
_atom_site_fract_y
_atom_site_fract_z
_atom_site_U_iso_or_equiv
_atom_site_adp_type
_atom_site_occupancy
Ba1    Ba    0.93712   0.28993   0.99703   0.01267  Uiso   1.00
Ba2    Ba    0.76689   0.25036   0.53439   0.01267  Uiso   1.00
Ba3    Ba    0.56288   0.78993   0.00297   0.01267  Uiso   1.00
Ba4    Ba    0.73311   0.75036   0.46561   0.01267  Uiso   1.00
Ba5    Ba    0.06288   0.71007   0.00297   0.01267  Uiso   1.00
Ba6    Ba    0.23311   0.74964   0.46561   0.01267  Uiso   1.00
Ba7    Ba    0.43712   0.21007   0.99703   0.01267  Uiso   1.00
Ba8    Ba    0.26689   0.24964   0.53439   0.01267  Uiso   1.00
Dy1    Dy    0.66906   0.49256   0.25697   0.01267  Uiso   1.00
Dy2    Dy    0.83094   0.99256   0.74303   0.01267  Uiso   1.00
Dy3    Dy    0.33094   0.50744   0.74303   0.01267  Uiso   1.00
Dy4    Dy    0.16906   0.00744   0.25697   0.01267  Uiso   1.00
H1     H     0.34440   0.40380   0.24610   0.01267  Uiso   1.00
H2     H     0.25250   0.32500   0.19400   0.01267  Uiso   1.00
H3     H     0.35660   0.40080   0.05890   0.01267  Uiso   1.00
H4     H     0.32200   0.52720   0.05350   0.01267  Uiso   1.00
H5     H     0.65000   0.62010   0.05040   0.01267  Uiso   1.00
H6     H     0.75310   0.55810   0.11850   0.01267  Uiso   1.00
H7     H     0.16640   0.08240   0.76920   0.01267  Uiso   1.00
H8     H     0.26040   0.15190   0.83240   0.01267  Uiso   1.00
H9     H     0.91480   0.23130   0.82750   0.01267  Uiso   1.00
H10    H     0.80580   0.24590   0.71900   0.01267  Uiso   1.00
H11    H     0.45640   0.17440   0.67150   0.01267  Uiso   1.00
H12    H     0.51720   0.09310   0.72630   0.01267  Uiso   1.00
H13    H     0.12020   0.03010   0.65820   0.01267  Uiso   1.00
H14    H     0.15520   0.09030   0.58610   0.01267  Uiso   1.00
H15    H     0.79930   0.05170   0.50980   0.01267  Uiso   1.00
H16    H     0.72880   0.93380   0.51400   0.01267  Uiso   1.00
H17    H     0.40170   0.91630   0.58000   0.01267  Uiso   1.00
H18    H     0.48510   0.97940   0.65030   0.01267  Uiso   1.00
H19    H     0.15560   0.90380   0.75390   0.01267  Uiso   1.00
H20    H     0.24750   0.82500   0.80600   0.01267  Uiso   1.00
H21    H     0.14340   0.90080   0.94110   0.01267  Uiso   1.00
H22    H     0.17800   0.02720   0.94650   0.01267  Uiso   1.00
H23    H     0.85000   0.12010   0.94960   0.01267  Uiso   1.00
H24    H     0.74690   0.05810   0.88150   0.01267  Uiso   1.00
H25    H     0.33360   0.58240   0.23080   0.01267  Uiso   1.00
H26    H     0.23960   0.65190   0.16760   0.01267  Uiso   1.00
H27    H     0.58520   0.73130   0.17250   0.01267  Uiso   1.00
H28    H     0.69420   0.74590   0.28100   0.01267  Uiso   1.00
H29    H     0.04360   0.67440   0.32850   0.01267  Uiso   1.00
H30    H     0.98280   0.59310   0.27370   0.01267  Uiso   1.00
H31    H     0.37980   0.53010   0.34180   0.01267  Uiso   1.00
H32    H     0.34480   0.59030   0.41390   0.01267  Uiso   1.00
H33    H     0.70070   0.55170   0.49020   0.01267  Uiso   1.00
H34    H     0.77120   0.43380   0.48600   0.01267  Uiso   1.00
H35    H     0.09830   0.41630   0.42000   0.01267  Uiso   1.00
H36    H     0.01490   0.47940   0.34970   0.01267  Uiso   1.00
H37    H     0.65560   0.59620   0.75390   0.01267  Uiso   1.00
H38    H     0.74750   0.67500   0.80600   0.01267  Uiso   1.00
H39    H     0.64340   0.59920   0.94110   0.01267  Uiso   1.00
H40    H     0.67800   0.47280   0.94650   0.01267  Uiso   1.00
H41    H     0.35000   0.37990   0.94960   0.01267  Uiso   1.00
H42    H     0.24690   0.44190   0.88150   0.01267  Uiso   1.00
H43    H     0.83360   0.91760   0.23080   0.01267  Uiso   1.00
H44    H     0.73960   0.84810   0.16760   0.01267  Uiso   1.00
H45    H     0.08520   0.76870   0.17250   0.01267  Uiso   1.00
H46    H     0.19420   0.75410   0.28100   0.01267  Uiso   1.00
H47    H     0.54360   0.82560   0.32850   0.01267  Uiso   1.00
H48    H     0.48280   0.90690   0.27370   0.01267  Uiso   1.00
H49    H     0.87980   0.96990   0.34180   0.01267  Uiso   1.00
H50    H     0.84480   0.90970   0.41390   0.01267  Uiso   1.00
H51    H     0.20070   0.94830   0.49020   0.01267  Uiso   1.00
H52    H     0.27120   0.06620   0.48600   0.01267  Uiso   1.00
H53    H     0.59830   0.08370   0.42000   0.01267  Uiso   1.00
H54    H     0.51490   0.02060   0.34970   0.01267  Uiso   1.00
H55    H     0.84440   0.09620   0.24610   0.01267  Uiso   1.00
H56    H     0.75250   0.17500   0.19400   0.01267  Uiso   1.00
H57    H     0.85660   0.09920   0.05890   0.01267  Uiso   1.00
H58    H     0.82200   0.97280   0.05350   0.01267  Uiso   1.00
H59    H     0.15000   0.87990   0.05040   0.01267  Uiso   1.00
H60    H     0.25310   0.94190   0.11850   0.01267  Uiso   1.00
H61    H     0.66640   0.41760   0.76920   0.01267  Uiso   1.00
H62    H     0.76040   0.34810   0.83240   0.01267  Uiso   1.00
H63    H     0.41480   0.26870   0.82750   0.01267  Uiso   1.00
H64    H     0.30580   0.25410   0.71900   0.01267  Uiso   1.00
H65    H     0.95640   0.32560   0.67150   0.01267  Uiso   1.00
H66    H     0.01720   0.40690   0.72630   0.01267  Uiso   1.00
H67    H     0.62020   0.46990   0.65820   0.01267  Uiso   1.00
H68    H     0.65520   0.40970   0.58610   0.01267  Uiso   1.00
H69    H     0.29930   0.44830   0.50980   0.01267  Uiso   1.00
H70    H     0.22880   0.56620   0.51400   0.01267  Uiso   1.00
H71    H     0.90170   0.58370   0.58000   0.01267  Uiso   1.00
H72    H     0.98510   0.52060   0.65030   0.01267  Uiso   1.00
C1     C     0.34760   0.40270   0.20780   0.01267  Uiso   1.00
C2     C     0.29280   0.35610   0.17700   0.01267  Uiso   1.00
C3     C     0.29700   0.35510   0.12126   0.01267  Uiso   1.00
C4     C     0.35540   0.40070   0.09737   0.01267  Uiso   1.00
C5     C     0.41210   0.44610   0.12904   0.01267  Uiso   1.00
C6     C     0.47460   0.49724   0.10630   0.01267  Uiso   1.00
C7     C     0.41010   0.53360   0.06640   0.01267  Uiso   1.00
C8     C     0.47660   0.58020   0.04539   0.01267  Uiso   1.00
C9     C     0.60420   0.58890   0.06460   0.01267  Uiso   1.00
C10    C     0.66530   0.55180   0.10480   0.01267  Uiso   1.00
C11    C     0.11570   0.11300   0.78140   0.01267  Uiso   1.00
C12    C     0.17180   0.15430   0.81850   0.01267  Uiso   1.00
C13    C     0.09720   0.19940   0.83526   0.01267  Uiso   1.00
C14    C     0.96730   0.20110   0.81571   0.01267  Uiso   1.00
C15    C     0.91440   0.15832   0.77874   0.01267  Uiso   1.00
C16    C     0.78230   0.16414   0.74987   0.01267  Uiso   1.00
C17    C     0.74710   0.21407   0.71919   0.01267  Uiso   1.00
C18    C     0.62740   0.21780   0.68885   0.01267  Uiso   1.00
C19    C     0.54020   0.17220   0.69160   0.01267  Uiso   1.00
C20    C     0.57680   0.12400   0.72350   0.01267  Uiso   1.00
C21    C     0.05520   0.03460   0.62760   0.01267  Uiso   1.00
C22    C     0.07570   0.07040   0.58520   0.01267  Uiso   1.00
C23    C     0.97980   0.07788   0.54050   0.01267  Uiso   1.00
C24    C     0.86530   0.04780   0.54011   0.01267  Uiso   1.00
C25    C     0.84760   0.01223   0.58389   0.01267  Uiso   1.00
C26    C     0.72620   0.98010   0.58420   0.01267  Uiso   1.00
C27    C     0.67840   0.94270   0.54200   0.01267  Uiso   1.00
C28    C     0.55830   0.91830   0.54000   0.01267  Uiso   1.00
C29    C     0.48520   0.93230   0.58080   0.01267  Uiso   1.00
C30    C     0.53500   0.96950   0.62240   0.01267  Uiso   1.00
C31    C     0.15240   0.90270   0.79220   0.01267  Uiso   1.00
C32    C     0.20720   0.85610   0.82300   0.01267  Uiso   1.00
C33    C     0.20300   0.85510   0.87874   0.01267  Uiso   1.00
C34    C     0.14460   0.90070   0.90263   0.01267  Uiso   1.00
C35    C     0.08790   0.94610   0.87096   0.01267  Uiso   1.00
C36    C     0.02540   0.99724   0.89370   0.01267  Uiso   1.00
C37    C     0.08990   0.03360   0.93360   0.01267  Uiso   1.00
C38    C     0.02340   0.08020   0.95461   0.01267  Uiso   1.00
C39    C     0.89580   0.08890   0.93540   0.01267  Uiso   1.00
C40    C     0.83470   0.05180   0.89520   0.01267  Uiso   1.00
C41    C     0.38430   0.61300   0.21860   0.01267  Uiso   1.00
C42    C     0.32820   0.65430   0.18150   0.01267  Uiso   1.00
C43    C     0.40280   0.69940   0.16474   0.01267  Uiso   1.00
C44    C     0.53270   0.70110   0.18429   0.01267  Uiso   1.00
C45    C     0.58560   0.65832   0.22126   0.01267  Uiso   1.00
C46    C     0.71770   0.66414   0.25013   0.01267  Uiso   1.00
C47    C     0.75290   0.71407   0.28081   0.01267  Uiso   1.00
C48    C     0.87260   0.71780   0.31115   0.01267  Uiso   1.00
C49    C     0.95980   0.67220   0.30840   0.01267  Uiso   1.00
C50    C     0.92320   0.62400   0.27650   0.01267  Uiso   1.00
C51    C     0.44480   0.53460   0.37240   0.01267  Uiso   1.00
C52    C     0.42430   0.57040   0.41480   0.01267  Uiso   1.00
C53    C     0.52020   0.57788   0.45950   0.01267  Uiso   1.00
C54    C     0.63470   0.54780   0.45989   0.01267  Uiso   1.00
C55    C     0.65240   0.51223   0.41611   0.01267  Uiso   1.00
C56    C     0.77380   0.48010   0.41580   0.01267  Uiso   1.00
C57    C     0.82160   0.44270   0.45800   0.01267  Uiso   1.00
C58    C     0.94170   0.41830   0.46000   0.01267  Uiso   1.00
C59    C     0.01480   0.43230   0.41920   0.01267  Uiso   1.00
C60    C     0.96500   0.46950   0.37760   0.01267  Uiso   1.00
C61    C     0.65240   0.59730   0.79220   0.01267  Uiso   1.00
C62    C     0.70720   0.64390   0.82300   0.01267  Uiso   1.00
C63    C     0.70300   0.64490   0.87874   0.01267  Uiso   1.00
C64    C     0.64460   0.59930   0.90263   0.01267  Uiso   1.00
C65    C     0.58790   0.55390   0.87096   0.01267  Uiso   1.00
C66    C     0.52540   0.50276   0.89370   0.01267  Uiso   1.00
C67    C     0.58990   0.46640   0.93360   0.01267  Uiso   1.00
C68    C     0.52340   0.41980   0.95461   0.01267  Uiso   1.00
C69    C     0.39580   0.41110   0.93540   0.01267  Uiso   1.00
C70    C     0.33470   0.44820   0.89520   0.01267  Uiso   1.00
C71    C     0.88430   0.88700   0.21860   0.01267  Uiso   1.00
C72    C     0.82820   0.84570   0.18150   0.01267  Uiso   1.00
C73    C     0.90280   0.80060   0.16474   0.01267  Uiso   1.00
C74    C     0.03270   0.79890   0.18429   0.01267  Uiso   1.00
C75    C     0.08560   0.84168   0.22126   0.01267  Uiso   1.00
C76    C     0.21770   0.83586   0.25013   0.01267  Uiso   1.00
C77    C     0.25290   0.78593   0.28081   0.01267  Uiso   1.00
C78    C     0.37260   0.78220   0.31115   0.01267  Uiso   1.00
C79    C     0.45980   0.82780   0.30840   0.01267  Uiso   1.00
C80    C     0.42320   0.87600   0.27650   0.01267  Uiso   1.00
C81    C     0.94480   0.96540   0.37240   0.01267  Uiso   1.00
C82    C     0.92430   0.92960   0.41480   0.01267  Uiso   1.00
C83    C     0.02020   0.92212   0.45950   0.01267  Uiso   1.00
C84    C     0.13470   0.95220   0.45989   0.01267  Uiso   1.00
C85    C     0.15240   0.98777   0.41611   0.01267  Uiso   1.00
C86    C     0.27380   0.01990   0.41580   0.01267  Uiso   1.00
C87    C     0.32160   0.05730   0.45800   0.01267  Uiso   1.00
C88    C     0.44170   0.08170   0.46000   0.01267  Uiso   1.00
C89    C     0.51480   0.06770   0.41920   0.01267  Uiso   1.00
C90    C     0.46500   0.03050   0.37760   0.01267  Uiso   1.00
C91    C     0.84760   0.09730   0.20780   0.01267  Uiso   1.00
C92    C     0.79280   0.14390   0.17700   0.01267  Uiso   1.00
C93    C     0.79700   0.14490   0.12126   0.01267  Uiso   1.00
C94    C     0.85540   0.09930   0.09737   0.01267  Uiso   1.00
C95    C     0.91210   0.05390   0.12904   0.01267  Uiso   1.00
C96    C     0.97460   0.00276   0.10630   0.01267  Uiso   1.00
C97    C     0.91010   0.96640   0.06640   0.01267  Uiso   1.00
C98    C     0.97660   0.91980   0.04539   0.01267  Uiso   1.00
C99    C     0.10420   0.91110   0.06460   0.01267  Uiso   1.00
C100   C     0.16530   0.94820   0.10480   0.01267  Uiso   1.00
C101   C     0.61570   0.38700   0.78140   0.01267  Uiso   1.00
C102   C     0.67180   0.34570   0.81850   0.01267  Uiso   1.00
C103   C     0.59720   0.30060   0.83526   0.01267  Uiso   1.00
C104   C     0.46730   0.29890   0.81571   0.01267  Uiso   1.00
C105   C     0.41440   0.34168   0.77874   0.01267  Uiso   1.00
C106   C     0.28230   0.33586   0.74987   0.01267  Uiso   1.00
C107   C     0.24710   0.28593   0.71919   0.01267  Uiso   1.00
C108   C     0.12740   0.28220   0.68885   0.01267  Uiso   1.00
C109   C     0.04020   0.32780   0.69160   0.01267  Uiso   1.00
C110   C     0.07680   0.37600   0.72350   0.01267  Uiso   1.00
C111   C     0.55520   0.46540   0.62760   0.01267  Uiso   1.00
C112   C     0.57570   0.42960   0.58520   0.01267  Uiso   1.00
C113   C     0.47980   0.42212   0.54050   0.01267  Uiso   1.00
C114   C     0.36530   0.45220   0.54011   0.01267  Uiso   1.00
C115   C     0.34760   0.48777   0.58389   0.01267  Uiso   1.00
C116   C     0.22620   0.51990   0.58420   0.01267  Uiso   1.00
C117   C     0.17840   0.55730   0.54200   0.01267  Uiso   1.00
C118   C     0.05830   0.58170   0.54000   0.01267  Uiso   1.00
C119   C     0.98520   0.56770   0.58080   0.01267  Uiso   1.00
C120   C     0.03500   0.53050   0.62240   0.01267  Uiso   1.00
S1     S     0.23379   0.29337   0.08197   0.01267  Uiso   1.00
S2     S     0.39210   0.62670   0.99430   0.01267  Uiso   1.00
S3     S     0.16133   0.25706   0.88003   0.01267  Uiso   1.00
S4     S     0.59292   0.27928   0.64391   0.01267  Uiso   1.00
S5     S     0.99426   0.12663   0.48488   0.01267  Uiso   1.00
S6     S     0.49821   0.87167   0.48424   0.01267  Uiso   1.00
S7     S     0.26621   0.79337   0.91803   0.01267  Uiso   1.00
S8     S     0.10790   0.12670   0.00570   0.01267  Uiso   1.00
S9     S     0.33867   0.75706   0.11997   0.01267  Uiso   1.00
S10    S     0.90708   0.77928   0.35609   0.01267  Uiso   1.00
S11    S     0.50574   0.62663   0.51512   0.01267  Uiso   1.00
S12    S     0.00179   0.37167   0.51576   0.01267  Uiso   1.00
S13    S     0.76621   0.70663   0.91803   0.01267  Uiso   1.00
S14    S     0.60790   0.37330   0.00570   0.01267  Uiso   1.00
S15    S     0.83867   0.74294   0.11997   0.01267  Uiso   1.00
S16    S     0.40708   0.72072   0.35609   0.01267  Uiso   1.00
S17    S     0.00574   0.87337   0.51512   0.01267  Uiso   1.00
S18    S     0.50179   0.12833   0.51576   0.01267  Uiso   1.00
S19    S     0.73379   0.20663   0.08197   0.01267  Uiso   1.00
S20    S     0.89210   0.87330   0.99430   0.01267  Uiso   1.00
S21    S     0.66133   0.24294   0.88003   0.01267  Uiso   1.00
S22    S     0.09292   0.22072   0.64391   0.01267  Uiso   1.00
S23    S     0.49426   0.37337   0.48488   0.01267  Uiso   1.00
S24    S     0.99821   0.62833   0.48424   0.01267  Uiso   1.00
N1     N     0.40540   0.44634   0.18390   0.01267  Uiso   1.00
N2     N     0.60140   0.50686   0.12475   0.01267  Uiso   1.00
N3     N     0.99020   0.11571   0.76247   0.01267  Uiso   1.00
N4     N     0.69620   0.11991   0.75084   0.01267  Uiso   1.00
N5     N     0.94270   0.00543   0.62631   0.01267  Uiso   1.00
N6     N     0.65380   0.99245   0.62427   0.01267  Uiso   1.00
N7     N     0.09460   0.94634   0.81610   0.01267  Uiso   1.00
N8     N     0.89860   0.00686   0.87525   0.01267  Uiso   1.00
N9     N     0.50980   0.61571   0.23753   0.01267  Uiso   1.00
N10    N     0.80380   0.61991   0.24916   0.01267  Uiso   1.00
N11    N     0.55730   0.50543   0.37369   0.01267  Uiso   1.00
N12    N     0.84620   0.49245   0.37573   0.01267  Uiso   1.00
N13    N     0.59460   0.55366   0.81610   0.01267  Uiso   1.00
N14    N     0.39860   0.49314   0.87525   0.01267  Uiso   1.00
N15    N     0.00980   0.88429   0.23753   0.01267  Uiso   1.00
N16    N     0.30380   0.88009   0.24916   0.01267  Uiso   1.00
N17    N     0.05730   0.99457   0.37369   0.01267  Uiso   1.00
N18    N     0.34620   0.00755   0.37573   0.01267  Uiso   1.00
N19    N     0.90540   0.05366   0.18390   0.01267  Uiso   1.00
N20    N     0.10140   0.99314   0.12475   0.01267  Uiso   1.00
N21    N     0.49020   0.38429   0.76247   0.01267  Uiso   1.00
N22    N     0.19620   0.38009   0.75084   0.01267  Uiso   1.00
N23    N     0.44270   0.49457   0.62631   0.01267  Uiso   1.00
N24    N     0.15380   0.50755   0.62427   0.01267  Uiso   1.00
O1     O     0.45620   0.49067   0.21432   0.01267  Uiso   1.00
O2     O     0.66290   0.47126   0.16227   0.01267  Uiso   1.00
O3     O     0.93880   0.07839   0.72375   0.01267  Uiso   1.00
O4     O     0.72940   0.07131   0.78017   0.01267  Uiso   1.00
O5     O     0.92780   0.96730   0.66604   0.01267  Uiso   1.00
O6     O     0.69820   0.02894   0.66398   0.01267  Uiso   1.00
O7     O     0.21200   0.31330   0.02556   0.01267  Uiso   1.00
O8     O     0.11650   0.27839   0.10294   0.01267  Uiso   1.00
O9     O     0.32960   0.24776   0.09160   0.01267  Uiso   1.00
O10    O     0.35930   0.58911   0.94705   0.01267  Uiso   1.00
O11    O     0.28190   0.64611   0.01784   0.01267  Uiso   1.00
O12    O     0.48230   0.67290   0.98587   0.01267  Uiso   1.00
O13    O     0.08190   0.25694   0.92294   0.01267  Uiso   1.00
O14    O     0.29400   0.24093   0.89867   0.01267  Uiso   1.00
O15    O     0.14940   0.30991   0.84748   0.01267  Uiso   1.00
O16    O     0.52050   0.31962   0.67243   0.01267  Uiso   1.00
O17    O     0.71760   0.30194   0.63512   0.01267  Uiso   1.00
O18    O     0.52240   0.25538   0.59391   0.01267  Uiso   1.00
O19    O     0.88720   0.16656   0.48348   0.01267  Uiso   1.00
O20    O     0.11670   0.15471   0.49836   0.01267  Uiso   1.00
O21    O     0.98600   0.08993   0.43662   0.01267  Uiso   1.00
O22    O     0.40790   0.90880   0.44980   0.01267  Uiso   1.00
O23    O     0.60540   0.85790   0.45710   0.01267  Uiso   1.00
O24    O     0.43620   0.82410   0.50750   0.01267  Uiso   1.00
O25    O     0.78710   0.15904   0.60761   0.01267  Uiso   1.00
O26    O     0.87250   0.44694   0.25122   0.01267  Uiso   1.00
O27    O     0.63500   0.38874   0.25538   0.01267  Uiso   1.00
O28    O     0.99450   0.38180   0.92030   0.01267  Uiso   1.00
O29    O     0.93330   0.39460   0.07180   0.01267  Uiso   1.00
O30    O     0.74840   0.26320   0.41960   0.01267  Uiso   1.00
O31    O     0.04380   0.99067   0.78568   0.01267  Uiso   1.00
O32    O     0.83710   0.97126   0.83773   0.01267  Uiso   1.00
O33    O     0.56120   0.57839   0.27625   0.01267  Uiso   1.00
O34    O     0.77060   0.57131   0.21983   0.01267  Uiso   1.00
O35    O     0.57220   0.46730   0.33396   0.01267  Uiso   1.00
O36    O     0.80180   0.52894   0.33602   0.01267  Uiso   1.00
O37    O     0.28800   0.81330   0.97444   0.01267  Uiso   1.00
O38    O     0.38350   0.77839   0.89706   0.01267  Uiso   1.00
O39    O     0.17040   0.74776   0.90840   0.01267  Uiso   1.00
O40    O     0.14070   0.08911   0.05295   0.01267  Uiso   1.00
O41    O     0.21810   0.14611   0.98216   0.01267  Uiso   1.00
O42    O     0.01770   0.17290   0.01413   0.01267  Uiso   1.00
O43    O     0.41810   0.75694   0.07706   0.01267  Uiso   1.00
O44    O     0.20600   0.74093   0.10133   0.01267  Uiso   1.00
O45    O     0.35060   0.80991   0.15252   0.01267  Uiso   1.00
O46    O     0.97950   0.81962   0.32757   0.01267  Uiso   1.00
O47    O     0.78240   0.80194   0.36488   0.01267  Uiso   1.00
O48    O     0.97760   0.75538   0.40609   0.01267  Uiso   1.00
O49    O     0.61280   0.66656   0.51652   0.01267  Uiso   1.00
O50    O     0.38330   0.65471   0.50164   0.01267  Uiso   1.00
O51    O     0.51400   0.58993   0.56338   0.01267  Uiso   1.00
O52    O     0.09210   0.40880   0.55020   0.01267  Uiso   1.00
O53    O     0.89460   0.35790   0.54290   0.01267  Uiso   1.00
O54    O     0.06380   0.32410   0.49250   0.01267  Uiso   1.00
O55    O     0.71290   0.65904   0.39239   0.01267  Uiso   1.00
O56    O     0.62750   0.94694   0.74878   0.01267  Uiso   1.00
O57    O     0.86500   0.88874   0.74462   0.01267  Uiso   1.00
O58    O     0.50550   0.88180   0.07970   0.01267  Uiso   1.00
O59    O     0.56670   0.89460   0.92820   0.01267  Uiso   1.00
O60    O     0.75160   0.76320   0.58040   0.01267  Uiso   1.00
O61    O     0.54380   0.50933   0.78568   0.01267  Uiso   1.00
O62    O     0.33710   0.52874   0.83773   0.01267  Uiso   1.00
O63    O     0.06120   0.92161   0.27625   0.01267  Uiso   1.00
O64    O     0.27060   0.92869   0.21983   0.01267  Uiso   1.00
O65    O     0.07220   0.03270   0.33396   0.01267  Uiso   1.00
O66    O     0.30180   0.97106   0.33602   0.01267  Uiso   1.00
O67    O     0.78800   0.68670   0.97444   0.01267  Uiso   1.00
O68    O     0.88350   0.72161   0.89706   0.01267  Uiso   1.00
O69    O     0.67040   0.75224   0.90840   0.01267  Uiso   1.00
O70    O     0.64070   0.41089   0.05295   0.01267  Uiso   1.00
O71    O     0.71810   0.35389   0.98216   0.01267  Uiso   1.00
O72    O     0.51770   0.32710   0.01413   0.01267  Uiso   1.00
O73    O     0.91810   0.74306   0.07706   0.01267  Uiso   1.00
O74    O     0.70600   0.75907   0.10133   0.01267  Uiso   1.00
O75    O     0.85060   0.69009   0.15252   0.01267  Uiso   1.00
O76    O     0.47950   0.68038   0.32757   0.01267  Uiso   1.00
O77    O     0.28240   0.69806   0.36488   0.01267  Uiso   1.00
O78    O     0.47760   0.74462   0.40609   0.01267  Uiso   1.00
O79    O     0.11280   0.83344   0.51652   0.01267  Uiso   1.00
O80    O     0.88330   0.84529   0.50164   0.01267  Uiso   1.00
O81    O     0.01400   0.91007   0.56338   0.01267  Uiso   1.00
O82    O     0.59210   0.09120   0.55020   0.01267  Uiso   1.00
O83    O     0.39460   0.14210   0.54290   0.01267  Uiso   1.00
O84    O     0.56380   0.17590   0.49250   0.01267  Uiso   1.00
O85    O     0.21290   0.84096   0.39239   0.01267  Uiso   1.00
O86    O     0.12750   0.55306   0.74878   0.01267  Uiso   1.00
O87    O     0.36500   0.61126   0.74462   0.01267  Uiso   1.00
O88    O     0.00550   0.61820   0.07970   0.01267  Uiso   1.00
O89    O     0.06670   0.60540   0.92820   0.01267  Uiso   1.00
O90    O     0.25160   0.73680   0.58040   0.01267  Uiso   1.00
O91    O     0.95620   0.00933   0.21432   0.01267  Uiso   1.00
O92    O     0.16290   0.02874   0.16227   0.01267  Uiso   1.00
O93    O     0.43880   0.42161   0.72375   0.01267  Uiso   1.00
O94    O     0.22940   0.42869   0.78017   0.01267  Uiso   1.00
O95    O     0.42780   0.53270   0.66604   0.01267  Uiso   1.00
O96    O     0.19820   0.47106   0.66398   0.01267  Uiso   1.00
O97    O     0.71200   0.18670   0.02556   0.01267  Uiso   1.00
O98    O     0.61650   0.22161   0.10294   0.01267  Uiso   1.00
O99    O     0.82960   0.25224   0.09160   0.01267  Uiso   1.00
O100   O     0.85930   0.91089   0.94705   0.01267  Uiso   1.00
O101   O     0.78190   0.85389   0.01784   0.01267  Uiso   1.00
O102   O     0.98230   0.82710   0.98587   0.01267  Uiso   1.00
O103   O     0.58190   0.24306   0.92294   0.01267  Uiso   1.00
O104   O     0.79400   0.25907   0.89867   0.01267  Uiso   1.00
O105   O     0.64940   0.19009   0.84748   0.01267  Uiso   1.00
O106   O     0.02050   0.18038   0.67243   0.01267  Uiso   1.00
O107   O     0.21760   0.19806   0.63512   0.01267  Uiso   1.00
O108   O     0.02240   0.24462   0.59391   0.01267  Uiso   1.00
O109   O     0.38720   0.33344   0.48348   0.01267  Uiso   1.00
O110   O     0.61670   0.34529   0.49836   0.01267  Uiso   1.00
O111   O     0.48600   0.41007   0.43662   0.01267  Uiso   1.00
O112   O     0.90790   0.59120   0.44980   0.01267  Uiso   1.00
O113   O     0.10540   0.64210   0.45710   0.01267  Uiso   1.00
O114   O     0.93620   0.67590   0.50750   0.01267  Uiso   1.00
O115   O     0.28710   0.34096   0.60761   0.01267  Uiso   1.00
O116   O     0.37250   0.05306   0.25122   0.01267  Uiso   1.00
O117   O     0.13500   0.11126   0.25538   0.01267  Uiso   1.00
O118   O     0.49450   0.11820   0.92030   0.01267  Uiso   1.00
O119   O     0.43330   0.10540   0.07180   0.01267  Uiso   1.00
O120   O     0.24840   0.23680   0.41960   0.01267  Uiso   1.00
Cl1    Cl    0.35468   0.00433   0.73672   0.01267  Uiso   1.00
Cl2    Cl    0.14532   0.50433   0.26328   0.01267  Uiso   1.00
Cl3    Cl    0.64532   0.99567   0.26328   0.01267  Uiso   1.00
Cl4    Cl    0.85468   0.49567   0.73672   0.01267  Uiso   1.00
