data_VEQCEA_charged
_audit_creation_date              2014-07-02
_audit_creation_method            'Materials Studio'
_symmetry_space_group_name_H-M    'P1'
_symmetry_Int_Tables_number       1
_symmetry_cell_setting            triclinic
loop_
_symmetry_equiv_pos_as_xyz
  x,y,z
_cell_length_a                    10.5110
_cell_length_b                    23.0160
_cell_length_c                    24.5790
_cell_angle_alpha                 90.0000
_cell_angle_beta                  98.6430
_cell_angle_gamma                 90.0000
loop_
_atom_site_label
_atom_site_type_symbol
_atom_site_fract_x
_atom_site_fract_y
_atom_site_fract_z
_atom_site_U_iso_or_equiv
_atom_site_adp_type
_atom_site_occupancy
Ba1    Ba    0.55729   0.78820   0.00168   0.01267  Uiso   1.00
Ba2    Ba    0.23436   0.74919   0.46960   0.01267  Uiso   1.00
Ba3    Ba    0.94271   0.28820   0.99832   0.01267  Uiso   1.00
Ba4    Ba    0.26564   0.24919   0.53040   0.01267  Uiso   1.00
Ba5    Ba    0.44271   0.21180   0.99832   0.01267  Uiso   1.00
Ba6    Ba    0.76564   0.25081   0.53040   0.01267  Uiso   1.00
Ba7    Ba    0.05729   0.71180   0.00168   0.01267  Uiso   1.00
Ba8    Ba    0.73436   0.75081   0.46960   0.01267  Uiso   1.00
Sm1    Sm    0.83236   0.99547   0.74288   0.01267  Uiso   1.00
Sm2    Sm    0.66764   0.49547   0.25712   0.01267  Uiso   1.00
Sm3    Sm    0.16764   0.00453   0.25712   0.01267  Uiso   1.00
Sm4    Sm    0.33236   0.50453   0.74288   0.01267  Uiso   1.00
H1     H     0.16260   0.91040   0.75570   0.01267  Uiso   1.00
H2     H     0.25210   0.83040   0.80740   0.01267  Uiso   1.00
H3     H     0.13870   0.90080   0.94230   0.01267  Uiso   1.00
H4     H     0.18070   0.02660   0.95060   0.01267  Uiso   1.00
H5     H     0.85550   0.12130   0.94930   0.01267  Uiso   1.00
H6     H     0.74850   0.05920   0.88330   0.01267  Uiso   1.00
H7     H     0.82920   0.91500   0.23000   0.01267  Uiso   1.00
H8     H     0.73570   0.84570   0.16780   0.01267  Uiso   1.00
H9     H     0.08220   0.76800   0.17410   0.01267  Uiso   1.00
H10    H     0.19010   0.75340   0.28340   0.01267  Uiso   1.00
H11    H     0.54230   0.82370   0.33310   0.01267  Uiso   1.00
H12    H     0.48160   0.90410   0.27740   0.01267  Uiso   1.00
H13    H     0.01390   0.48180   0.35210   0.01267  Uiso   1.00
H14    H     0.09660   0.41920   0.42150   0.01267  Uiso   1.00
H15    H     0.76640   0.43320   0.48630   0.01267  Uiso   1.00
H16    H     0.70210   0.55050   0.49320   0.01267  Uiso   1.00
H17    H     0.34830   0.59560   0.41720   0.01267  Uiso   1.00
H18    H     0.37810   0.53580   0.34350   0.01267  Uiso   1.00
H19    H     0.33740   0.41040   0.24430   0.01267  Uiso   1.00
H20    H     0.24790   0.33040   0.19260   0.01267  Uiso   1.00
H21    H     0.36130   0.40080   0.05770   0.01267  Uiso   1.00
H22    H     0.31930   0.52660   0.04940   0.01267  Uiso   1.00
H23    H     0.64450   0.62130   0.05070   0.01267  Uiso   1.00
H24    H     0.75150   0.55920   0.11670   0.01267  Uiso   1.00
H25    H     0.67080   0.41500   0.77000   0.01267  Uiso   1.00
H26    H     0.76430   0.34570   0.83220   0.01267  Uiso   1.00
H27    H     0.41780   0.26800   0.82590   0.01267  Uiso   1.00
H28    H     0.30990   0.25340   0.71660   0.01267  Uiso   1.00
H29    H     0.95770   0.32370   0.66690   0.01267  Uiso   1.00
H30    H     0.01840   0.40410   0.72260   0.01267  Uiso   1.00
H31    H     0.48610   0.98180   0.64790   0.01267  Uiso   1.00
H32    H     0.40340   0.91920   0.57850   0.01267  Uiso   1.00
H33    H     0.73360   0.93320   0.51370   0.01267  Uiso   1.00
H34    H     0.79790   0.05050   0.50680   0.01267  Uiso   1.00
H35    H     0.15170   0.09560   0.58280   0.01267  Uiso   1.00
H36    H     0.12190   0.03580   0.65650   0.01267  Uiso   1.00
H37    H     0.83740   0.08960   0.24430   0.01267  Uiso   1.00
H38    H     0.74790   0.16960   0.19260   0.01267  Uiso   1.00
H39    H     0.86130   0.09920   0.05770   0.01267  Uiso   1.00
H40    H     0.81930   0.97340   0.04940   0.01267  Uiso   1.00
H41    H     0.14450   0.87870   0.05070   0.01267  Uiso   1.00
H42    H     0.25150   0.94080   0.11670   0.01267  Uiso   1.00
H43    H     0.17080   0.08500   0.77000   0.01267  Uiso   1.00
H44    H     0.26430   0.15430   0.83220   0.01267  Uiso   1.00
H45    H     0.91780   0.23200   0.82590   0.01267  Uiso   1.00
H46    H     0.80990   0.24660   0.71660   0.01267  Uiso   1.00
H47    H     0.45770   0.17630   0.66690   0.01267  Uiso   1.00
H48    H     0.51840   0.09590   0.72260   0.01267  Uiso   1.00
H49    H     0.98610   0.51820   0.64790   0.01267  Uiso   1.00
H50    H     0.90340   0.58080   0.57850   0.01267  Uiso   1.00
H51    H     0.23360   0.56680   0.51370   0.01267  Uiso   1.00
H52    H     0.29790   0.44950   0.50680   0.01267  Uiso   1.00
H53    H     0.65170   0.40440   0.58280   0.01267  Uiso   1.00
H54    H     0.62190   0.46420   0.65650   0.01267  Uiso   1.00
H55    H     0.66260   0.58960   0.75570   0.01267  Uiso   1.00
H56    H     0.75210   0.66960   0.80740   0.01267  Uiso   1.00
H57    H     0.63870   0.59920   0.94230   0.01267  Uiso   1.00
H58    H     0.68070   0.47340   0.95060   0.01267  Uiso   1.00
H59    H     0.35550   0.37870   0.94930   0.01267  Uiso   1.00
H60    H     0.24850   0.44080   0.88330   0.01267  Uiso   1.00
H61    H     0.32920   0.58500   0.23000   0.01267  Uiso   1.00
H62    H     0.23570   0.65430   0.16780   0.01267  Uiso   1.00
H63    H     0.58220   0.73200   0.17410   0.01267  Uiso   1.00
H64    H     0.69010   0.74660   0.28340   0.01267  Uiso   1.00
H65    H     0.04230   0.67630   0.33310   0.01267  Uiso   1.00
H66    H     0.98160   0.59590   0.27740   0.01267  Uiso   1.00
H67    H     0.51390   0.01820   0.35210   0.01267  Uiso   1.00
H68    H     0.59660   0.08080   0.42150   0.01267  Uiso   1.00
H69    H     0.26640   0.06680   0.48630   0.01267  Uiso   1.00
H70    H     0.20210   0.94950   0.49320   0.01267  Uiso   1.00
H71    H     0.84830   0.90440   0.41720   0.01267  Uiso   1.00
H72    H     0.87810   0.96420   0.34350   0.01267  Uiso   1.00
C1     C     0.15730   0.90790   0.79380   0.01267  Uiso   1.00
C2     C     0.21010   0.86040   0.82430   0.01267  Uiso   1.00
C3     C     0.20040   0.85770   0.87950   0.01267  Uiso   1.00
C4     C     0.14240   0.90200   0.90390   0.01267  Uiso   1.00
C5     C     0.08990   0.94810   0.87300   0.01267  Uiso   1.00
C6     C     0.02880   0.99830   0.89630   0.01267  Uiso   1.00
C7     C     0.09300   0.03380   0.93630   0.01267  Uiso   1.00
C8     C     0.02730   0.08060   0.95600   0.01267  Uiso   1.00
C9     C     0.90020   0.08970   0.93600   0.01267  Uiso   1.00
C10    C     0.83710   0.05310   0.89670   0.01267  Uiso   1.00
C11    C     0.88040   0.88460   0.21860   0.01267  Uiso   1.00
C12    C     0.82490   0.84360   0.18180   0.01267  Uiso   1.00
C13    C     0.89850   0.79960   0.16510   0.01267  Uiso   1.00
C14    C     0.02970   0.79780   0.18560   0.01267  Uiso   1.00
C15    C     0.08280   0.83910   0.22250   0.01267  Uiso   1.00
C16    C     0.21550   0.83380   0.25250   0.01267  Uiso   1.00
C17    C     0.24930   0.78460   0.28350   0.01267  Uiso   1.00
C18    C     0.37110   0.78100   0.31490   0.01267  Uiso   1.00
C19    C     0.45840   0.82580   0.31250   0.01267  Uiso   1.00
C20    C     0.42190   0.87360   0.27970   0.01267  Uiso   1.00
C21    C     0.96370   0.47160   0.37970   0.01267  Uiso   1.00
C22    C     0.01220   0.43450   0.42050   0.01267  Uiso   1.00
C23    C     0.93900   0.41860   0.46080   0.01267  Uiso   1.00
C24    C     0.81780   0.44290   0.45900   0.01267  Uiso   1.00
C25    C     0.77230   0.48110   0.41770   0.01267  Uiso   1.00
C26    C     0.65160   0.51410   0.41890   0.01267  Uiso   1.00
C27    C     0.63560   0.54810   0.46250   0.01267  Uiso   1.00
C28    C     0.52240   0.57950   0.46250   0.01267  Uiso   1.00
C29    C     0.42630   0.57460   0.41800   0.01267  Uiso   1.00
C30    C     0.44400   0.53890   0.37440   0.01267  Uiso   1.00
C31    C     0.34270   0.40790   0.20620   0.01267  Uiso   1.00
C32    C     0.28990   0.36040   0.17570   0.01267  Uiso   1.00
C33    C     0.29960   0.35770   0.12050   0.01267  Uiso   1.00
C34    C     0.35760   0.40200   0.09610   0.01267  Uiso   1.00
C35    C     0.41010   0.44810   0.12700   0.01267  Uiso   1.00
C36    C     0.47120   0.49830   0.10370   0.01267  Uiso   1.00
C37    C     0.40700   0.53380   0.06370   0.01267  Uiso   1.00
C38    C     0.47270   0.58060   0.04400   0.01267  Uiso   1.00
C39    C     0.59980   0.58970   0.06400   0.01267  Uiso   1.00
C40    C     0.66290   0.55310   0.10330   0.01267  Uiso   1.00
C41    C     0.61960   0.38460   0.78140   0.01267  Uiso   1.00
C42    C     0.67510   0.34360   0.81820   0.01267  Uiso   1.00
C43    C     0.60150   0.29960   0.83490   0.01267  Uiso   1.00
C44    C     0.47030   0.29780   0.81440   0.01267  Uiso   1.00
C45    C     0.41720   0.33910   0.77750   0.01267  Uiso   1.00
C46    C     0.28450   0.33380   0.74750   0.01267  Uiso   1.00
C47    C     0.25070   0.28460   0.71650   0.01267  Uiso   1.00
C48    C     0.12890   0.28100   0.68510   0.01267  Uiso   1.00
C49    C     0.04160   0.32580   0.68750   0.01267  Uiso   1.00
C50    C     0.07810   0.37360   0.72030   0.01267  Uiso   1.00
C51    C     0.53630   0.97160   0.62030   0.01267  Uiso   1.00
C52    C     0.48780   0.93450   0.57950   0.01267  Uiso   1.00
C53    C     0.56100   0.91860   0.53920   0.01267  Uiso   1.00
C54    C     0.68220   0.94290   0.54100   0.01267  Uiso   1.00
C55    C     0.72770   0.98110   0.58230   0.01267  Uiso   1.00
C56    C     0.84840   0.01410   0.58110   0.01267  Uiso   1.00
C57    C     0.86440   0.04810   0.53750   0.01267  Uiso   1.00
C58    C     0.97760   0.07950   0.53750   0.01267  Uiso   1.00
C59    C     0.07370   0.07460   0.58200   0.01267  Uiso   1.00
C60    C     0.05600   0.03890   0.62560   0.01267  Uiso   1.00
C61    C     0.84270   0.09210   0.20620   0.01267  Uiso   1.00
C62    C     0.78990   0.13960   0.17570   0.01267  Uiso   1.00
C63    C     0.79960   0.14230   0.12050   0.01267  Uiso   1.00
C64    C     0.85760   0.09800   0.09610   0.01267  Uiso   1.00
C65    C     0.91010   0.05190   0.12700   0.01267  Uiso   1.00
C66    C     0.97120   0.00170   0.10370   0.01267  Uiso   1.00
C67    C     0.90700   0.96620   0.06370   0.01267  Uiso   1.00
C68    C     0.97270   0.91940   0.04400   0.01267  Uiso   1.00
C69    C     0.09980   0.91030   0.06400   0.01267  Uiso   1.00
C70    C     0.16290   0.94690   0.10330   0.01267  Uiso   1.00
C71    C     0.11960   0.11540   0.78140   0.01267  Uiso   1.00
C72    C     0.17510   0.15640   0.81820   0.01267  Uiso   1.00
C73    C     0.10150   0.20040   0.83490   0.01267  Uiso   1.00
C74    C     0.97030   0.20220   0.81440   0.01267  Uiso   1.00
C75    C     0.91720   0.16090   0.77750   0.01267  Uiso   1.00
C76    C     0.78450   0.16620   0.74750   0.01267  Uiso   1.00
C77    C     0.75070   0.21540   0.71650   0.01267  Uiso   1.00
C78    C     0.62890   0.21900   0.68510   0.01267  Uiso   1.00
C79    C     0.54160   0.17420   0.68750   0.01267  Uiso   1.00
C80    C     0.57810   0.12640   0.72030   0.01267  Uiso   1.00
C81    C     0.03630   0.52840   0.62030   0.01267  Uiso   1.00
C82    C     0.98780   0.56550   0.57950   0.01267  Uiso   1.00
C83    C     0.06100   0.58140   0.53920   0.01267  Uiso   1.00
C84    C     0.18220   0.55710   0.54100   0.01267  Uiso   1.00
C85    C     0.22770   0.51890   0.58230   0.01267  Uiso   1.00
C86    C     0.34840   0.48590   0.58110   0.01267  Uiso   1.00
C87    C     0.36440   0.45190   0.53750   0.01267  Uiso   1.00
C88    C     0.47760   0.42050   0.53750   0.01267  Uiso   1.00
C89    C     0.57370   0.42540   0.58200   0.01267  Uiso   1.00
C90    C     0.55600   0.46110   0.62560   0.01267  Uiso   1.00
C91    C     0.65730   0.59210   0.79380   0.01267  Uiso   1.00
C92    C     0.71010   0.63960   0.82430   0.01267  Uiso   1.00
C93    C     0.70040   0.64230   0.87950   0.01267  Uiso   1.00
C94    C     0.64240   0.59800   0.90390   0.01267  Uiso   1.00
C95    C     0.58990   0.55190   0.87300   0.01267  Uiso   1.00
C96    C     0.52880   0.50170   0.89630   0.01267  Uiso   1.00
C97    C     0.59300   0.46620   0.93630   0.01267  Uiso   1.00
C98    C     0.52730   0.41940   0.95600   0.01267  Uiso   1.00
C99    C     0.40020   0.41030   0.93600   0.01267  Uiso   1.00
C100   C     0.33710   0.44690   0.89670   0.01267  Uiso   1.00
C101   C     0.38040   0.61540   0.21860   0.01267  Uiso   1.00
C102   C     0.32490   0.65640   0.18180   0.01267  Uiso   1.00
C103   C     0.39850   0.70040   0.16510   0.01267  Uiso   1.00
C104   C     0.52970   0.70220   0.18560   0.01267  Uiso   1.00
C105   C     0.58280   0.66090   0.22250   0.01267  Uiso   1.00
C106   C     0.71550   0.66620   0.25250   0.01267  Uiso   1.00
C107   C     0.74930   0.71540   0.28350   0.01267  Uiso   1.00
C108   C     0.87110   0.71900   0.31490   0.01267  Uiso   1.00
C109   C     0.95840   0.67420   0.31250   0.01267  Uiso   1.00
C110   C     0.92190   0.62640   0.27970   0.01267  Uiso   1.00
C111   C     0.46370   0.02840   0.37970   0.01267  Uiso   1.00
C112   C     0.51220   0.06550   0.42050   0.01267  Uiso   1.00
C113   C     0.43900   0.08140   0.46080   0.01267  Uiso   1.00
C114   C     0.31780   0.05710   0.45900   0.01267  Uiso   1.00
C115   C     0.27230   0.01890   0.41770   0.01267  Uiso   1.00
C116   C     0.15160   0.98590   0.41890   0.01267  Uiso   1.00
C117   C     0.13560   0.95190   0.46250   0.01267  Uiso   1.00
C118   C     0.02240   0.92050   0.46250   0.01267  Uiso   1.00
C119   C     0.92630   0.92540   0.41800   0.01267  Uiso   1.00
C120   C     0.94400   0.96110   0.37440   0.01267  Uiso   1.00
S1     S     0.25801   0.79423   0.91751   0.01267  Uiso   1.00
S2     S     0.11330   0.12755   0.00664   0.01267  Uiso   1.00
S3     S     0.83452   0.74258   0.11974   0.01267  Uiso   1.00
S4     S     0.40530   0.72062   0.35943   0.01267  Uiso   1.00
S5     S     0.51254   0.62691   0.51911   0.01267  Uiso   1.00
S6     S     0.00013   0.37182   0.51625   0.01267  Uiso   1.00
S7     S     0.24199   0.29423   0.08249   0.01267  Uiso   1.00
S8     S     0.38670   0.62755   0.99336   0.01267  Uiso   1.00
S9     S     0.66548   0.24258   0.88026   0.01267  Uiso   1.00
S10    S     0.09470   0.22062   0.64057   0.01267  Uiso   1.00
S11    S     0.98746   0.12691   0.48089   0.01267  Uiso   1.00
S12    S     0.49987   0.87182   0.48375   0.01267  Uiso   1.00
S13    S     0.74199   0.20577   0.08249   0.01267  Uiso   1.00
S14    S     0.88670   0.87245   0.99336   0.01267  Uiso   1.00
S15    S     0.16548   0.25742   0.88026   0.01267  Uiso   1.00
S16    S     0.59470   0.27938   0.64057   0.01267  Uiso   1.00
S17    S     0.48746   0.37309   0.48089   0.01267  Uiso   1.00
S18    S     0.99987   0.62818   0.48375   0.01267  Uiso   1.00
S19    S     0.75801   0.70577   0.91751   0.01267  Uiso   1.00
S20    S     0.61330   0.37245   0.00664   0.01267  Uiso   1.00
S21    S     0.33452   0.75742   0.11974   0.01267  Uiso   1.00
S22    S     0.90530   0.77938   0.35943   0.01267  Uiso   1.00
S23    S     0.01254   0.87309   0.51911   0.01267  Uiso   1.00
S24    S     0.50013   0.12818   0.51625   0.01267  Uiso   1.00
N1     N     0.09860   0.95010   0.81880   0.01267  Uiso   1.00
N2     N     0.90050   0.00850   0.87700   0.01267  Uiso   1.00
N3     N     0.00680   0.88190   0.23840   0.01267  Uiso   1.00
N4     N     0.30180   0.87710   0.25090   0.01267  Uiso   1.00
N5     N     0.84550   0.49400   0.37820   0.01267  Uiso   1.00
N6     N     0.55390   0.50860   0.37550   0.01267  Uiso   1.00
N7     N     0.40140   0.45010   0.18120   0.01267  Uiso   1.00
N8     N     0.59950   0.50850   0.12300   0.01267  Uiso   1.00
N9     N     0.49320   0.38190   0.76160   0.01267  Uiso   1.00
N10    N     0.19820   0.37710   0.74910   0.01267  Uiso   1.00
N11    N     0.65450   0.99400   0.62180   0.01267  Uiso   1.00
N12    N     0.94610   0.00860   0.62450   0.01267  Uiso   1.00
N13    N     0.90140   0.04990   0.18120   0.01267  Uiso   1.00
N14    N     0.09950   0.99150   0.12300   0.01267  Uiso   1.00
N15    N     0.99320   0.11810   0.76160   0.01267  Uiso   1.00
N16    N     0.69820   0.12290   0.74910   0.01267  Uiso   1.00
N17    N     0.15450   0.50600   0.62180   0.01267  Uiso   1.00
N18    N     0.44610   0.49140   0.62450   0.01267  Uiso   1.00
N19    N     0.59860   0.54990   0.81880   0.01267  Uiso   1.00
N20    N     0.40050   0.49150   0.87700   0.01267  Uiso   1.00
N21    N     0.50680   0.61810   0.23840   0.01267  Uiso   1.00
N22    N     0.80180   0.62290   0.25090   0.01267  Uiso   1.00
N23    N     0.34550   0.00600   0.37820   0.01267  Uiso   1.00
N24    N     0.05390   0.99140   0.37550   0.01267  Uiso   1.00
O1     O     0.05010   0.99450   0.78891   0.01267  Uiso   1.00
O2     O     0.83870   0.97335   0.83934   0.01267  Uiso   1.00
O3     O     0.05780   0.91891   0.27690   0.01267  Uiso   1.00
O4     O     0.26960   0.92424   0.22063   0.01267  Uiso   1.00
O5     O     0.80110   0.53177   0.33883   0.01267  Uiso   1.00
O6     O     0.56700   0.47143   0.33567   0.01267  Uiso   1.00
O7     O     0.37390   0.77690   0.89650   0.01267  Uiso   1.00
O8     O     0.15520   0.75200   0.90710   0.01267  Uiso   1.00
O9     O     0.28350   0.81220   0.97470   0.01267  Uiso   1.00
O10    O     0.14710   0.09100   0.05504   0.01267  Uiso   1.00
O11    O     0.02230   0.17307   0.01470   0.01267  Uiso   1.00
O12    O     0.22400   0.14620   0.98310   0.01267  Uiso   1.00
O13    O     0.70240   0.75930   0.10060   0.01267  Uiso   1.00
O14    O     0.91430   0.74280   0.07720   0.01267  Uiso   1.00
O15    O     0.84650   0.69090   0.15250   0.01267  Uiso   1.00
O16    O     0.28020   0.69856   0.36859   0.01267  Uiso   1.00
O17    O     0.47720   0.68059   0.33024   0.01267  Uiso   1.00
O18    O     0.47780   0.74378   0.41013   0.01267  Uiso   1.00
O19    O     0.39030   0.65660   0.50570   0.01267  Uiso   1.00
O20    O     0.62330   0.66453   0.52208   0.01267  Uiso   1.00
O21    O     0.51820   0.58887   0.56659   0.01267  Uiso   1.00
O22    O     0.09250   0.40790   0.55080   0.01267  Uiso   1.00
O23    O     0.89120   0.35600   0.54190   0.01267  Uiso   1.00
O24    O     0.05940   0.32410   0.49150   0.01267  Uiso   1.00
O25    O     0.62290   0.95050   0.74650   0.01267  Uiso   1.00
O26    O     0.87050   0.89104   0.74601   0.01267  Uiso   1.00
O27    O     0.21200   0.83908   0.39612   0.01267  Uiso   1.00
O28    O     0.23520   0.72670   0.58180   0.01267  Uiso   1.00
O29    O     0.55810   0.88890   0.92380   0.01267  Uiso   1.00
O30    O     0.49700   0.87900   0.07760   0.01267  Uiso   1.00
O31    O     0.44990   0.49450   0.21109   0.01267  Uiso   1.00
O32    O     0.66130   0.47335   0.16066   0.01267  Uiso   1.00
O33    O     0.44220   0.41891   0.72310   0.01267  Uiso   1.00
O34    O     0.23040   0.42424   0.77937   0.01267  Uiso   1.00
O35    O     0.69890   0.03177   0.66117   0.01267  Uiso   1.00
O36    O     0.93300   0.97143   0.66433   0.01267  Uiso   1.00
O37    O     0.12610   0.27690   0.10350   0.01267  Uiso   1.00
O38    O     0.34480   0.25200   0.09290   0.01267  Uiso   1.00
O39    O     0.21650   0.31220   0.02530   0.01267  Uiso   1.00
O40    O     0.35290   0.59100   0.94496   0.01267  Uiso   1.00
O41    O     0.47770   0.67307   0.98530   0.01267  Uiso   1.00
O42    O     0.27600   0.64620   0.01690   0.01267  Uiso   1.00
O43    O     0.79760   0.25930   0.89940   0.01267  Uiso   1.00
O44    O     0.58570   0.24280   0.92280   0.01267  Uiso   1.00
O45    O     0.65350   0.19090   0.84750   0.01267  Uiso   1.00
O46    O     0.21980   0.19856   0.63141   0.01267  Uiso   1.00
O47    O     0.02280   0.18059   0.66976   0.01267  Uiso   1.00
O48    O     0.02220   0.24378   0.58987   0.01267  Uiso   1.00
O49    O     0.10970   0.15660   0.49430   0.01267  Uiso   1.00
O50    O     0.87670   0.16453   0.47792   0.01267  Uiso   1.00
O51    O     0.98180   0.08887   0.43341   0.01267  Uiso   1.00
O52    O     0.40750   0.90790   0.44920   0.01267  Uiso   1.00
O53    O     0.60880   0.85600   0.45810   0.01267  Uiso   1.00
O54    O     0.44060   0.82410   0.50850   0.01267  Uiso   1.00
O55    O     0.87710   0.45050   0.25350   0.01267  Uiso   1.00
O56    O     0.62950   0.39104   0.25399   0.01267  Uiso   1.00
O57    O     0.28800   0.33908   0.60388   0.01267  Uiso   1.00
O58    O     0.26480   0.22670   0.41820   0.01267  Uiso   1.00
O59    O     0.94190   0.38890   0.07620   0.01267  Uiso   1.00
O60    O     0.00300   0.37900   0.92240   0.01267  Uiso   1.00
O61    O     0.94990   0.00550   0.21109   0.01267  Uiso   1.00
O62    O     0.16130   0.02665   0.16066   0.01267  Uiso   1.00
O63    O     0.94220   0.08109   0.72310   0.01267  Uiso   1.00
O64    O     0.73040   0.07576   0.77937   0.01267  Uiso   1.00
O65    O     0.19890   0.46823   0.66117   0.01267  Uiso   1.00
O66    O     0.43300   0.52857   0.66433   0.01267  Uiso   1.00
O67    O     0.62610   0.22310   0.10350   0.01267  Uiso   1.00
O68    O     0.84480   0.24800   0.09290   0.01267  Uiso   1.00
O69    O     0.71650   0.18780   0.02530   0.01267  Uiso   1.00
O70    O     0.85290   0.90900   0.94496   0.01267  Uiso   1.00
O71    O     0.97770   0.82693   0.98530   0.01267  Uiso   1.00
O72    O     0.77600   0.85380   0.01690   0.01267  Uiso   1.00
O73    O     0.29760   0.24070   0.89940   0.01267  Uiso   1.00
O74    O     0.08570   0.25720   0.92280   0.01267  Uiso   1.00
O75    O     0.15350   0.30910   0.84750   0.01267  Uiso   1.00
O76    O     0.71980   0.30144   0.63141   0.01267  Uiso   1.00
O77    O     0.52280   0.31941   0.66976   0.01267  Uiso   1.00
O78    O     0.52220   0.25622   0.58987   0.01267  Uiso   1.00
O79    O     0.60970   0.34340   0.49430   0.01267  Uiso   1.00
O80    O     0.37670   0.33547   0.47792   0.01267  Uiso   1.00
O81    O     0.48180   0.41113   0.43341   0.01267  Uiso   1.00
O82    O     0.90750   0.59210   0.44920   0.01267  Uiso   1.00
O83    O     0.10880   0.64400   0.45810   0.01267  Uiso   1.00
O84    O     0.94060   0.67590   0.50850   0.01267  Uiso   1.00
O85    O     0.37710   0.04950   0.25350   0.01267  Uiso   1.00
O86    O     0.12950   0.10896   0.25399   0.01267  Uiso   1.00
O87    O     0.78800   0.16092   0.60388   0.01267  Uiso   1.00
O88    O     0.76480   0.27330   0.41820   0.01267  Uiso   1.00
O89    O     0.44190   0.11110   0.07620   0.01267  Uiso   1.00
O90    O     0.50300   0.12100   0.92240   0.01267  Uiso   1.00
O91    O     0.55010   0.50550   0.78891   0.01267  Uiso   1.00
O92    O     0.33870   0.52665   0.83934   0.01267  Uiso   1.00
O93    O     0.55780   0.58109   0.27690   0.01267  Uiso   1.00
O94    O     0.76960   0.57576   0.22063   0.01267  Uiso   1.00
O95    O     0.30110   0.96823   0.33883   0.01267  Uiso   1.00
O96    O     0.06700   0.02857   0.33567   0.01267  Uiso   1.00
O97    O     0.87390   0.72310   0.89650   0.01267  Uiso   1.00
O98    O     0.65520   0.74800   0.90710   0.01267  Uiso   1.00
O99    O     0.78350   0.68780   0.97470   0.01267  Uiso   1.00
O100   O     0.64710   0.40900   0.05504   0.01267  Uiso   1.00
O101   O     0.52230   0.32693   0.01470   0.01267  Uiso   1.00
O102   O     0.72400   0.35380   0.98310   0.01267  Uiso   1.00
O103   O     0.20240   0.74070   0.10060   0.01267  Uiso   1.00
O104   O     0.41430   0.75720   0.07720   0.01267  Uiso   1.00
O105   O     0.34650   0.80910   0.15250   0.01267  Uiso   1.00
O106   O     0.78020   0.80144   0.36859   0.01267  Uiso   1.00
O107   O     0.97720   0.81941   0.33024   0.01267  Uiso   1.00
O108   O     0.97780   0.75622   0.41013   0.01267  Uiso   1.00
O109   O     0.89030   0.84340   0.50570   0.01267  Uiso   1.00
O110   O     0.12330   0.83547   0.52208   0.01267  Uiso   1.00
O111   O     0.01820   0.91113   0.56659   0.01267  Uiso   1.00
O112   O     0.59250   0.09210   0.55080   0.01267  Uiso   1.00
O113   O     0.39120   0.14400   0.54190   0.01267  Uiso   1.00
O114   O     0.55940   0.17590   0.49150   0.01267  Uiso   1.00
O115   O     0.12290   0.54950   0.74650   0.01267  Uiso   1.00
O116   O     0.37050   0.60896   0.74601   0.01267  Uiso   1.00
O117   O     0.71200   0.66092   0.39612   0.01267  Uiso   1.00
O118   O     0.73520   0.77330   0.58180   0.01267  Uiso   1.00
O119   O     0.05810   0.61110   0.92380   0.01267  Uiso   1.00
O120   O     0.99700   0.62100   0.07760   0.01267  Uiso   1.00
Cl1    Cl    0.35413   0.01146   0.73425   0.01267  Uiso   1.00
Cl2    Cl    0.14587   0.51146   0.26575   0.01267  Uiso   1.00
Cl3    Cl    0.64587   0.98854   0.26575   0.01267  Uiso   1.00
Cl4    Cl    0.85413   0.48854   0.73425   0.01267  Uiso   1.00
