data_VEQCAW_charged
_audit_creation_date              2014-07-02
_audit_creation_method            'Materials Studio'
_symmetry_space_group_name_H-M    'P1'
_symmetry_Int_Tables_number       1
_symmetry_cell_setting            triclinic
loop_
_symmetry_equiv_pos_as_xyz
  x,y,z
_cell_length_a                    10.4980
_cell_length_b                    22.9950
_cell_length_c                    24.4230
_cell_angle_alpha                 90.0000
_cell_angle_beta                  98.5400
_cell_angle_gamma                 90.0000
loop_
_atom_site_label
_atom_site_type_symbol
_atom_site_fract_x
_atom_site_fract_y
_atom_site_fract_z
_atom_site_U_iso_or_equiv
_atom_site_adp_type
_atom_site_occupancy
Ba1    Ba    0.44365   0.78824   0.49961   0.01267  Uiso   1.00
Ba2    Ba    0.76636   0.74891   0.02942   0.01267  Uiso   1.00
Ba3    Ba    0.05635   0.28824   0.50039   0.01267  Uiso   1.00
Ba4    Ba    0.73364   0.24891   0.97058   0.01267  Uiso   1.00
Ba5    Ba    0.55635   0.21176   0.50039   0.01267  Uiso   1.00
Ba6    Ba    0.23364   0.25109   0.97058   0.01267  Uiso   1.00
Ba7    Ba    0.94365   0.71176   0.49961   0.01267  Uiso   1.00
Ba8    Ba    0.26636   0.75109   0.02942   0.01267  Uiso   1.00
Gd1    Gd    0.83222   0.00329   0.24314   0.01267  Uiso   1.00
Gd2    Gd    0.66778   0.50329   0.75686   0.01267  Uiso   1.00
Gd3    Gd    0.16778   0.99671   0.75686   0.01267  Uiso   1.00
Gd4    Gd    0.33222   0.49671   0.24314   0.01267  Uiso   1.00
H1     H     0.74830   0.93960   0.38370   0.01267  Uiso   1.00
H2     H     0.85670   0.87740   0.45060   0.01267  Uiso   1.00
H3     H     0.18150   0.97410   0.45140   0.01267  Uiso   1.00
H4     H     0.13950   0.09980   0.44290   0.01267  Uiso   1.00
H5     H     0.24850   0.16870   0.30510   0.01267  Uiso   1.00
H6     H     0.16150   0.08920   0.25410   0.01267  Uiso   1.00
H7     H     0.17260   0.91350   0.26880   0.01267  Uiso   1.00
H8     H     0.26550   0.84600   0.33300   0.01267  Uiso   1.00
H9     H     0.91980   0.76690   0.32660   0.01267  Uiso   1.00
H10    H     0.81010   0.75350   0.21640   0.01267  Uiso   1.00
H11    H     0.45860   0.82360   0.16680   0.01267  Uiso   1.00
H12    H     0.51710   0.90380   0.22350   0.01267  Uiso   1.00
H13    H     0.48610   0.01550   0.14890   0.01267  Uiso   1.00
H14    H     0.40150   0.08040   0.07970   0.01267  Uiso   1.00
H15    H     0.73410   0.06710   0.01400   0.01267  Uiso   1.00
H16    H     0.79660   0.94870   0.00680   0.01267  Uiso   1.00
H17    H     0.15390   0.90430   0.08330   0.01267  Uiso   1.00
H18    H     0.12270   0.96490   0.15690   0.01267  Uiso   1.00
H19    H     0.75170   0.43960   0.61630   0.01267  Uiso   1.00
H20    H     0.64330   0.37740   0.54940   0.01267  Uiso   1.00
H21    H     0.31850   0.47410   0.54860   0.01267  Uiso   1.00
H22    H     0.36050   0.59980   0.55710   0.01267  Uiso   1.00
H23    H     0.25150   0.66870   0.69490   0.01267  Uiso   1.00
H24    H     0.33850   0.58920   0.74590   0.01267  Uiso   1.00
H25    H     0.32740   0.41350   0.73120   0.01267  Uiso   1.00
H26    H     0.23450   0.34600   0.66700   0.01267  Uiso   1.00
H27    H     0.58020   0.26690   0.67340   0.01267  Uiso   1.00
H28    H     0.68990   0.25350   0.78360   0.01267  Uiso   1.00
H29    H     0.04140   0.32360   0.83320   0.01267  Uiso   1.00
H30    H     0.98290   0.40380   0.77650   0.01267  Uiso   1.00
H31    H     0.01390   0.51550   0.85110   0.01267  Uiso   1.00
H32    H     0.09850   0.58040   0.92030   0.01267  Uiso   1.00
H33    H     0.76590   0.56710   0.98600   0.01267  Uiso   1.00
H34    H     0.70340   0.44870   0.99320   0.01267  Uiso   1.00
H35    H     0.34610   0.40430   0.91670   0.01267  Uiso   1.00
H36    H     0.37730   0.46490   0.84310   0.01267  Uiso   1.00
H37    H     0.25170   0.06040   0.61630   0.01267  Uiso   1.00
H38    H     0.14330   0.12260   0.54940   0.01267  Uiso   1.00
H39    H     0.81850   0.02590   0.54860   0.01267  Uiso   1.00
H40    H     0.86050   0.90020   0.55710   0.01267  Uiso   1.00
H41    H     0.75150   0.83130   0.69490   0.01267  Uiso   1.00
H42    H     0.83850   0.91080   0.74590   0.01267  Uiso   1.00
H43    H     0.82740   0.08650   0.73120   0.01267  Uiso   1.00
H44    H     0.73450   0.15400   0.66700   0.01267  Uiso   1.00
H45    H     0.08020   0.23310   0.67340   0.01267  Uiso   1.00
H46    H     0.18990   0.24650   0.78360   0.01267  Uiso   1.00
H47    H     0.54140   0.17640   0.83320   0.01267  Uiso   1.00
H48    H     0.48290   0.09620   0.77650   0.01267  Uiso   1.00
H49    H     0.51390   0.98450   0.85110   0.01267  Uiso   1.00
H50    H     0.59850   0.91960   0.92030   0.01267  Uiso   1.00
H51    H     0.26590   0.93290   0.98600   0.01267  Uiso   1.00
H52    H     0.20340   0.05130   0.99320   0.01267  Uiso   1.00
H53    H     0.84610   0.09570   0.91670   0.01267  Uiso   1.00
H54    H     0.87730   0.03510   0.84310   0.01267  Uiso   1.00
H55    H     0.24830   0.56040   0.38370   0.01267  Uiso   1.00
H56    H     0.35670   0.62260   0.45060   0.01267  Uiso   1.00
H57    H     0.68150   0.52590   0.45140   0.01267  Uiso   1.00
H58    H     0.63950   0.40020   0.44290   0.01267  Uiso   1.00
H59    H     0.74850   0.33130   0.30510   0.01267  Uiso   1.00
H60    H     0.66150   0.41080   0.25410   0.01267  Uiso   1.00
H61    H     0.67260   0.58650   0.26880   0.01267  Uiso   1.00
H62    H     0.76550   0.65400   0.33300   0.01267  Uiso   1.00
H63    H     0.41980   0.73310   0.32660   0.01267  Uiso   1.00
H64    H     0.31010   0.74650   0.21640   0.01267  Uiso   1.00
H65    H     0.95860   0.67640   0.16680   0.01267  Uiso   1.00
H66    H     0.01710   0.59620   0.22350   0.01267  Uiso   1.00
H67    H     0.98610   0.48450   0.14890   0.01267  Uiso   1.00
H68    H     0.90150   0.41960   0.07970   0.01267  Uiso   1.00
H69    H     0.23410   0.43290   0.01400   0.01267  Uiso   1.00
H70    H     0.29660   0.55130   0.00680   0.01267  Uiso   1.00
H71    H     0.65390   0.59570   0.08330   0.01267  Uiso   1.00
H72    H     0.62270   0.53510   0.15690   0.01267  Uiso   1.00
C1     C     0.83680   0.94590   0.39720   0.01267  Uiso   1.00
C2     C     0.90050   0.90930   0.43710   0.01267  Uiso   1.00
C3     C     0.02900   0.91960   0.45720   0.01267  Uiso   1.00
C4     C     0.09380   0.96650   0.43730   0.01267  Uiso   1.00
C5     C     0.02790   0.00130   0.39680   0.01267  Uiso   1.00
C6     C     0.09040   0.05140   0.37320   0.01267  Uiso   1.00
C7     C     0.14280   0.09810   0.40430   0.01267  Uiso   1.00
C8     C     0.19930   0.14200   0.37860   0.01267  Uiso   1.00
C9     C     0.20740   0.13860   0.32260   0.01267  Uiso   1.00
C10    C     0.15610   0.09180   0.29250   0.01267  Uiso   1.00
C11    C     0.12110   0.88370   0.28110   0.01267  Uiso   1.00
C12    C     0.17650   0.84330   0.31860   0.01267  Uiso   1.00
C13    C     0.10360   0.79900   0.33540   0.01267  Uiso   1.00
C14    C     0.97210   0.79680   0.31490   0.01267  Uiso   1.00
C15    C     0.91800   0.83870   0.27740   0.01267  Uiso   1.00
C16    C     0.78530   0.83320   0.24770   0.01267  Uiso   1.00
C17    C     0.75090   0.78480   0.21660   0.01267  Uiso   1.00
C18    C     0.62950   0.78120   0.18540   0.01267  Uiso   1.00
C19    C     0.54230   0.82580   0.18780   0.01267  Uiso   1.00
C20    C     0.57720   0.87340   0.22080   0.01267  Uiso   1.00
C21    C     0.53600   0.02660   0.12120   0.01267  Uiso   1.00
C22    C     0.48570   0.06500   0.08040   0.01267  Uiso   1.00
C23    C     0.56150   0.08120   0.03940   0.01267  Uiso   1.00
C24    C     0.68250   0.05710   0.04140   0.01267  Uiso   1.00
C25    C     0.72860   0.01890   0.08270   0.01267  Uiso   1.00
C26    C     0.85000   0.98580   0.08190   0.01267  Uiso   1.00
C27    C     0.86380   0.95150   0.03740   0.01267  Uiso   1.00
C28    C     0.97880   0.92040   0.03770   0.01267  Uiso   1.00
C29    C     0.07570   0.92520   0.08250   0.01267  Uiso   1.00
C30    C     0.05670   0.96120   0.12600   0.01267  Uiso   1.00
C31    C     0.66320   0.44590   0.60280   0.01267  Uiso   1.00
C32    C     0.59950   0.40930   0.56290   0.01267  Uiso   1.00
C33    C     0.47100   0.41960   0.54280   0.01267  Uiso   1.00
C34    C     0.40620   0.46650   0.56270   0.01267  Uiso   1.00
C35    C     0.47210   0.50130   0.60320   0.01267  Uiso   1.00
C36    C     0.40960   0.55140   0.62680   0.01267  Uiso   1.00
C37    C     0.35720   0.59810   0.59570   0.01267  Uiso   1.00
C38    C     0.30070   0.64200   0.62140   0.01267  Uiso   1.00
C39    C     0.29260   0.63860   0.67740   0.01267  Uiso   1.00
C40    C     0.34390   0.59180   0.70750   0.01267  Uiso   1.00
C41    C     0.37890   0.38370   0.71890   0.01267  Uiso   1.00
C42    C     0.32350   0.34330   0.68140   0.01267  Uiso   1.00
C43    C     0.39640   0.29900   0.66460   0.01267  Uiso   1.00
C44    C     0.52790   0.29680   0.68510   0.01267  Uiso   1.00
C45    C     0.58200   0.33870   0.72260   0.01267  Uiso   1.00
C46    C     0.71470   0.33320   0.75230   0.01267  Uiso   1.00
C47    C     0.74910   0.28480   0.78340   0.01267  Uiso   1.00
C48    C     0.87050   0.28120   0.81460   0.01267  Uiso   1.00
C49    C     0.95770   0.32580   0.81220   0.01267  Uiso   1.00
C50    C     0.92280   0.37340   0.77920   0.01267  Uiso   1.00
C51    C     0.96400   0.52660   0.87880   0.01267  Uiso   1.00
C52    C     0.01430   0.56500   0.91960   0.01267  Uiso   1.00
C53    C     0.93850   0.58120   0.96060   0.01267  Uiso   1.00
C54    C     0.81750   0.55710   0.95860   0.01267  Uiso   1.00
C55    C     0.77140   0.51890   0.91730   0.01267  Uiso   1.00
C56    C     0.65000   0.48580   0.91810   0.01267  Uiso   1.00
C57    C     0.63620   0.45150   0.96260   0.01267  Uiso   1.00
C58    C     0.52120   0.42040   0.96230   0.01267  Uiso   1.00
C59    C     0.42430   0.42520   0.91750   0.01267  Uiso   1.00
C60    C     0.44330   0.46120   0.87400   0.01267  Uiso   1.00
C61    C     0.16320   0.05410   0.60280   0.01267  Uiso   1.00
C62    C     0.09950   0.09070   0.56290   0.01267  Uiso   1.00
C63    C     0.97100   0.08040   0.54280   0.01267  Uiso   1.00
C64    C     0.90620   0.03350   0.56270   0.01267  Uiso   1.00
C65    C     0.97210   0.99870   0.60320   0.01267  Uiso   1.00
C66    C     0.90960   0.94860   0.62680   0.01267  Uiso   1.00
C67    C     0.85720   0.90190   0.59570   0.01267  Uiso   1.00
C68    C     0.80070   0.85800   0.62140   0.01267  Uiso   1.00
C69    C     0.79260   0.86140   0.67740   0.01267  Uiso   1.00
C70    C     0.84390   0.90820   0.70750   0.01267  Uiso   1.00
C71    C     0.87890   0.11630   0.71890   0.01267  Uiso   1.00
C72    C     0.82350   0.15670   0.68140   0.01267  Uiso   1.00
C73    C     0.89640   0.20100   0.66460   0.01267  Uiso   1.00
C74    C     0.02790   0.20320   0.68510   0.01267  Uiso   1.00
C75    C     0.08200   0.16130   0.72260   0.01267  Uiso   1.00
C76    C     0.21470   0.16680   0.75230   0.01267  Uiso   1.00
C77    C     0.24910   0.21520   0.78340   0.01267  Uiso   1.00
C78    C     0.37050   0.21880   0.81460   0.01267  Uiso   1.00
C79    C     0.45770   0.17420   0.81220   0.01267  Uiso   1.00
C80    C     0.42280   0.12660   0.77920   0.01267  Uiso   1.00
C81    C     0.46400   0.97340   0.87880   0.01267  Uiso   1.00
C82    C     0.51430   0.93500   0.91960   0.01267  Uiso   1.00
C83    C     0.43850   0.91880   0.96060   0.01267  Uiso   1.00
C84    C     0.31750   0.94290   0.95860   0.01267  Uiso   1.00
C85    C     0.27140   0.98110   0.91730   0.01267  Uiso   1.00
C86    C     0.15000   0.01420   0.91810   0.01267  Uiso   1.00
C87    C     0.13620   0.04850   0.96260   0.01267  Uiso   1.00
C88    C     0.02120   0.07960   0.96230   0.01267  Uiso   1.00
C89    C     0.92430   0.07480   0.91750   0.01267  Uiso   1.00
C90    C     0.94330   0.03880   0.87400   0.01267  Uiso   1.00
C91    C     0.33680   0.55410   0.39720   0.01267  Uiso   1.00
C92    C     0.40050   0.59070   0.43710   0.01267  Uiso   1.00
C93    C     0.52900   0.58040   0.45720   0.01267  Uiso   1.00
C94    C     0.59380   0.53350   0.43730   0.01267  Uiso   1.00
C95    C     0.52790   0.49870   0.39680   0.01267  Uiso   1.00
C96    C     0.59040   0.44860   0.37320   0.01267  Uiso   1.00
C97    C     0.64280   0.40190   0.40430   0.01267  Uiso   1.00
C98    C     0.69930   0.35800   0.37860   0.01267  Uiso   1.00
C99    C     0.70740   0.36140   0.32260   0.01267  Uiso   1.00
C100   C     0.65610   0.40820   0.29250   0.01267  Uiso   1.00
C101   C     0.62110   0.61630   0.28110   0.01267  Uiso   1.00
C102   C     0.67650   0.65670   0.31860   0.01267  Uiso   1.00
C103   C     0.60360   0.70100   0.33540   0.01267  Uiso   1.00
C104   C     0.47210   0.70320   0.31490   0.01267  Uiso   1.00
C105   C     0.41800   0.66130   0.27740   0.01267  Uiso   1.00
C106   C     0.28530   0.66680   0.24770   0.01267  Uiso   1.00
C107   C     0.25090   0.71520   0.21660   0.01267  Uiso   1.00
C108   C     0.12950   0.71880   0.18540   0.01267  Uiso   1.00
C109   C     0.04230   0.67420   0.18780   0.01267  Uiso   1.00
C110   C     0.07720   0.62660   0.22080   0.01267  Uiso   1.00
C111   C     0.03600   0.47340   0.12120   0.01267  Uiso   1.00
C112   C     0.98570   0.43500   0.08040   0.01267  Uiso   1.00
C113   C     0.06150   0.41880   0.03940   0.01267  Uiso   1.00
C114   C     0.18250   0.44290   0.04140   0.01267  Uiso   1.00
C115   C     0.22860   0.48110   0.08270   0.01267  Uiso   1.00
C116   C     0.35000   0.51420   0.08190   0.01267  Uiso   1.00
C117   C     0.36380   0.54850   0.03740   0.01267  Uiso   1.00
C118   C     0.47880   0.57960   0.03770   0.01267  Uiso   1.00
C119   C     0.57570   0.57480   0.08250   0.01267  Uiso   1.00
C120   C     0.55670   0.53880   0.12600   0.01267  Uiso   1.00
S1     S     0.11491   0.87248   0.50784   0.01267  Uiso   1.00
S2     S     0.25772   0.20546   0.41627   0.01267  Uiso   1.00
S3     S     0.16706   0.74274   0.38111   0.01267  Uiso   1.00
S4     S     0.59534   0.72054   0.14001   0.01267  Uiso   1.00
S5     S     0.98814   0.87325   0.98007   0.01267  Uiso   1.00
S6     S     0.49844   0.12781   0.98424   0.01267  Uiso   1.00
S7     S     0.38509   0.37248   0.49216   0.01267  Uiso   1.00
S8     S     0.24228   0.70546   0.58373   0.01267  Uiso   1.00
S9     S     0.33294   0.24274   0.61889   0.01267  Uiso   1.00
S10    S     0.90466   0.22054   0.85999   0.01267  Uiso   1.00
S11    S     0.51186   0.37325   0.01993   0.01267  Uiso   1.00
S12    S     0.00156   0.62781   0.01576   0.01267  Uiso   1.00
S13    S     0.88509   0.12752   0.49216   0.01267  Uiso   1.00
S14    S     0.74228   0.79454   0.58373   0.01267  Uiso   1.00
S15    S     0.83294   0.25726   0.61889   0.01267  Uiso   1.00
S16    S     0.40466   0.27946   0.85999   0.01267  Uiso   1.00
S17    S     0.01186   0.12675   0.01993   0.01267  Uiso   1.00
S18    S     0.50156   0.87219   0.01576   0.01267  Uiso   1.00
S19    S     0.61491   0.62752   0.50784   0.01267  Uiso   1.00
S20    S     0.75772   0.29454   0.41627   0.01267  Uiso   1.00
S21    S     0.66706   0.75726   0.38111   0.01267  Uiso   1.00
S22    S     0.09534   0.77946   0.14001   0.01267  Uiso   1.00
S23    S     0.48814   0.62675   0.98007   0.01267  Uiso   1.00
S24    S     0.99844   0.37219   0.98424   0.01267  Uiso   1.00
N1     N     0.89950   0.99040   0.37760   0.01267  Uiso   1.00
N2     N     0.09760   0.04940   0.31810   0.01267  Uiso   1.00
N3     N     0.99430   0.88150   0.26170   0.01267  Uiso   1.00
N4     N     0.69780   0.87670   0.24930   0.01267  Uiso   1.00
N5     N     0.94660   0.99060   0.12520   0.01267  Uiso   1.00
N6     N     0.65360   0.00490   0.12230   0.01267  Uiso   1.00
N7     N     0.60050   0.49040   0.62240   0.01267  Uiso   1.00
N8     N     0.40240   0.54940   0.68190   0.01267  Uiso   1.00
N9     N     0.50570   0.38150   0.73830   0.01267  Uiso   1.00
N10    N     0.80220   0.37670   0.75070   0.01267  Uiso   1.00
N11    N     0.55340   0.49060   0.87480   0.01267  Uiso   1.00
N12    N     0.84640   0.50490   0.87770   0.01267  Uiso   1.00
N13    N     0.10050   0.00960   0.62240   0.01267  Uiso   1.00
N14    N     0.90240   0.95060   0.68190   0.01267  Uiso   1.00
N15    N     0.00570   0.11850   0.73830   0.01267  Uiso   1.00
N16    N     0.30220   0.12330   0.75070   0.01267  Uiso   1.00
N17    N     0.05340   0.00940   0.87480   0.01267  Uiso   1.00
N18    N     0.34640   0.99510   0.87770   0.01267  Uiso   1.00
N19    N     0.39950   0.50960   0.37760   0.01267  Uiso   1.00
N20    N     0.59760   0.45060   0.31810   0.01267  Uiso   1.00
N21    N     0.49430   0.61850   0.26170   0.01267  Uiso   1.00
N22    N     0.19780   0.62330   0.24930   0.01267  Uiso   1.00
N23    N     0.44660   0.50940   0.12520   0.01267  Uiso   1.00
N24    N     0.15360   0.49510   0.12230   0.01267  Uiso   1.00
O1     O     0.83710   0.02550   0.33932   0.01267  Uiso   1.00
O2     O     0.04940   0.00446   0.28860   0.01267  Uiso   1.00
O3     O     0.94180   0.91874   0.22270   0.01267  Uiso   1.00
O4     O     0.73070   0.92397   0.27992   0.01267  Uiso   1.00
O5     O     0.70020   0.96730   0.16168   0.01267  Uiso   1.00
O6     O     0.93230   0.02790   0.16537   0.01267  Uiso   1.00
O7     O     0.22540   0.85280   0.48350   0.01267  Uiso   1.00
O8     O     0.02440   0.82680   0.51680   0.01267  Uiso   1.00
O9     O     0.15040   0.90900   0.55630   0.01267  Uiso   1.00
O10    O     0.28380   0.18740   0.47340   0.01267  Uiso   1.00
O11    O     0.15620   0.24760   0.40620   0.01267  Uiso   1.00
O12    O     0.37260   0.22320   0.39420   0.01267  Uiso   1.00
O13    O     0.08870   0.74410   0.42480   0.01267  Uiso   1.00
O14    O     0.29940   0.75940   0.40000   0.01267  Uiso   1.00
O15    O     0.15430   0.68980   0.34900   0.01267  Uiso   1.00
O16    O     0.52180   0.68070   0.16924   0.01267  Uiso   1.00
O17    O     0.72000   0.69830   0.13120   0.01267  Uiso   1.00
O18    O     0.52370   0.74393   0.08930   0.01267  Uiso   1.00
O19    O     0.87790   0.83530   0.97710   0.01267  Uiso   1.00
O20    O     0.11220   0.84410   0.99270   0.01267  Uiso   1.00
O21    O     0.98180   0.91150   0.93200   0.01267  Uiso   1.00
O22    O     0.60780   0.14400   0.95850   0.01267  Uiso   1.00
O23    O     0.40580   0.09220   0.94920   0.01267  Uiso   1.00
O24    O     0.44030   0.17620   0.01020   0.01267  Uiso   1.00
O25    O     0.62430   0.04750   0.24720   0.01267  Uiso   1.00
O26    O     0.86790   0.10670   0.24540   0.01267  Uiso   1.00
O27    O     0.78770   0.83830   0.10370   0.01267  Uiso   1.00
O28    O     0.43720   0.88850   0.57920   0.01267  Uiso   1.00
O29    O     0.76650   0.72540   0.91610   0.01267  Uiso   1.00
O30    O     0.50800   0.87970   0.42550   0.01267  Uiso   1.00
O31    O     0.66290   0.52550   0.66068   0.01267  Uiso   1.00
O32    O     0.45060   0.50446   0.71140   0.01267  Uiso   1.00
O33    O     0.55820   0.41874   0.77730   0.01267  Uiso   1.00
O34    O     0.76930   0.42397   0.72008   0.01267  Uiso   1.00
O35    O     0.79980   0.46730   0.83832   0.01267  Uiso   1.00
O36    O     0.56770   0.52790   0.83463   0.01267  Uiso   1.00
O37    O     0.27460   0.35280   0.51650   0.01267  Uiso   1.00
O38    O     0.47560   0.32680   0.48320   0.01267  Uiso   1.00
O39    O     0.34960   0.40900   0.44370   0.01267  Uiso   1.00
O40    O     0.21620   0.68740   0.52660   0.01267  Uiso   1.00
O41    O     0.34380   0.74760   0.59380   0.01267  Uiso   1.00
O42    O     0.12740   0.72320   0.60580   0.01267  Uiso   1.00
O43    O     0.41130   0.24410   0.57520   0.01267  Uiso   1.00
O44    O     0.20060   0.25940   0.60000   0.01267  Uiso   1.00
O45    O     0.34570   0.18980   0.65100   0.01267  Uiso   1.00
O46    O     0.97820   0.18070   0.83076   0.01267  Uiso   1.00
O47    O     0.78000   0.19830   0.86880   0.01267  Uiso   1.00
O48    O     0.97630   0.24393   0.91070   0.01267  Uiso   1.00
O49    O     0.62210   0.33530   0.02290   0.01267  Uiso   1.00
O50    O     0.38780   0.34410   0.00730   0.01267  Uiso   1.00
O51    O     0.51820   0.41150   0.06800   0.01267  Uiso   1.00
O52    O     0.89220   0.64400   0.04150   0.01267  Uiso   1.00
O53    O     0.09420   0.59220   0.05080   0.01267  Uiso   1.00
O54    O     0.05970   0.67620   0.98980   0.01267  Uiso   1.00
O55    O     0.87570   0.54750   0.75280   0.01267  Uiso   1.00
O56    O     0.63210   0.60670   0.75460   0.01267  Uiso   1.00
O57    O     0.71230   0.33830   0.89630   0.01267  Uiso   1.00
O58    O     0.06280   0.38850   0.42080   0.01267  Uiso   1.00
O59    O     0.73350   0.22540   0.08390   0.01267  Uiso   1.00
O60    O     0.99200   0.37970   0.57450   0.01267  Uiso   1.00
O61    O     0.16290   0.97450   0.66068   0.01267  Uiso   1.00
O62    O     0.95060   0.99554   0.71140   0.01267  Uiso   1.00
O63    O     0.05820   0.08126   0.77730   0.01267  Uiso   1.00
O64    O     0.26930   0.07603   0.72008   0.01267  Uiso   1.00
O65    O     0.29980   0.03270   0.83832   0.01267  Uiso   1.00
O66    O     0.06770   0.97210   0.83463   0.01267  Uiso   1.00
O67    O     0.77460   0.14720   0.51650   0.01267  Uiso   1.00
O68    O     0.97560   0.17320   0.48320   0.01267  Uiso   1.00
O69    O     0.84960   0.09100   0.44370   0.01267  Uiso   1.00
O70    O     0.71620   0.81260   0.52660   0.01267  Uiso   1.00
O71    O     0.84380   0.75240   0.59380   0.01267  Uiso   1.00
O72    O     0.62740   0.77680   0.60580   0.01267  Uiso   1.00
O73    O     0.91130   0.25590   0.57520   0.01267  Uiso   1.00
O74    O     0.70060   0.24060   0.60000   0.01267  Uiso   1.00
O75    O     0.84570   0.31020   0.65100   0.01267  Uiso   1.00
O76    O     0.47820   0.31930   0.83076   0.01267  Uiso   1.00
O77    O     0.28000   0.30170   0.86880   0.01267  Uiso   1.00
O78    O     0.47630   0.25607   0.91070   0.01267  Uiso   1.00
O79    O     0.12210   0.16470   0.02290   0.01267  Uiso   1.00
O80    O     0.88780   0.15590   0.00730   0.01267  Uiso   1.00
O81    O     0.01820   0.08850   0.06800   0.01267  Uiso   1.00
O82    O     0.39220   0.85600   0.04150   0.01267  Uiso   1.00
O83    O     0.59420   0.90780   0.05080   0.01267  Uiso   1.00
O84    O     0.55970   0.82380   0.98980   0.01267  Uiso   1.00
O85    O     0.37570   0.95250   0.75280   0.01267  Uiso   1.00
O86    O     0.13210   0.89330   0.75460   0.01267  Uiso   1.00
O87    O     0.21230   0.16170   0.89630   0.01267  Uiso   1.00
O88    O     0.56280   0.11150   0.42080   0.01267  Uiso   1.00
O89    O     0.23350   0.27460   0.08390   0.01267  Uiso   1.00
O90    O     0.49200   0.12030   0.57450   0.01267  Uiso   1.00
O91    O     0.33710   0.47450   0.33932   0.01267  Uiso   1.00
O92    O     0.54940   0.49554   0.28860   0.01267  Uiso   1.00
O93    O     0.44180   0.58126   0.22270   0.01267  Uiso   1.00
O94    O     0.23070   0.57603   0.27992   0.01267  Uiso   1.00
O95    O     0.20020   0.53270   0.16168   0.01267  Uiso   1.00
O96    O     0.43230   0.47210   0.16537   0.01267  Uiso   1.00
O97    O     0.72540   0.64720   0.48350   0.01267  Uiso   1.00
O98    O     0.52440   0.67320   0.51680   0.01267  Uiso   1.00
O99    O     0.65040   0.59100   0.55630   0.01267  Uiso   1.00
O100   O     0.78380   0.31260   0.47340   0.01267  Uiso   1.00
O101   O     0.65620   0.25240   0.40620   0.01267  Uiso   1.00
O102   O     0.87260   0.27680   0.39420   0.01267  Uiso   1.00
O103   O     0.58870   0.75590   0.42480   0.01267  Uiso   1.00
O104   O     0.79940   0.74060   0.40000   0.01267  Uiso   1.00
O105   O     0.65430   0.81020   0.34900   0.01267  Uiso   1.00
O106   O     0.02180   0.81930   0.16924   0.01267  Uiso   1.00
O107   O     0.22000   0.80170   0.13120   0.01267  Uiso   1.00
O108   O     0.02370   0.75607   0.08930   0.01267  Uiso   1.00
O109   O     0.37790   0.66470   0.97710   0.01267  Uiso   1.00
O110   O     0.61220   0.65590   0.99270   0.01267  Uiso   1.00
O111   O     0.48180   0.58850   0.93200   0.01267  Uiso   1.00
O112   O     0.10780   0.35600   0.95850   0.01267  Uiso   1.00
O113   O     0.90580   0.40780   0.94920   0.01267  Uiso   1.00
O114   O     0.94030   0.32380   0.01020   0.01267  Uiso   1.00
O115   O     0.12430   0.45250   0.24720   0.01267  Uiso   1.00
O116   O     0.36790   0.39330   0.24540   0.01267  Uiso   1.00
O117   O     0.28770   0.66170   0.10370   0.01267  Uiso   1.00
O118   O     0.93720   0.61150   0.57920   0.01267  Uiso   1.00
O119   O     0.26650   0.77460   0.91610   0.01267  Uiso   1.00
O120   O     0.00800   0.62030   0.42550   0.01267  Uiso   1.00
Cl1    Cl    0.35406   0.98782   0.23556   0.01267  Uiso   1.00
Cl2    Cl    0.14594   0.48782   0.76444   0.01267  Uiso   1.00
Cl3    Cl    0.64594   0.01218   0.76444   0.01267  Uiso   1.00
Cl4    Cl    0.85406   0.51218   0.23556   0.01267  Uiso   1.00
