data_image0
_cell_length_a       7.6225
_cell_length_b       7.7814
_cell_length_c       12.728
_cell_angle_alpha    90
_cell_angle_beta     90
_cell_angle_gamma    90

_symmetry_space_group_name_H-M    "P 1"
_symmetry_int_tables_number       1

loop_
  _symmetry_equiv_pos_as_xyz
  'x, y, z'

loop_
  _atom_site_label
  _atom_site_occupancy
  _atom_site_fract_x
  _atom_site_fract_y
  _atom_site_fract_z
  _atom_site_thermal_displace_type
  _atom_site_B_iso_or_equiv
  _atom_site_type_symbol
  Ni1      1.0000 0.54104  0.49249  0.08105  Biso   1.000  Ni
  C1       1.0000 0.44650  0.23540  0.24310  Biso   1.000  C
  H1       1.0000 0.56040  0.19640  0.23240  Biso   1.000  H
  C2       1.0000 0.27950  0.76980  0.02330  Biso   1.000  C
  H2       1.0000 0.35570  0.79950  0.96920  Biso   1.000  H
  C3       1.0000 0.31710  0.25780  0.96450  Biso   1.000  C
  H3       1.0000 0.24440  0.27870  0.02180  Biso   1.000  H
  O1       1.0000 0.39470  0.36050  0.19037  Biso   1.000  O
  O2       1.0000 0.35300  0.15870  0.30999  Biso   1.000  O
  O3       1.0000 0.31450  0.63820  0.07638  Biso   1.000  O
  O4       1.0000 0.14870  0.86330  0.03855  Biso   1.000  O
  O5       1.0000 0.45690  0.33870  0.96014  Biso   1.000  O
  O6       1.0000 0.26510  0.14910  0.89765  Biso   1.000  O
  Ni2      1.0000 0.95896  0.50751  0.58105  Biso   1.000  Ni
  C4       1.0000 0.05350  0.76460  0.74310  Biso   1.000  C
  H4       1.0000 0.93960  0.80360  0.73240  Biso   1.000  H
  C5       1.0000 0.22050  0.23020  0.52330  Biso   1.000  C
  H5       1.0000 0.14430  0.20050  0.46920  Biso   1.000  H
  C6       1.0000 0.18290  0.74220  0.46450  Biso   1.000  C
  H6       1.0000 0.25560  0.72130  0.52180  Biso   1.000  H
  O7       1.0000 0.10530  0.63950  0.69037  Biso   1.000  O
  O8       1.0000 0.14700  0.84130  0.80999  Biso   1.000  O
  O9       1.0000 0.18550  0.36180  0.57638  Biso   1.000  O
  O10      1.0000 0.35130  0.13670  0.53855  Biso   1.000  O
  O11      1.0000 0.04310  0.66130  0.46014  Biso   1.000  O
  O12      1.0000 0.23490  0.85090  0.39765  Biso   1.000  O
  Ni3      1.0000 0.45896  0.99249  0.41895  Biso   1.000  Ni
  C7       1.0000 0.55350  0.73540  0.25690  Biso   1.000  C
  H7       1.0000 0.43960  0.69640  0.26760  Biso   1.000  H
  C8       1.0000 0.72050  0.26980  0.47670  Biso   1.000  C
  H8       1.0000 0.64430  0.29950  0.53080  Biso   1.000  H
  C9       1.0000 0.68290  0.75780  0.53550  Biso   1.000  C
  H9       1.0000 0.75560  0.77870  0.47820  Biso   1.000  H
  O13      1.0000 0.60530  0.86050  0.30963  Biso   1.000  O
  O14      1.0000 0.64700  0.65870  0.19001  Biso   1.000  O
  O15      1.0000 0.68550  0.13820  0.42362  Biso   1.000  O
  O16      1.0000 0.85130  0.36330  0.46145  Biso   1.000  O
  O17      1.0000 0.54310  0.83870  0.53986  Biso   1.000  O
  O18      1.0000 0.73490  0.64910  0.60235  Biso   1.000  O
  Ni4      1.0000 0.04104  0.00751  0.91895  Biso   1.000  Ni
  C10      1.0000 0.94650  0.26460  0.75690  Biso   1.000  C
  H10      1.0000 0.06040  0.30360  0.76760  Biso   1.000  H
  C11      1.0000 0.77950  0.73020  0.97670  Biso   1.000  C
  H11      1.0000 0.85570  0.70050  0.03080  Biso   1.000  H
  C12      1.0000 0.81710  0.24220  0.03550  Biso   1.000  C
  H12      1.0000 0.74440  0.22130  0.97820  Biso   1.000  H
  O19      1.0000 0.89470  0.13950  0.80963  Biso   1.000  O
  O20      1.0000 0.85300  0.34130  0.69001  Biso   1.000  O
  O21      1.0000 0.81450  0.86180  0.92362  Biso   1.000  O
  O22      1.0000 0.64870  0.63670  0.96145  Biso   1.000  O
  O23      1.0000 0.95690  0.16130  0.03986  Biso   1.000  O
  O24      1.0000 0.76510  0.35090  0.10235  Biso   1.000  O
