data_image0
_cell_length_a       7.6892
_cell_length_b       7.7385
_cell_length_c       13.0205
_cell_angle_alpha    90
_cell_angle_beta     90
_cell_angle_gamma    90

_symmetry_space_group_name_H-M    "P 1"
_symmetry_int_tables_number       1

loop_
  _symmetry_equiv_pos_as_xyz
  'x, y, z'

loop_
  _atom_site_label
  _atom_site_occupancy
  _atom_site_fract_x
  _atom_site_fract_y
  _atom_site_fract_z
  _atom_site_thermal_displace_type
  _atom_site_B_iso_or_equiv
  _atom_site_type_symbol
  Zn1      1.0000 0.55141  0.49392  0.08401  Biso   1.000  Zn
  C1       1.0000 0.42510  0.22610  0.23711  Biso   1.000  C
  H1       1.0000 0.53290  0.17550  0.22510  Biso   1.000  H
  C2       1.0000 0.29400  0.77090  0.02716  Biso   1.000  C
  H2       1.0000 0.35730  0.77660  0.96640  Biso   1.000  H
  C3       1.0000 0.31300  0.26850  0.96370  Biso   1.000  C
  H3       1.0000 0.24610  0.27730  0.02300  Biso   1.000  H
  O1       1.0000 0.39013  0.36258  0.19000  Biso   1.000  O
  O2       1.0000 0.32545  0.15285  0.29924  Biso   1.000  O
  O3       1.0000 0.34330  0.66620  0.09153  Biso   1.000  O
  O4       1.0000 0.16726  0.87029  0.03528  Biso   1.000  O
  O5       1.0000 0.45045  0.35080  0.96080  Biso   1.000  O
  O6       1.0000 0.25623  0.17330  0.89259  Biso   1.000  O
  Zn2      1.0000 0.94859  0.50608  0.58401  Biso   1.000  Zn
  C4       1.0000 0.07490  0.77390  0.73711  Biso   1.000  C
  H4       1.0000 0.96710  0.82450  0.72510  Biso   1.000  H
  C5       1.0000 0.20600  0.22910  0.52716  Biso   1.000  C
  H5       1.0000 0.14270  0.22340  0.46640  Biso   1.000  H
  C6       1.0000 0.18700  0.73150  0.46370  Biso   1.000  C
  H6       1.0000 0.25390  0.72270  0.52300  Biso   1.000  H
  O7       1.0000 0.10987  0.63742  0.69000  Biso   1.000  O
  O8       1.0000 0.17455  0.84715  0.79924  Biso   1.000  O
  O9       1.0000 0.15670  0.33380  0.59153  Biso   1.000  O
  O10      1.0000 0.33274  0.12971  0.53528  Biso   1.000  O
  O11      1.0000 0.04955  0.64920  0.46080  Biso   1.000  O
  O12      1.0000 0.24377  0.82670  0.39259  Biso   1.000  O
  Zn3      1.0000 0.44859  0.99392  0.41599  Biso   1.000  Zn
  C7       1.0000 0.57490  0.72610  0.26289  Biso   1.000  C
  H7       1.0000 0.46710  0.67550  0.27490  Biso   1.000  H
  C8       1.0000 0.70600  0.27090  0.47284  Biso   1.000  C
  H8       1.0000 0.64270  0.27660  0.53360  Biso   1.000  H
  C9       1.0000 0.68700  0.76850  0.53630  Biso   1.000  C
  H9       1.0000 0.75390  0.77730  0.47700  Biso   1.000  H
  O13      1.0000 0.60987  0.86258  0.31000  Biso   1.000  O
  O14      1.0000 0.67455  0.65285  0.20076  Biso   1.000  O
  O15      1.0000 0.65670  0.16620  0.40847  Biso   1.000  O
  O16      1.0000 0.83274  0.37029  0.46472  Biso   1.000  O
  O17      1.0000 0.54955  0.85080  0.53920  Biso   1.000  O
  O18      1.0000 0.74377  0.67330  0.60741  Biso   1.000  O
  Zn4      1.0000 0.05141  0.00608  0.91599  Biso   1.000  Zn
  C10      1.0000 0.92510  0.27390  0.76289  Biso   1.000  C
  H10      1.0000 0.03290  0.32450  0.77490  Biso   1.000  H
  C11      1.0000 0.79400  0.72910  0.97284  Biso   1.000  C
  H11      1.0000 0.85730  0.72340  0.03360  Biso   1.000  H
  C12      1.0000 0.81300  0.23150  0.03630  Biso   1.000  C
  H12      1.0000 0.74610  0.22270  0.97700  Biso   1.000  H
  O19      1.0000 0.89013  0.13742  0.81000  Biso   1.000  O
  O20      1.0000 0.82545  0.34715  0.70076  Biso   1.000  O
  O21      1.0000 0.84330  0.83380  0.90847  Biso   1.000  O
  O22      1.0000 0.66726  0.62971  0.96472  Biso   1.000  O
  O23      1.0000 0.95045  0.14920  0.03920  Biso   1.000  O
  O24      1.0000 0.75623  0.32670  0.10741  Biso   1.000  O
