data_image0
_cell_length_a       7.8121
_cell_length_b       7.9612
_cell_length_c       13.1728
_cell_angle_alpha    90
_cell_angle_beta     90
_cell_angle_gamma    90

_symmetry_space_group_name_H-M    "P 1"
_symmetry_int_tables_number       1

loop_
  _symmetry_equiv_pos_as_xyz
  'x, y, z'

loop_
  _atom_site_label
  _atom_site_occupancy
  _atom_site_fract_x
  _atom_site_fract_y
  _atom_site_fract_z
  _atom_site_thermal_displace_type
  _atom_site_B_iso_or_equiv
  _atom_site_type_symbol
  Mn1      1.0000 0.55335  0.49461  0.08543  Biso   1.000  Mn
  C1       1.0000 0.41580  0.22490  0.23529  Biso   1.000  C
  H1       1.0000 0.52020  0.17360  0.22150  Biso   1.000  H
  C2       1.0000 0.29310  0.77220  0.03257  Biso   1.000  C
  H2       1.0000 0.35690  0.77910  0.97310  Biso   1.000  H
  C3       1.0000 0.31190  0.27680  0.95870  Biso   1.000  C
  H3       1.0000 0.23900  0.29520  0.01340  Biso   1.000  H
  O1       1.0000 0.38550  0.36010  0.19145  Biso   1.000  O
  O2       1.0000 0.31790  0.15170  0.29651  Biso   1.000  O
  O3       1.0000 0.34230  0.67000  0.09459  Biso   1.000  O
  O4       1.0000 0.16880  0.86830  0.03839  Biso   1.000  O
  O5       1.0000 0.45110  0.35050  0.96043  Biso   1.000  O
  O6       1.0000 0.25930  0.18000  0.89068  Biso   1.000  O
  Mn2      1.0000 0.94665  0.50539  0.58543  Biso   1.000  Mn
  C4       1.0000 0.08420  0.77510  0.73529  Biso   1.000  C
  H4       1.0000 0.97980  0.82640  0.72150  Biso   1.000  H
  C5       1.0000 0.20690  0.22780  0.53257  Biso   1.000  C
  H5       1.0000 0.14310  0.22090  0.47310  Biso   1.000  H
  C6       1.0000 0.18810  0.72320  0.45870  Biso   1.000  C
  H6       1.0000 0.26100  0.70480  0.51340  Biso   1.000  H
  O7       1.0000 0.11450  0.63990  0.69145  Biso   1.000  O
  O8       1.0000 0.18210  0.84830  0.79651  Biso   1.000  O
  O9       1.0000 0.15770  0.33000  0.59459  Biso   1.000  O
  O10      1.0000 0.33120  0.13170  0.53839  Biso   1.000  O
  O11      1.0000 0.04890  0.64950  0.46043  Biso   1.000  O
  O12      1.0000 0.24070  0.82000  0.39068  Biso   1.000  O
  Mn3      1.0000 0.44665  0.99461  0.41457  Biso   1.000  Mn
  C7       1.0000 0.58420  0.72490  0.26471  Biso   1.000  C
  H7       1.0000 0.47980  0.67360  0.27850  Biso   1.000  H
  C8       1.0000 0.70690  0.27220  0.46743  Biso   1.000  C
  H8       1.0000 0.64310  0.27910  0.52690  Biso   1.000  H
  C9       1.0000 0.68810  0.77680  0.54130  Biso   1.000  C
  H9       1.0000 0.76100  0.79520  0.48660  Biso   1.000  H
  O13      1.0000 0.61450  0.86010  0.30855  Biso   1.000  O
  O14      1.0000 0.68210  0.65170  0.20349  Biso   1.000  O
  O15      1.0000 0.65770  0.17000  0.40541  Biso   1.000  O
  O16      1.0000 0.83120  0.36830  0.46161  Biso   1.000  O
  O17      1.0000 0.54890  0.85050  0.53957  Biso   1.000  O
  O18      1.0000 0.74070  0.68000  0.60932  Biso   1.000  O
  Mn4      1.0000 0.05335  0.00539  0.91457  Biso   1.000  Mn
  C10      1.0000 0.91580  0.27510  0.76471  Biso   1.000  C
  H10      1.0000 0.02020  0.32640  0.77850  Biso   1.000  H
  C11      1.0000 0.79310  0.72780  0.96743  Biso   1.000  C
  H11      1.0000 0.85690  0.72090  0.02690  Biso   1.000  H
  C12      1.0000 0.81190  0.22320  0.04130  Biso   1.000  C
  H12      1.0000 0.73900  0.20480  0.98660  Biso   1.000  H
  O19      1.0000 0.88550  0.13990  0.80855  Biso   1.000  O
  O20      1.0000 0.81790  0.34830  0.70349  Biso   1.000  O
  O21      1.0000 0.84230  0.83000  0.90541  Biso   1.000  O
  O22      1.0000 0.66880  0.63170  0.96161  Biso   1.000  O
  O23      1.0000 0.95110  0.14950  0.03957  Biso   1.000  O
  O24      1.0000 0.75930  0.32000  0.10932  Biso   1.000  O
