data_image0
_cell_length_a       7.6839
_cell_length_b       7.7555
_cell_length_c       13.0195
_cell_angle_alpha    90
_cell_angle_beta     90
_cell_angle_gamma    90

_symmetry_space_group_name_H-M    "P 1"
_symmetry_int_tables_number       1

loop_
  _symmetry_equiv_pos_as_xyz
  'x, y, z'

loop_
  _atom_site_label
  _atom_site_occupancy
  _atom_site_fract_x
  _atom_site_fract_y
  _atom_site_fract_z
  _atom_site_thermal_displace_type
  _atom_site_B_iso_or_equiv
  _atom_site_type_symbol
  Co1      1.0000 0.55048  0.49456  0.08481  Biso   1.000  Co
  C1       1.0000 0.42590  0.22600  0.23840  Biso   1.000  C
  H1       1.0000 0.53350  0.17520  0.22620  Biso   1.000  H
  C2       1.0000 0.29310  0.76960  0.02620  Biso   1.000  C
  H2       1.0000 0.35590  0.77440  0.96520  Biso   1.000  H
  C3       1.0000 0.31350  0.26820  0.96450  Biso   1.000  C
  H3       1.0000 0.24630  0.27710  0.02370  Biso   1.000  H
  O1       1.0000 0.39290  0.36330  0.19142  Biso   1.000  O
  O2       1.0000 0.32710  0.15210  0.29978  Biso   1.000  O
  O3       1.0000 0.34100  0.66460  0.09035  Biso   1.000  O
  O4       1.0000 0.16780  0.87110  0.03503  Biso   1.000  O
  O5       1.0000 0.45140  0.35180  0.96220  Biso   1.000  O
  O6       1.0000 0.25660  0.17240  0.89391  Biso   1.000  O
  Co2      1.0000 0.94952  0.50544  0.58481  Biso   1.000  Co
  C4       1.0000 0.07410  0.77400  0.73840  Biso   1.000  C
  H4       1.0000 0.96650  0.82480  0.72620  Biso   1.000  H
  C5       1.0000 0.20690  0.23040  0.52620  Biso   1.000  C
  H5       1.0000 0.14410  0.22560  0.46520  Biso   1.000  H
  C6       1.0000 0.18650  0.73180  0.46450  Biso   1.000  C
  H6       1.0000 0.25370  0.72290  0.52370  Biso   1.000  H
  O7       1.0000 0.10710  0.63670  0.69142  Biso   1.000  O
  O8       1.0000 0.17290  0.84790  0.79978  Biso   1.000  O
  O9       1.0000 0.15900  0.33540  0.59035  Biso   1.000  O
  O10      1.0000 0.33220  0.12890  0.53503  Biso   1.000  O
  O11      1.0000 0.04860  0.64820  0.46220  Biso   1.000  O
  O12      1.0000 0.24340  0.82760  0.39391  Biso   1.000  O
  Co3      1.0000 0.44952  0.99456  0.41519  Biso   1.000  Co
  C7       1.0000 0.57410  0.72600  0.26160  Biso   1.000  C
  H7       1.0000 0.46650  0.67520  0.27380  Biso   1.000  H
  C8       1.0000 0.70690  0.26960  0.47380  Biso   1.000  C
  H8       1.0000 0.64410  0.27440  0.53480  Biso   1.000  H
  C9       1.0000 0.68650  0.76820  0.53550  Biso   1.000  C
  H9       1.0000 0.75370  0.77710  0.47630  Biso   1.000  H
  O13      1.0000 0.60710  0.86330  0.30858  Biso   1.000  O
  O14      1.0000 0.67290  0.65210  0.20022  Biso   1.000  O
  O15      1.0000 0.65900  0.16460  0.40965  Biso   1.000  O
  O16      1.0000 0.83220  0.37110  0.46497  Biso   1.000  O
  O17      1.0000 0.54860  0.85180  0.53780  Biso   1.000  O
  O18      1.0000 0.74340  0.67240  0.60609  Biso   1.000  O
  Co4      1.0000 0.05048  0.00544  0.91519  Biso   1.000  Co
  C10      1.0000 0.92590  0.27400  0.76160  Biso   1.000  C
  H10      1.0000 0.03350  0.32480  0.77380  Biso   1.000  H
  C11      1.0000 0.79310  0.73040  0.97380  Biso   1.000  C
  H11      1.0000 0.85590  0.72560  0.03480  Biso   1.000  H
  C12      1.0000 0.81350  0.23180  0.03550  Biso   1.000  C
  H12      1.0000 0.74630  0.22290  0.97630  Biso   1.000  H
  O19      1.0000 0.89290  0.13670  0.80858  Biso   1.000  O
  O20      1.0000 0.82710  0.34790  0.70022  Biso   1.000  O
  O21      1.0000 0.84100  0.83540  0.90965  Biso   1.000  O
  O22      1.0000 0.66780  0.62890  0.96497  Biso   1.000  O
  O23      1.0000 0.95140  0.14820  0.03780  Biso   1.000  O
  O24      1.0000 0.75660  0.32760  0.10609  Biso   1.000  O
