data_image0
_cell_length_a       7.6883
_cell_length_b       7.7875
_cell_length_c       12.8558
_cell_angle_alpha    90
_cell_angle_beta     90
_cell_angle_gamma    90

_symmetry_space_group_name_H-M    "P 1"
_symmetry_int_tables_number       1

loop_
  _symmetry_equiv_pos_as_xyz
  'x, y, z'

loop_
  _atom_site_label
  _atom_site_occupancy
  _atom_site_fract_x
  _atom_site_fract_y
  _atom_site_fract_z
  _atom_site_thermal_displace_type
  _atom_site_B_iso_or_equiv
  _atom_site_type_symbol
  Mg1      1.0000 0.55363  0.49437  0.08445  Biso   1.000  Mg
  C1       1.0000 0.42750  0.22340  0.23615  Biso   1.000  C
  H1       1.0000 0.53340  0.17060  0.22190  Biso   1.000  H
  C2       1.0000 0.30280  0.77880  0.02788  Biso   1.000  C
  H2       1.0000 0.37600  0.79890  0.97160  Biso   1.000  H
  C3       1.0000 0.31010  0.27600  0.96274  Biso   1.000  C
  H3       1.0000 0.23520  0.29810  0.01790  Biso   1.000  H
  O1       1.0000 0.39602  0.36228  0.19084  Biso   1.000  O
  O2       1.0000 0.32831  0.14995  0.29880  Biso   1.000  O
  O3       1.0000 0.34694  0.66409  0.08794  Biso   1.000  O
  O4       1.0000 0.17129  0.87066  0.03392  Biso   1.000  O
  O5       1.0000 0.45163  0.35039  0.96352  Biso   1.000  O
  O6       1.0000 0.25786  0.17326  0.89438  Biso   1.000  O
  Mg2      1.0000 0.94637  0.50563  0.58445  Biso   1.000  Mg
  C4       1.0000 0.07250  0.77660  0.73615  Biso   1.000  C
  H4       1.0000 0.96660  0.82940  0.72190  Biso   1.000  H
  C5       1.0000 0.19720  0.22120  0.52788  Biso   1.000  C
  H5       1.0000 0.12400  0.20110  0.47160  Biso   1.000  H
  C6       1.0000 0.18990  0.72400  0.46274  Biso   1.000  C
  H6       1.0000 0.26480  0.70190  0.51790  Biso   1.000  H
  O7       1.0000 0.10398  0.63772  0.69084  Biso   1.000  O
  O8       1.0000 0.17169  0.85005  0.79880  Biso   1.000  O
  O9       1.0000 0.15306  0.33591  0.58794  Biso   1.000  O
  O10      1.0000 0.32871  0.12934  0.53392  Biso   1.000  O
  O11      1.0000 0.04837  0.64961  0.46352  Biso   1.000  O
  O12      1.0000 0.24214  0.82674  0.39438  Biso   1.000  O
  Mg3      1.0000 0.44637  0.99437  0.41555  Biso   1.000  Mg
  C7       1.0000 0.57250  0.72340  0.26385  Biso   1.000  C
  H7       1.0000 0.46660  0.67060  0.27810  Biso   1.000  H
  C8       1.0000 0.69720  0.27880  0.47212  Biso   1.000  C
  H8       1.0000 0.62400  0.29890  0.52840  Biso   1.000  H
  C9       1.0000 0.68990  0.77600  0.53726  Biso   1.000  C
  H9       1.0000 0.76480  0.79810  0.48210  Biso   1.000  H
  O13      1.0000 0.60398  0.86228  0.30916  Biso   1.000  O
  O14      1.0000 0.67169  0.64995  0.20120  Biso   1.000  O
  O15      1.0000 0.65306  0.16409  0.41206  Biso   1.000  O
  O16      1.0000 0.82871  0.37066  0.46608  Biso   1.000  O
  O17      1.0000 0.54837  0.85039  0.53648  Biso   1.000  O
  O18      1.0000 0.74214  0.67326  0.60562  Biso   1.000  O
  Mg4      1.0000 0.05363  0.00563  0.91555  Biso   1.000  Mg
  C10      1.0000 0.92750  0.27660  0.76385  Biso   1.000  C
  H10      1.0000 0.03340  0.32940  0.77810  Biso   1.000  H
  C11      1.0000 0.80280  0.72120  0.97212  Biso   1.000  C
  H11      1.0000 0.87600  0.70110  0.02840  Biso   1.000  H
  C12      1.0000 0.81010  0.22400  0.03726  Biso   1.000  C
  H12      1.0000 0.73520  0.20190  0.98210  Biso   1.000  H
  O19      1.0000 0.89602  0.13772  0.80916  Biso   1.000  O
  O20      1.0000 0.82831  0.35005  0.70120  Biso   1.000  O
  O21      1.0000 0.84694  0.83591  0.91206  Biso   1.000  O
  O22      1.0000 0.67129  0.62934  0.96608  Biso   1.000  O
  O23      1.0000 0.95163  0.14961  0.03648  Biso   1.000  O
  O24      1.0000 0.75786  0.32674  0.10562  Biso   1.000  O
