data_VETTOE_clean
_audit_creation_date              2014-07-02
_audit_creation_method            'Materials Studio'
_symmetry_space_group_name_H-M    'P1'
_symmetry_Int_Tables_number       1
_symmetry_cell_setting            triclinic
loop_
_symmetry_equiv_pos_as_xyz
  x,y,z
_cell_length_a                    9.4902
_cell_length_b                    13.9123
_cell_length_c                    16.7437
_cell_angle_alpha                 83.0440
_cell_angle_beta                  75.8020
_cell_angle_gamma                 88.3090
loop_
_atom_site_label
_atom_site_type_symbol
_atom_site_fract_x
_atom_site_fract_y
_atom_site_fract_z
_atom_site_U_iso_or_equiv
_atom_site_adp_type
_atom_site_occupancy
Pr1    Pr    0.70540   0.06130   0.44673   0.01267  Uiso   1.00
Pr2    Pr    0.29460   0.93870   0.55327   0.01267  Uiso   1.00
H1     H     0.68490   0.80060   0.95440   0.01267  Uiso   1.00
H2     H     0.67950   0.78600   0.10320   0.01267  Uiso   1.00
H3     H     0.91120   0.54560   0.30920   0.01267  Uiso   1.00
H4     H     0.07100   0.40330   0.29460   0.01267  Uiso   1.00
H5     H     0.99760   0.49340   0.07190   0.01267  Uiso   1.00
H6     H     0.97180   0.78930   0.74510   0.01267  Uiso   1.00
H7     H     0.87240   0.89050   0.65160   0.01267  Uiso   1.00
H8     H     0.47720   0.77750   0.75840   0.01267  Uiso   1.00
H9     H     0.57340   0.68430   0.85790   0.01267  Uiso   1.00
H10    H     0.56600   0.61850   0.24670   0.01267  Uiso   1.00
H11    H     0.43890   0.70770   0.35030   0.01267  Uiso   1.00
H12    H     0.80540   0.84790   0.34680   0.01267  Uiso   1.00
H13    H     0.93130   0.76220   0.24030   0.01267  Uiso   1.00
H14    H     0.31510   0.19940   0.04560   0.01267  Uiso   1.00
H15    H     0.32050   0.21400   0.89680   0.01267  Uiso   1.00
H16    H     0.08880   0.45440   0.69080   0.01267  Uiso   1.00
H17    H     0.92900   0.59670   0.70540   0.01267  Uiso   1.00
H18    H     0.00240   0.50660   0.92810   0.01267  Uiso   1.00
H19    H     0.02820   0.21070   0.25490   0.01267  Uiso   1.00
H20    H     0.12760   0.10950   0.34840   0.01267  Uiso   1.00
H21    H     0.52280   0.22250   0.24160   0.01267  Uiso   1.00
H22    H     0.42660   0.31570   0.14210   0.01267  Uiso   1.00
H23    H     0.43400   0.38150   0.75330   0.01267  Uiso   1.00
H24    H     0.56110   0.29230   0.64970   0.01267  Uiso   1.00
H25    H     0.19460   0.15210   0.65320   0.01267  Uiso   1.00
H26    H     0.06870   0.23780   0.75970   0.01267  Uiso   1.00
C1     C     0.81700   0.67310   0.94980   0.01267  Uiso   1.00
C2     C     0.73120   0.75190   0.98380   0.01267  Uiso   1.00
C3     C     0.72850   0.74400   0.06470   0.01267  Uiso   1.00
C4     C     0.81330   0.66030   0.08290   0.01267  Uiso   1.00
C5     C     0.83900   0.63030   0.16110   0.01267  Uiso   1.00
C6     C     0.92650   0.55100   0.17910   0.01267  Uiso   1.00
C7     C     0.95000   0.51750   0.25940   0.01267  Uiso   1.00
C8     C     0.03620   0.43960   0.25160   0.01267  Uiso   1.00
C9     C     0.06690   0.42040   0.16630   0.01267  Uiso   1.00
C10    C     0.84710   0.65560   0.86720   0.01267  Uiso   1.00
C11    C     0.78350   0.72280   0.80900   0.01267  Uiso   1.00
C12    C     0.87060   0.78650   0.74860   0.01267  Uiso   1.00
C13    C     0.81100   0.84680   0.69250   0.01267  Uiso   1.00
C14    C     0.66650   0.84440   0.69530   0.01267  Uiso   1.00
C15    C     0.57790   0.78130   0.75620   0.01267  Uiso   1.00
C16    C     0.63620   0.72370   0.81410   0.01267  Uiso   1.00
C17    C     0.60440   0.90560   0.63080   0.01267  Uiso   1.00
C18    C     0.76320   0.68290   0.23120   0.01267  Uiso   1.00
C19    C     0.61530   0.66610   0.26580   0.01267  Uiso   1.00
C20    C     0.54010   0.71870   0.32830   0.01267  Uiso   1.00
C21    C     0.60890   0.78670   0.35900   0.01267  Uiso   1.00
C22    C     0.75550   0.80210   0.32610   0.01267  Uiso   1.00
C23    C     0.83040   0.75040   0.26260   0.01267  Uiso   1.00
C24    C     0.52060   0.84280   0.42400   0.01267  Uiso   1.00
C25    C     0.99950   0.04710   0.52000   0.01267  Uiso   1.00
C26    C     0.18300   0.32690   0.05020   0.01267  Uiso   1.00
C27    C     0.26880   0.24810   0.01620   0.01267  Uiso   1.00
C28    C     0.27150   0.25600   0.93530   0.01267  Uiso   1.00
C29    C     0.18670   0.33970   0.91710   0.01267  Uiso   1.00
C30    C     0.16100   0.36970   0.83890   0.01267  Uiso   1.00
C31    C     0.07350   0.44900   0.82090   0.01267  Uiso   1.00
C32    C     0.05000   0.48250   0.74060   0.01267  Uiso   1.00
C33    C     0.96380   0.56040   0.74840   0.01267  Uiso   1.00
C34    C     0.93310   0.57960   0.83370   0.01267  Uiso   1.00
C35    C     0.15290   0.34440   0.13280   0.01267  Uiso   1.00
C36    C     0.21650   0.27720   0.19100   0.01267  Uiso   1.00
C37    C     0.12940   0.21350   0.25140   0.01267  Uiso   1.00
C38    C     0.18900   0.15320   0.30750   0.01267  Uiso   1.00
C39    C     0.33350   0.15560   0.30470   0.01267  Uiso   1.00
C40    C     0.42210   0.21870   0.24380   0.01267  Uiso   1.00
C41    C     0.36380   0.27630   0.18590   0.01267  Uiso   1.00
C42    C     0.39560   0.09440   0.36920   0.01267  Uiso   1.00
C43    C     0.23680   0.31710   0.76880   0.01267  Uiso   1.00
C44    C     0.38470   0.33390   0.73420   0.01267  Uiso   1.00
C45    C     0.45990   0.28130   0.67170   0.01267  Uiso   1.00
C46    C     0.39110   0.21330   0.64100   0.01267  Uiso   1.00
C47    C     0.24450   0.19790   0.67390   0.01267  Uiso   1.00
C48    C     0.16960   0.24960   0.73740   0.01267  Uiso   1.00
C49    C     0.47940   0.15720   0.57600   0.01267  Uiso   1.00
C50    C     0.00050   0.95290   0.48000   0.01267  Uiso   1.00
N1     N     0.86630   0.61820   0.01190   0.01267  Uiso   1.00
N2     N     0.99710   0.48940   0.12480   0.01267  Uiso   1.00
N3     N     0.13370   0.38180   0.98810   0.01267  Uiso   1.00
N4     N     0.00290   0.51060   0.87520   0.01267  Uiso   1.00
O1     O     0.68550   0.96930   0.58390   0.01267  Uiso   1.00
O2     O     0.47530   0.88610   0.62930   0.01267  Uiso   1.00
O3     O     0.57760   0.91450   0.44500   0.01267  Uiso   1.00
O4     O     0.39410   0.81650   0.45680   0.01267  Uiso   1.00
O5     O     0.91210   0.11140   0.50270   0.01267  Uiso   1.00
O6     O     0.08530   0.05360   0.56480   0.01267  Uiso   1.00
O7     O     0.31450   0.03070   0.41610   0.01267  Uiso   1.00
O8     O     0.52470   0.11390   0.37070   0.01267  Uiso   1.00
O9     O     0.42240   0.08550   0.55500   0.01267  Uiso   1.00
O10    O     0.60590   0.18350   0.54320   0.01267  Uiso   1.00
O11    O     0.08790   0.88860   0.49730   0.01267  Uiso   1.00
O12    O     0.91470   0.94640   0.43520   0.01267  Uiso   1.00
