data_VEWLAM_clean
_audit_creation_date              2014-07-02
_audit_creation_method            'Materials Studio'
_symmetry_space_group_name_H-M    'P21'
_symmetry_Int_Tables_number       4
_symmetry_cell_setting            monoclinic
loop_
_symmetry_equiv_pos_as_xyz
  x,y,z
  -x,y+1/2,-z
_cell_length_a                    20.7308
_cell_length_b                    34.3744
_cell_length_c                    19.3772
_cell_angle_alpha                 90.0000
_cell_angle_beta                  115.4320
_cell_angle_gamma                 90.0000
loop_
_atom_site_label
_atom_site_type_symbol
_atom_site_fract_x
_atom_site_fract_y
_atom_site_fract_z
_atom_site_U_iso_or_equiv
_atom_site_adp_type
_atom_site_occupancy
Co1    Co    0.33956   0.57047   0.71608   0.01267  Uiso   1.00
Co2    Co    0.19140   0.44364   0.85774   0.01267  Uiso   1.00
Co3    Co    0.27923   0.48386   0.75011   0.01267  Uiso   1.00
Co4    Co    0.28715   0.57638   0.52931   0.01267  Uiso   1.00
Co5    Co    0.23564   0.59125   0.35004   0.01267  Uiso   1.00
C6     C     0.82140   0.18430   0.18230   0.01267  Uiso   1.00
C7     C     0.78670   0.20600   0.22000   0.01267  Uiso   1.00
C8     C     0.86200   0.20360   0.15120   0.01267  Uiso   1.00
C9     C     0.00670   0.37800   0.05680   0.01267  Uiso   1.00
C10    C     0.07420   0.39320   0.11100   0.01267  Uiso   1.00
C11    C     0.12040   0.40920   0.07720   0.01267  Uiso   1.00
C12    C     0.04610   0.38340   0.62790   0.01267  Uiso   1.00
C13    C     0.08930   0.41450   0.62070   0.01267  Uiso   1.00
C14    C     0.08880   0.42520   0.55090   0.01267  Uiso   1.00
C15    C     0.99280   0.37980   0.48660   0.01267  Uiso   1.00
C16    C     0.03930   0.40880   0.48450   0.01267  Uiso   1.00
C17    C     0.99670   0.36770   0.55690   0.01267  Uiso   1.00
C18    C     0.14430   0.43270   0.69820   0.01267  Uiso   1.00
C19    C     0.89260   0.30240   0.33400   0.01267  Uiso   1.00
C20    C     0.85890   0.32700   0.26940   0.01267  Uiso   1.00
C21    C     0.94060   0.36140   0.41330   0.01267  Uiso   1.00
C22    C     0.86300   0.36920   0.27880   0.01267  Uiso   1.00
C23    C     0.93350   0.31970   0.40680   0.01267  Uiso   1.00
C24    C     0.90600   0.38490   0.35040   0.01267  Uiso   1.00
C25    C     0.82610   0.30960   0.18920   0.01267  Uiso   1.00
C26    C     0.70470   0.34130   0.17630   0.01267  Uiso   1.00
C27    C     0.74180   0.32270   0.14240   0.01267  Uiso   1.00
C28    C     0.71040   0.30870   0.06910   0.01267  Uiso   1.00
C29    C     0.63350   0.35240   0.13170   0.01267  Uiso   1.00
C30    C     0.39480   0.39210   0.91580   0.01267  Uiso   1.00
C31    C     0.51200   0.36810   0.93350   0.01267  Uiso   1.00
C32    C     0.63690   0.32050   0.02140   0.01267  Uiso   1.00
C33    C     0.40870   0.37730   0.98720   0.01267  Uiso   1.00
C34    C     0.60030   0.34190   0.05720   0.01267  Uiso   1.00
C35    C     0.44390   0.38680   0.88410   0.01267  Uiso   1.00
C36    C     0.47650   0.36020   0.03590   0.01267  Uiso   1.00
C37    C     0.52830   0.35600   0.00730   0.01267  Uiso   1.00
C38    C     0.87020   0.32730   0.15120   0.01267  Uiso   1.00
C39    C     0.99090   0.33900   0.15940   0.01267  Uiso   1.00
C40    C     0.84350   0.35280   0.08360   0.01267  Uiso   1.00
C41    C     0.96170   0.36180   0.09190   0.01267  Uiso   1.00
C42    C     0.94560   0.32350   0.18870   0.01267  Uiso   1.00
C43    C     0.88940   0.36970   0.05440   0.01267  Uiso   1.00
C44    C     0.03260   0.39380   0.94630   0.01267  Uiso   1.00
C45    C     0.10050   0.40720   0.99670   0.01267  Uiso   1.00
C46    C     0.14470   0.42280   0.95050   0.01267  Uiso   1.00
C47    C     0.40240   0.54050   0.84570   0.01267  Uiso   1.00
C48    C     0.65360   0.45270   0.29950   0.01267  Uiso   1.00
C49    C     0.57630   0.48420   0.15290   0.01267  Uiso   1.00
C50    C     0.56320   0.49800   0.21360   0.01267  Uiso   1.00
C51    C     0.60510   0.48360   0.29070   0.01267  Uiso   1.00
C52    C     0.66930   0.44090   0.24390   0.01267  Uiso   1.00
C53    C     0.63160   0.45470   0.16480   0.01267  Uiso   1.00
C54    C     0.77250   0.45440   0.41210   0.01267  Uiso   1.00
C55    C     0.86760   0.49740   0.40380   0.01267  Uiso   1.00
C56    C     0.79830   0.47960   0.37050   0.01267  Uiso   1.00
C57    C     0.91480   0.48690   0.48140   0.01267  Uiso   1.00
C58    C     0.89290   0.46050   0.52840   0.01267  Uiso   1.00
C59    C     0.82230   0.44590   0.49240   0.01267  Uiso   1.00
C60    C     0.69900   0.39450   0.37400   0.01267  Uiso   1.00
C61    C     0.75250   0.32850   0.40140   0.01267  Uiso   1.00
C62    C     0.68990   0.31140   0.35910   0.01267  Uiso   1.00
C63    C     0.63480   0.37580   0.32420   0.01267  Uiso   1.00
C64    C     0.75880   0.36990   0.40970   0.01267  Uiso   1.00
C65    C     0.62860   0.33470   0.32040   0.01267  Uiso   1.00
C66    C     0.69600   0.43760   0.37840   0.01267  Uiso   1.00
C67    C     0.09340   0.52560   0.50600   0.01267  Uiso   1.00
C68    C     0.12380   0.53290   0.58620   0.01267  Uiso   1.00
C69    C     0.09270   0.52720   0.63240   0.01267  Uiso   1.00
C70    C     0.98850   0.50500   0.51780   0.01267  Uiso   1.00
C71    C     0.02420   0.50970   0.47280   0.01267  Uiso   1.00
C72    C     0.02210   0.51190   0.59630   0.01267  Uiso   1.00
C73    C     0.66310   0.44840   0.43410   0.01267  Uiso   1.00
C74    C     0.59770   0.47810   0.52290   0.01267  Uiso   1.00
C75    C     0.64490   0.50100   0.51160   0.01267  Uiso   1.00
C76    C     0.67720   0.48850   0.46610   0.01267  Uiso   1.00
C77    C     0.61910   0.42580   0.45090   0.01267  Uiso   1.00
C78    C     0.58620   0.43790   0.49530   0.01267  Uiso   1.00
C79    C     0.47170   0.52630   0.62810   0.01267  Uiso   1.00
C80    C     0.43760   0.50180   0.57020   0.01267  Uiso   1.00
C81    C     0.55180   0.49380   0.56340   0.01267  Uiso   1.00
C82    C     0.54410   0.53500   0.65710   0.01267  Uiso   1.00
C83    C     0.47750   0.48740   0.53540   0.01267  Uiso   1.00
C84    C     0.59020   0.51830   0.62980   0.01267  Uiso   1.00
C85    C     0.67690   0.18890   0.36050   0.01267  Uiso   1.00
C86    C     0.65060   0.20750   0.28810   0.01267  Uiso   1.00
C87    C     0.68190   0.26860   0.35470   0.01267  Uiso   1.00
C88    C     0.70300   0.20590   0.43000   0.01267  Uiso   1.00
C89    C     0.65140   0.24830   0.28700   0.01267  Uiso   1.00
C90    C     0.45030   0.52490   0.92370   0.01267  Uiso   1.00
C91    C     0.46610   0.48590   0.93700   0.01267  Uiso   1.00
C92    C     0.53280   0.49860   0.07160   0.01267  Uiso   1.00
C93    C     0.51270   0.47500   0.01300   0.01267  Uiso   1.00
C94    C     0.47180   0.55200   0.98440   0.01267  Uiso   1.00
C95    C     0.51300   0.53740   0.06120   0.01267  Uiso   1.00
C96    C     0.42800   0.54650   0.66280   0.01267  Uiso   1.00
C97    C     0.67580   0.14270   0.35990   0.01267  Uiso   1.00
C98    C     0.32740   0.41780   0.86830   0.01267  Uiso   1.00
C99    C     0.78810   0.24610   0.21890   0.01267  Uiso   1.00
C100   C     0.82790   0.26500   0.18770   0.01267  Uiso   1.00
C101   C     0.86430   0.24700   0.15070   0.01267  Uiso   1.00
C102   C     0.80130   0.01630   0.15650   0.01267  Uiso   1.00
C103   C     0.81790   0.14080   0.17790   0.01267  Uiso   1.00
C104   C     0.87200   0.07720   0.17860   0.01267  Uiso   1.00
C105   C     0.88030   0.11920   0.18730   0.01267  Uiso   1.00
C106   C     0.75120   0.08090   0.15870   0.01267  Uiso   1.00
C107   C     0.80910   0.06150   0.16660   0.01267  Uiso   1.00
C108   C     0.20040   0.54980   0.61860   0.01267  Uiso   1.00
C109   C     0.98760   0.37810   0.98050   0.01267  Uiso   1.00
C110   C     0.75460   0.12340   0.16660   0.01267  Uiso   1.00
C111   C     0.70710   0.24840   0.42510   0.01267  Uiso   1.00
C112   C     0.13520   0.62770   0.12850   0.01267  Uiso   1.00
C113   C     0.09000   0.65930   0.12940   0.01267  Uiso   1.00
C114   C     0.14210   0.61490   0.06550   0.01267  Uiso   1.00
C115   C     0.36980   0.60570   0.44440   0.01267  Uiso   1.00
C116   C     0.13890   0.60270   0.40900   0.01267  Uiso   1.00
C117   C     0.98290   0.67810   0.55860   0.01267  Uiso   1.00
C118   C     0.91040   0.67350   0.52430   0.01267  Uiso   1.00
C119   C     0.90900   0.70910   0.63890   0.01267  Uiso   1.00
C120   C     0.02060   0.69870   0.62910   0.01267  Uiso   1.00
C121   C     0.98570   0.71270   0.66580   0.01267  Uiso   1.00
C122   C     0.87540   0.68700   0.56610   0.01267  Uiso   1.00
C123   C     0.02590   0.65660   0.51570   0.01267  Uiso   1.00
C124   C     0.13110   0.64600   0.49880   0.01267  Uiso   1.00
C125   C     0.02670   0.60900   0.41800   0.01267  Uiso   1.00
C126   C     0.09440   0.67020   0.53870   0.01267  Uiso   1.00
C127   C     0.10040   0.62130   0.44790   0.01267  Uiso   1.00
C128   C     0.79180   0.70700   0.65060   0.01267  Uiso   1.00
C129   C     0.67240   0.70660   0.54620   0.01267  Uiso   1.00
C130   C     0.74200   0.72280   0.57810   0.01267  Uiso   1.00
C131   C     0.65350   0.67900   0.58410   0.01267  Uiso   1.00
C132   C     0.69580   0.66790   0.65480   0.01267  Uiso   1.00
C133   C     0.76680   0.68090   0.68630   0.01267  Uiso   1.00
C134   C     0.86990   0.72330   0.68260   0.01267  Uiso   1.00
C135   C     0.57570   0.66430   0.54990   0.01267  Uiso   1.00
C136   C     0.52920   0.67443   0.47550   0.01267  Uiso   1.00
C137   C     0.46270   0.65670   0.44010   0.01267  Uiso   1.00
C138   C     0.44270   0.62870   0.47900   0.01267  Uiso   1.00
C139   C     0.48910   0.61850   0.55330   0.01267  Uiso   1.00
C140   C     0.55560   0.63630   0.58870   0.01267  Uiso   1.00
C141   C     0.83650   0.84830   0.65290   0.01267  Uiso   1.00
C142   C     0.89360   0.79080   0.63780   0.01267  Uiso   1.00
C143   C     0.86480   0.76870   0.67690   0.01267  Uiso   1.00
C144   C     0.87890   0.83300   0.62850   0.01267  Uiso   1.00
C145   C     0.80240   0.82420   0.69170   0.01267  Uiso   1.00
C146   C     0.81780   0.78490   0.70600   0.01267  Uiso   1.00
C147   C     0.79290   0.94860   0.55700   0.01267  Uiso   1.00
C148   C     0.77670   0.97070   0.60910   0.01267  Uiso   1.00
C149   C     0.77930   0.95480   0.67640   0.01267  Uiso   1.00
C150   C     0.81360   0.89060   0.63620   0.01267  Uiso   1.00
C151   C     0.81240   0.90790   0.56960   0.01267  Uiso   1.00
C152   C     0.79770   0.91420   0.68880   0.01267  Uiso   1.00
C153   C     0.91410   0.70950   0.76380   0.01267  Uiso   1.00
C154   C     0.92930   0.67000   0.77440   0.01267  Uiso   1.00
C155   C     0.97090   0.65480   0.85110   0.01267  Uiso   1.00
C156   C     0.99610   0.67940   0.91080   0.01267  Uiso   1.00
C157   C     0.98290   0.71760   0.90180   0.01267  Uiso   1.00
C158   C     0.94060   0.73610   0.82730   0.01267  Uiso   1.00
C159   C     0.04820   0.66440   0.99180   0.01267  Uiso   1.00
C160   C     0.09160   0.63430   0.98910   0.01267  Uiso   1.00
C161   C     0.76140   0.01270   0.59210   0.01267  Uiso   1.00
C162   C     0.99370   0.62980   0.45960   0.01267  Uiso   1.00
C163   C     0.03670   0.68020   0.05260   0.01267  Uiso   1.00
O164   O     0.67170   0.12711   0.30010   0.01267  Uiso   1.00
O165   O     0.24250   0.54128   0.68940   0.01267  Uiso   1.00
O166   O     0.21830   0.57035   0.57710   0.01267  Uiso   1.00
O167   O     0.67730   0.12760   0.42080   0.01267  Uiso   1.00
O168   O     0.39730   0.57480   0.83310   0.01267  Uiso   1.00
O169   O     0.35920   0.54206   0.63050   0.01267  Uiso   1.00
O170   O     0.45490   0.56830   0.71970   0.01267  Uiso   1.00
O171   O     0.28790   0.41850   0.90360   0.01267  Uiso   1.00
O172   O     0.37490   0.51450   0.79280   0.01267  Uiso   1.00
O173   O     0.32660   0.43404   0.81290   0.01267  Uiso   1.00
O174   O     0.74980   0.00180   0.16280   0.01267  Uiso   1.00
O175   O     0.13640   0.42390   0.75050   0.01267  Uiso   1.00
O176   O     0.12780   0.41340   0.89250   0.01267  Uiso   1.00
O177   O     0.18870   0.45400   0.68330   0.01267  Uiso   1.00
O178   O     0.19590   0.44110   0.00050   0.01267  Uiso   1.00
O179   O     0.84630   0.99770   0.14200   0.01267  Uiso   1.00
O180   O     0.74710   0.02302   0.52600   0.01267  Uiso   1.00
O181   O     0.76000   0.03147   0.64540   0.01267  Uiso   1.00
O182   O     0.20640   0.60816   0.43140   0.01267  Uiso   1.00
O183   O     0.35960   0.58252   0.48490   0.01267  Uiso   1.00
O184   O     0.32930   0.61680   0.37870   0.01267  Uiso   1.00
O185   O     0.10610   0.57950   0.35380   0.01267  Uiso   1.00
H186   H     0.75823   0.19009   0.25059   0.00000  Uiso   1.00
H187   H     0.89362   0.18622   0.12601   0.00000  Uiso   1.00
H188   H     0.08853   0.39230   0.17474   0.00000  Uiso   1.00
H189   H     0.17336   0.42358   0.11539   0.00000  Uiso   1.00
H190   H     0.05332   0.37350   0.68693   0.00000  Uiso   1.00
H191   H     0.12915   0.44731   0.54938   0.00000  Uiso   1.00
H192   H     0.03583   0.41881   0.42692   0.00000  Uiso   1.00
H193   H     0.95774   0.34402   0.55572   0.00000  Uiso   1.00
H194   H     0.88669   0.26948   0.32710   0.00000  Uiso   1.00
H195   H     0.83134   0.38885   0.22805   0.00000  Uiso   1.00
H196   H     0.96041   0.30055   0.45955   0.00000  Uiso   1.00
H197   H     0.91223   0.41785   0.35628   0.00000  Uiso   1.00
H198   H     0.73151   0.34769   0.24021   0.00000  Uiso   1.00
H199   H     0.74161   0.28865   0.04756   0.00000  Uiso   1.00
H200   H     0.60359   0.37027   0.15822   0.00000  Uiso   1.00
H201   H     0.55419   0.36299   0.91144   0.00000  Uiso   1.00
H202   H     0.61075   0.31263  -0.04188   0.00000  Uiso   1.00
H203   H     0.36577   0.37842   1.00915   0.00000  Uiso   1.00
H204   H     0.42980   0.39683   0.82322   0.00000  Uiso   1.00
H205   H     1.05090   0.33348   0.18921   0.00000  Uiso   1.00
H206   H     0.78404   0.35965   0.05261   0.00000  Uiso   1.00
H207   H     0.96885   0.30693   0.24513   0.00000  Uiso   1.00
H208   H     0.86626   0.38909   0.00161   0.00000  Uiso   1.00
H209   H     0.01493   0.39548   0.88196   0.00000  Uiso   1.00
H210   H     0.51962   0.52058   0.20272   0.00000  Uiso   1.00
H211   H     0.60031   0.49603   0.34285   0.00000  Uiso   1.00
H212   H     0.71407   0.41892   0.25610   0.00000  Uiso   1.00
H213   H     0.64615   0.44255   0.11857   0.00000  Uiso   1.00
H214   H     0.88357   0.51894   0.36914   0.00000  Uiso   1.00
H215   H     0.76318   0.48634   0.30781   0.00000  Uiso   1.00
H216   H     0.93220   0.45319   0.58948   0.00000  Uiso   1.00
H217   H     0.80443   0.42661   0.52882   0.00000  Uiso   1.00
H218   H     0.80248   0.31004   0.43190   0.00000  Uiso   1.00
H219   H     0.58655   0.39389   0.28595   0.00000  Uiso   1.00
H220   H     0.81359   0.38291   0.44608   0.00000  Uiso   1.00
H221   H     0.57436   0.32056   0.28625   0.00000  Uiso   1.00
H222   H     0.12505   0.53263   0.47185   0.00000  Uiso   1.00
H223   H     0.12249   0.53446   0.69575   0.00000  Uiso   1.00
H224   H    -0.00234   0.50078   0.41008   0.00000  Uiso   1.00
H225   H    -0.00840   0.50497   0.63171   0.00000  Uiso   1.00
H226   H     0.65855   0.53092   0.53956   0.00000  Uiso   1.00
H227   H     0.71420   0.50887   0.45347   0.00000  Uiso   1.00
H228   H     0.60739   0.39480   0.42794   0.00000  Uiso   1.00
H229   H     0.55081   0.41773   0.51085   0.00000  Uiso   1.00
H230   H     0.37915   0.49429   0.55307   0.00000  Uiso   1.00
H231   H     0.56885   0.55681   0.70578   0.00000  Uiso   1.00
H232   H     0.45102   0.46927   0.48114   0.00000  Uiso   1.00
H233   H     0.65056   0.52180   0.65293   0.00000  Uiso   1.00
H234   H     0.62986   0.18932   0.23363   0.00000  Uiso   1.00
H235   H     0.71878   0.18729   0.48350   0.00000  Uiso   1.00
H236   H     0.62693   0.26465   0.23036   0.00000  Uiso   1.00
H237   H     0.44209   0.46411   0.88817   0.00000  Uiso   1.00
H238   H     0.53276   0.44369   0.02143   0.00000  Uiso   1.00
H239   H     0.45667   0.58398   0.97200   0.00000  Uiso   1.00
H240   H     0.52908   0.55752   0.11270   0.00000  Uiso   1.00
H241   H     0.75634   0.26356   0.24380   0.00000  Uiso   1.00
H242   H     0.89272   0.26533   0.12314   0.00000  Uiso   1.00
H243   H     0.91862   0.05842   0.18207   0.00000  Uiso   1.00
H244   H     0.93267   0.13504   0.20083   0.00000  Uiso   1.00
H245   H     0.69942   0.06459   0.14590   0.00000  Uiso   1.00
H246   H     0.93391   0.36547   0.93946   0.00000  Uiso   1.00
H247   H     0.70785   0.14188   0.16375   0.00000  Uiso   1.00
H248   H     0.73188   0.26517   0.48124   0.00000  Uiso   1.00
H249   H     0.16873   0.61132   0.18350   0.00000  Uiso   1.00
H250   H     0.09183   0.66991   0.18595   0.00000  Uiso   1.00
H251   H     0.18299   0.59144   0.07131   0.00000  Uiso   1.00
H252   H     0.88344   0.65938   0.46549   0.00000  Uiso   1.00
H253   H     0.08089   0.70279   0.65290   0.00000  Uiso   1.00
H254   H     1.01559   0.72876   0.72214   0.00000  Uiso   1.00
H255   H     0.81593   0.67995   0.54052   0.00000  Uiso   1.00
H256   H     0.19049   0.65006   0.51528   0.00000  Uiso   1.00
H257   H     0.00521   0.58662   0.37000   0.00000  Uiso   1.00
H258   H     0.11448   0.69546   0.58073   0.00000  Uiso   1.00
H259   H     0.63129   0.71674   0.48781   0.00000  Uiso   1.00
H260   H     0.75610   0.74697   0.54667   0.00000  Uiso   1.00
H261   H     0.67403   0.64850   0.68763   0.00000  Uiso   1.00
H262   H     0.80420   0.66862   0.74448   0.00000  Uiso   1.00
H263   H     0.54565   0.69730   0.44352   0.00000  Uiso   1.00
H264   H     0.42456   0.66510   0.37921   0.00000  Uiso   1.00
H265   H     0.47262   0.59557   0.58513   0.00000  Uiso   1.00
H266   H     0.59375   0.62795   0.64962   0.00000  Uiso   1.00
H267   H     0.92853   0.77651   0.61286   0.00000  Uiso   1.00
H268   H     0.90534   0.85190   0.59960   0.00000  Uiso   1.00
H269   H     0.76248   0.83791   0.71054   0.00000  Uiso   1.00
H270   H     0.79551   0.76571   0.73864   0.00000  Uiso   1.00
H271   H     0.79084   0.96278   0.50291   0.00000  Uiso   1.00
H272   H     0.76723   0.97378   0.71766   0.00000  Uiso   1.00
H273   H     0.82594   0.89127   0.52663   0.00000  Uiso   1.00
H274   H     0.80031   0.89906   0.74228   0.00000  Uiso   1.00
H275   H     0.90925   0.64952   0.72316   0.00000  Uiso   1.00
H276   H     0.98186   0.62226   0.86014   0.00000  Uiso   1.00
H277   H     1.00484   0.73775   0.95352   0.00000  Uiso   1.00
H278   H     0.93138   0.76888   0.82372   0.00000  Uiso   1.00
H279   H     0.09094   0.62373   0.93304   0.00000  Uiso   1.00
H280   H     0.93531   0.62425   0.44626   0.00000  Uiso   1.00
H281   H    -0.00157   0.70353   0.05451   0.00000  Uiso   1.00
loop_
_geom_bond_atom_site_label_1
_geom_bond_atom_site_label_2
_geom_bond_distance
_geom_bond_site_symmetry_2
_ccdc_geom_bond_type
Co1    O165    2.105   .     S
Co1    O168    2.065   .     S
Co1    O169    2.109   .     S
Co1    O164    1.970   2_656 S
Co2    O171    2.003   .     S
Co2    O175    2.011   .     S
Co2    O176    2.009   .     S
Co2    O179    2.017   2_646 S
Co3    O172    2.078   .     S
Co3    O173    2.086   .     S
Co3    O177    2.041   .     S
Co3    O174    2.112   2_656 S
Co4    O166    2.018   .     S
Co4    O169    2.225   .     S
Co4    O182    2.206   .     S
Co4    O183    2.037   .     S
Co4    O167    1.991   2_656 S
Co4    O180    2.089   2_656 S
Co5    O182    2.003   .     S
Co5    O184    1.981   .     S
Co5    O181    2.057   2_656 S
C6     C7      1.435   .     A
C6     C8      1.395   .     A
C6     C103    1.498   .     S
C7     C99     1.379   .     A
C7     H186    1.140   .     S
C8     C101    1.493   .     A
C8     H187    1.140   .     S
C9     C10     1.439   .     A
C9     C41     1.479   1_455 S
C9     C109    1.356   1_454 S
C10    C11     1.479   .     A
C10    H188    1.140   .     S
C11    H189    1.140   .     S
C11    C45     1.434   1_554 S
C12    C13     1.439   .     A
C12    H190    1.140   .     S
C12    C17     1.422   1_455 S
C13    C14     1.397   .     A
C13    C18     1.574   .     S
C14    C16     1.376   .     A
C14    H191    1.140   .     S
C15    C17     1.393   .     A
C15    C21     1.506   .     S
C15    C16     1.399   1_655 S
C16    H192    1.140   .     S
C16    C15     1.399   1_455 S
C17    H193    1.140   .     S
C17    C12     1.422   1_655 S
C18    O175    1.135   .     A
C18    O177    1.302   .     A
C19    C20     1.421   .     A
C19    C23     1.427   .     A
C19    H194    1.140   .     S
C20    C22     1.460   .     A
C20    C25     1.526   .     S
C21    C23     1.441   .     A
C21    C24     1.379   .     A
C22    C24     1.396   .     A
C22    H195    1.140   .     S
C23    H196    1.140   .     S
C24    H197    1.140   .     S
C25    C27     1.649   .     S
C25    C38     1.525   .     S
C25    C100    1.534   .     S
C26    C27     1.366   .     A
C26    C29     1.406   .     A
C26    H198    1.140   .     S
C27    C28     1.371   .     A
C28    C32     1.460   .     A
C28    H199    1.140   .     S
C29    C34     1.354   .     A
C29    H200    1.140   .     S
C30    C33     1.383   .     A
C30    C35     1.408   .     A
C30    C98     1.573   .     S
C31    C35     1.470   .     A
C31    H201    1.140   .     S
C31    C37     1.385   1_556 S
C32    C34     1.432   .     A
C32    H202    1.140   .     S
C33    H203    1.140   .     S
C33    C36     1.440   1_556 S
C34    C37     1.469   .     S
C35    H204    1.140   .     S
C36    C37     1.411   .     D
C36    C33     1.440   1_554 S
C37    C31     1.385   1_554 S
C38    C40     1.472   .     A
C38    C42     1.419   .     A
C39    C41     1.418   .     A
C39    C42     1.395   .     A
C39    H205    1.140   .     S
C40    C43     1.423   .     A
C40    H206    1.140   .     S
C41    C43     1.383   .     A
C41    C9      1.479   1_655 S
C42    H207    1.140   .     S
C43    H208    1.140   .     S
C44    C45     1.402   .     A
C44    H209    1.140   .     S
C44    C109    1.460   1_455 A
C45    C46     1.623   .     S
C45    C11     1.434   1_556 S
C46    O176    1.073   .     S
C46    O178    1.256   1_556 A
C47    C90     1.506   .     S
C47    O168    1.199   .     A
C47    O172    1.293   .     A
C48    C51     1.422   .     A
C48    C52     1.316   .     A
C48    C66     1.492   .     S
C49    C50     1.399   .     A
C49    C53     1.473   .     A
C49    C92     1.523   .     S
C50    C51     1.455   .     A
C50    H210    1.140   .     S
C51    H211    1.140   .     S
C52    C53     1.468   .     A
C52    H212    1.140   .     S
C53    H213    1.140   .     S
C54    C56     1.434   .     A
C54    C59     1.481   .     A
C54    C66     1.545   .     S
C55    C56     1.435   .     A
C55    C57     1.444   .     A
C55    H214    1.140   .     S
C56    H215    1.140   .     S
C57    C58     1.488   .     A
C57    C70     1.514   .     S
C58    C59     1.416   .     A
C58    H216    1.140   .     S
C59    H217    1.140   .     S
C60    C63     1.419   .     A
C60    C64     1.412   .     A
C60    C66     1.487   .     S
C61    C62     1.337   .     A
C61    C64     1.432   .     A
C61    H218    1.140   .     S
C62    C65     1.414   .     A
C62    C87     1.479   .     S
C63    C65     1.418   .     A
C63    H219    1.140   .     S
C64    H220    1.140   .     S
C65    H221    1.140   .     S
C66    C73     1.549   .     S
C67    C68     1.426   .     A
C67    C71     1.406   .     A
C67    H222    1.140   .     S
C68    C69     1.323   .     A
C68    C108    1.548   .     S
C69    C72     1.424   .     A
C69    H223    1.140   .     S
C70    C71     1.374   1_655 S
C70    C72     1.395   1_655 A
C71    H224    1.140   .     S
C71    C70     1.374   1_455 S
C72    H225    1.140   .     S
C72    C70     1.395   1_455 A
C73    C76     1.488   .     A
C73    C77     1.340   .     A
C74    C75     1.345   .     A
C74    C78     1.464   .     A
C74    C81     1.567   .     S
C75    C76     1.385   .     A
C75    H226    1.140   .     S
C76    H227    1.140   .     S
C77    C78     1.372   .     A
C77    H228    1.140   .     S
C78    H229    1.140   .     S
C79    C80     1.337   .     A
C79    C82     1.391   .     A
C79    C96     1.509   .     S
C80    C83     1.365   .     A
C80    H230    1.140   .     S
C81    C83     1.413   .     A
C81    C84     1.456   .     A
C82    C84     1.399   .     A
C82    H231    1.140   .     S
C83    H232    1.140   .     S
C84    H233    1.140   .     S
C85    C86     1.420   .     A
C85    C88     1.350   .     A
C85    C97     1.588   .     S
C86    C89     1.403   .     A
C86    H234    1.140   .     S
C87    C89     1.377   .     A
C87    C111    1.416   .     A
C88    C111    1.469   .     A
C88    H235    1.140   .     S
C89    H236    1.140   .     S
C90    C91     1.378   .     A
C90    C94     1.414   .     A
C91    H237    1.140   .     S
C91    C93     1.421   1_556 S
C92    C93     1.309   .     A
C92    C95     1.385   .     A
C93    H238    1.140   .     S
C93    C91     1.421   1_554 S
C94    H239    1.140   .     S
C94    C95     1.451   1_556 S
C95    H240    1.140   .     S
C95    C94     1.451   1_554 S
C96    O169    1.297   .     S
C96    O170    1.249   .     D
C97    O164    1.246   .     A
C97    O167    1.277   .     A
C98    O171    1.273   .     A
C98    O173    1.204   .     A
C99    C100    1.377   .     A
C99    H241    1.140   .     S
C100   C101    1.390   .     A
C101   H242    1.140   .     S
C102   C107    1.566   .     S
C102   O174    1.231   .     A
C102   O179    1.258   1_545 S
C103   C105    1.434   .     A
C103   C110    1.371   .     A
C104   C105    1.455   .     A
C104   C107    1.336   .     A
C104   H243    1.140   .     S
C105   H244    1.140   .     S
C106   C107    1.323   .     A
C106   C110    1.467   .     A
C106   H245    1.140   .     S
C108   O165    1.304   .     A
C108   O166    1.241   .     A
C109   H246    1.140   .     S
C109   C9      1.356   1_656 S
C109   C44     1.460   1_655 A
C110   H247    1.140   .     S
C111   H248    1.140   .     S
C112   C113    1.440   .     A
C112   C114    1.362   .     A
C112   H249    1.140   .     S
C113   C163    1.594   .     A
C113   H250    1.140   .     S
C114   H251    1.140   .     S
C114   C160    1.550   1_554 A
C115   C138    1.577   .     S
C115   O183    1.199   .     A
C115   O184    1.246   .     A
C116   C127    1.460   .     S
C116   O182    1.288   .     S
C116   O185    1.272   .     D
C117   C118    1.367   .     A
C117   C120    1.436   1_655 S
C117   C123    1.633   1_655 S
C118   C122    1.379   .     A
C118   H252    1.140   .     S
C119   C121    1.450   .     A
C119   C122    1.486   .     A
C119   C134    1.484   .     S
C120   H253    1.140   .     S
C120   C117    1.436   1_455 S
C120   C121    1.305   1_455 A
C121   H254    1.140   .     S
C121   C120    1.305   1_655 A
C122   H255    1.140   .     S
C123   C126    1.375   .     A
C123   C117    1.633   1_455 S
C123   C162    1.361   1_455 A
C124   C126    1.541   .     A
C124   C127    1.249   .     A
C124   H256    1.140   .     S
C125   C127    1.445   .     A
C125   H257    1.140   .     S
C125   C162    1.450   1_455 S
C126   H258    1.140   .     S
C128   C130    1.445   .     A
C128   C133    1.364   .     A
C128   C134    1.568   .     S
C129   C130    1.417   .     A
C129   C131    1.356   .     A
C129   H259    1.140   .     S
C130   H260    1.140   .     S
C131   C132    1.326   .     A
C131   C135    1.542   .     S
C132   C133    1.403   .     A
C132   H261    1.140   .     S
C133   H262    1.140   .     S
C134   C143    1.565   .     S
C134   C153    1.517   .     S
C135   C136    1.391   .     A
C135   C140    1.391   .     A
C136   C137    1.389   .     A
C136   H263    1.140   .     S
C137   C138    1.391   .     A
C137   H264    1.140   .     S
C138   C139    1.390   .     A
C139   C140    1.390   .     A
C139   H265    1.140   .     S
C140   H266    1.140   .     S
C141   C144    1.277   .     A
C141   C145    1.486   .     A
C141   C150    1.521   .     S
C142   C143    1.377   .     A
C142   C144    1.477   .     A
C142   H267    1.140   .     S
C143   C146    1.432   .     A
C144   H268    1.140   .     S
C145   C146    1.388   .     A
C145   H269    1.140   .     S
C146   H270    1.140   .     S
C147   C148    1.414   .     A
C147   C151    1.448   .     A
C147   H271    1.140   .     S
C148   C149    1.394   .     A
C148   C161    1.484   1_565 A
C149   C152    1.440   .     A
C149   H272    1.140   .     S
C150   C151    1.411   .     A
C150   C152    1.447   .     A
C151   H273    1.140   .     S
C152   H274    1.140   .     S
C153   C154    1.389   .     A
C153   C158    1.439   .     A
C154   C155    1.458   .     A
C154   H275    1.140   .     S
C155   C156    1.344   .     A
C155   H276    1.140   .     S
C156   C157    1.337   .     A
C156   C159    1.562   1_655 S
C157   C158    1.473   .     A
C157   H277    1.140   .     S
C158   H278    1.140   .     S
C159   C160    1.387   .     A
C159   C156    1.562   1_455 S
C159   C163    1.407   1_556 A
C160   H279    1.140   .     S
C160   C114    1.550   1_556 A
C161   O180    1.236   .     A
C161   O181    1.229   .     A
C161   C148    1.484   1_545 A
C162   H280    1.140   .     S
C162   C123    1.361   1_655 A
C162   C125    1.450   1_655 S
C163   H281    1.140   .     S
C163   C159    1.407   1_554 A
O164   Co1     1.970   2_646 S
O167   Co4     1.991   2_646 S
O174   Co3     2.112   2_646 S
O178   C46     1.256   1_554 A
O179   Co2     2.017   2_656 S
O179   C102    1.258   1_565 S
O180   Co4     2.089   2_646 S
O181   Co5     2.057   2_646 S
