data_VEWXAY_clean
_audit_creation_date              2014-07-02
_audit_creation_method            'Materials Studio'
_symmetry_space_group_name_H-M    'P1'
_symmetry_Int_Tables_number       1
_symmetry_cell_setting            triclinic
loop_
_symmetry_equiv_pos_as_xyz
  x,y,z
_cell_length_a                    17.1250
_cell_length_b                    22.1015
_cell_length_c                    24.9380
_cell_angle_alpha                 90.0000
_cell_angle_beta                  90.0000
_cell_angle_gamma                 112.7940
loop_
_atom_site_label
_atom_site_type_symbol
_atom_site_fract_x
_atom_site_fract_y
_atom_site_fract_z
_atom_site_U_iso_or_equiv
_atom_site_adp_type
_atom_site_occupancy
Cd1    Cd    0.75000   0.50000   0.93226   0.01267  Uiso   1.00
Cd2    Cd    0.25000   0.50000   0.43226   0.01267  Uiso   1.00
Cd3    Cd    0.75000   0.00000   0.43929   0.01267  Uiso   1.00
Cd4    Cd    0.75000   0.00000   0.93929   0.01267  Uiso   1.00
H1     H     0.77530   0.87720   0.49450   0.01267  Uiso   1.00
H2     H     0.72580   0.80040   0.56170   0.01267  Uiso   1.00
H3     H     0.56290   0.88020   0.59980   0.01267  Uiso   1.00
H4     H     0.61480   0.95220   0.53090   0.01267  Uiso   1.00
H5     H     0.64990   0.72140   0.61450   0.01267  Uiso   1.00
H6     H     0.70410   0.77000   0.65910   0.01267  Uiso   1.00
H7     H     0.47620   0.68980   0.65400   0.01267  Uiso   1.00
H8     H     0.46940   0.63240   0.69370   0.01267  Uiso   1.00
H9     H     0.36090   0.61840   0.61630   0.01267  Uiso   1.00
H10    H     0.27020   0.57620   0.54570   0.01267  Uiso   1.00
H11    H     0.44140   0.53860   0.46730   0.01267  Uiso   1.00
H12    H     0.53630   0.57600   0.53740   0.01267  Uiso   1.00
H13    H     0.54150   0.71520   0.76350   0.01267  Uiso   1.00
H14    H     0.54960   0.77240   0.72300   0.01267  Uiso   1.00
H15    H     0.55760   0.82100   0.80320   0.01267  Uiso   1.00
H16    H     0.59090   0.89580   0.87330   0.01267  Uiso   1.00
H17    H     0.82420   0.92960   0.86040   0.01267  Uiso   1.00
H18    H     0.79790   0.85280   0.79270   0.01267  Uiso   1.00
H19    H     0.68930   0.68740   0.72500   0.01267  Uiso   1.00
H20    H     0.64920   0.63800   0.67780   0.01267  Uiso   1.00
H21    H     0.74140   0.63320   0.76370   0.01267  Uiso   1.00
H22    H     0.79040   0.58520   0.82930   0.01267  Uiso   1.00
H23    H     0.56370   0.48040   0.87670   0.01267  Uiso   1.00
H24    H     0.50830   0.52400   0.81100   0.01267  Uiso   1.00
H25    H     0.72470   0.12280   0.49450   0.01267  Uiso   1.00
H26    H     0.77420   0.19960   0.56170   0.01267  Uiso   1.00
H27    H     0.93710   0.11980   0.59980   0.01267  Uiso   1.00
H28    H     0.88520   0.04780   0.53090   0.01267  Uiso   1.00
H29    H     0.85010   0.27860   0.61450   0.01267  Uiso   1.00
H30    H     0.79590   0.23000   0.65910   0.01267  Uiso   1.00
H31    H     0.02380   0.31020   0.65400   0.01267  Uiso   1.00
H32    H     0.03060   0.36760   0.69370   0.01267  Uiso   1.00
H33    H     0.13910   0.38160   0.61630   0.01267  Uiso   1.00
H34    H     0.22980   0.42380   0.54570   0.01267  Uiso   1.00
H35    H     0.05860   0.46140   0.46730   0.01267  Uiso   1.00
H36    H     0.96370   0.42400   0.53740   0.01267  Uiso   1.00
H37    H     0.95850   0.28480   0.76350   0.01267  Uiso   1.00
H38    H     0.95040   0.22760   0.72300   0.01267  Uiso   1.00
H39    H     0.94240   0.17900   0.80320   0.01267  Uiso   1.00
H40    H     0.90910   0.10420   0.87330   0.01267  Uiso   1.00
H41    H     0.67580   0.07040   0.86040   0.01267  Uiso   1.00
H42    H     0.70210   0.14720   0.79270   0.01267  Uiso   1.00
H43    H     0.81070   0.31260   0.72500   0.01267  Uiso   1.00
H44    H     0.85080   0.36200   0.67780   0.01267  Uiso   1.00
H45    H     0.75860   0.36680   0.76370   0.01267  Uiso   1.00
H46    H     0.70960   0.41480   0.82930   0.01267  Uiso   1.00
H47    H     0.93630   0.51960   0.87670   0.01267  Uiso   1.00
H48    H     0.99170   0.47600   0.81100   0.01267  Uiso   1.00
H49    H     0.89810   0.12280   0.99450   0.01267  Uiso   1.00
H50    H     0.92540   0.19960   0.06170   0.01267  Uiso   1.00
H51    H     0.68270   0.11980   0.09980   0.01267  Uiso   1.00
H52    H     0.66260   0.04780   0.03090   0.01267  Uiso   1.00
H53    H     0.92850   0.27860   0.11450   0.01267  Uiso   1.00
H54    H     0.93410   0.23000   0.15910   0.01267  Uiso   1.00
H55    H     0.78640   0.31020   0.15400   0.01267  Uiso   1.00
H56    H     0.83700   0.36760   0.19370   0.01267  Uiso   1.00
H57    H     0.74250   0.38160   0.11630   0.01267  Uiso   1.00
H58    H     0.69400   0.42380   0.04570   0.01267  Uiso   1.00
H59    H     0.90280   0.46140   0.96730   0.01267  Uiso   1.00
H60    H     0.96030   0.42400   0.03740   0.01267  Uiso   1.00
H61    H     0.82630   0.28480   0.26350   0.01267  Uiso   1.00
H62    H     0.77720   0.22760   0.22300   0.01267  Uiso   1.00
H63    H     0.73660   0.17900   0.30320   0.01267  Uiso   1.00
H64    H     0.69510   0.10420   0.37330   0.01267  Uiso   1.00
H65    H     0.89460   0.07040   0.36040   0.01267  Uiso   1.00
H66    H     0.94510   0.14720   0.29270   0.01267  Uiso   1.00
H67    H     0.00190   0.31260   0.22500   0.01267  Uiso   1.00
H68    H     0.01120   0.36200   0.17780   0.01267  Uiso   1.00
H69    H     0.10820   0.36680   0.26370   0.01267  Uiso   1.00
H70    H     0.20520   0.41480   0.32930   0.01267  Uiso   1.00
H71    H     0.08330   0.51960   0.37670   0.01267  Uiso   1.00
H72    H     0.98430   0.47600   0.31100   0.01267  Uiso   1.00
H73    H     0.60190   0.87720   0.99450   0.01267  Uiso   1.00
H74    H     0.57460   0.80040   0.06170   0.01267  Uiso   1.00
H75    H     0.81730   0.88020   0.09980   0.01267  Uiso   1.00
H76    H     0.83740   0.95220   0.03090   0.01267  Uiso   1.00
H77    H     0.57150   0.72140   0.11450   0.01267  Uiso   1.00
H78    H     0.56590   0.77000   0.15910   0.01267  Uiso   1.00
H79    H     0.71360   0.68980   0.15400   0.01267  Uiso   1.00
H80    H     0.66300   0.63240   0.19370   0.01267  Uiso   1.00
H81    H     0.75750   0.61840   0.11630   0.01267  Uiso   1.00
H82    H     0.80600   0.57620   0.04570   0.01267  Uiso   1.00
H83    H     0.59720   0.53860   0.96730   0.01267  Uiso   1.00
H84    H     0.53970   0.57600   0.03740   0.01267  Uiso   1.00
H85    H     0.67370   0.71520   0.26350   0.01267  Uiso   1.00
H86    H     0.72280   0.77240   0.22300   0.01267  Uiso   1.00
H87    H     0.76340   0.82100   0.30320   0.01267  Uiso   1.00
H88    H     0.80490   0.89580   0.37330   0.01267  Uiso   1.00
H89    H     0.60540   0.92960   0.36040   0.01267  Uiso   1.00
H90    H     0.55490   0.85280   0.29270   0.01267  Uiso   1.00
H91    H     0.49810   0.68740   0.22500   0.01267  Uiso   1.00
H92    H     0.48880   0.63800   0.17780   0.01267  Uiso   1.00
H93    H     0.39180   0.63320   0.26370   0.01267  Uiso   1.00
H94    H     0.29480   0.58520   0.32930   0.01267  Uiso   1.00
H95    H     0.41670   0.48040   0.37670   0.01267  Uiso   1.00
H96    H     0.51570   0.52400   0.31100   0.01267  Uiso   1.00
C1     C     0.73120   0.87780   0.51606   0.01267  Uiso   1.00
C2     C     0.70231   0.83162   0.55691   0.01267  Uiso   1.00
C3     C     0.63990   0.83240   0.58964   0.01267  Uiso   1.00
C4     C     0.60681   0.87822   0.57894   0.01267  Uiso   1.00
C5     C     0.63852   0.92144   0.53728   0.01267  Uiso   1.00
C6     C     0.64721   0.74682   0.64559   0.01267  Uiso   1.00
C7     C     0.59165   0.70256   0.68845   0.01267  Uiso   1.00
C8     C     0.50424   0.66168   0.66636   0.01267  Uiso   1.00
C9     C     0.45811   0.60182   0.58416   0.01267  Uiso   1.00
C10    C     0.37846   0.60172   0.58645   0.01267  Uiso   1.00
C11    C     0.32469   0.57658   0.54378   0.01267  Uiso   1.00
C12    C     0.42454   0.55408   0.49807   0.01267  Uiso   1.00
C13    C     0.48267   0.57714   0.53966   0.01267  Uiso   1.00
C14    C     0.57621   0.74342   0.73559   0.01267  Uiso   1.00
C15    C     0.67238   0.82536   0.79342   0.01267  Uiso   1.00
C16    C     0.61328   0.84076   0.81510   0.01267  Uiso   1.00
C17    C     0.63437   0.88754   0.85671   0.01267  Uiso   1.00
C18    C     0.76826   0.90672   0.84990   0.01267  Uiso   1.00
C19    C     0.75323   0.85986   0.80884   0.01267  Uiso   1.00
C20    C     0.63639   0.66038   0.70786   0.01267  Uiso   1.00
C21    C     0.61889   0.58698   0.78185   0.01267  Uiso   1.00
C22    C     0.70344   0.60308   0.78697   0.01267  Uiso   1.00
C23    C     0.73235   0.57430   0.82696   0.01267  Uiso   1.00
C24    C     0.60034   0.51288   0.85450   0.01267  Uiso   1.00
C25    C     0.56679   0.53898   0.81513   0.01267  Uiso   1.00
C26    C     0.76880   0.12220   0.51606   0.01267  Uiso   1.00
C27    C     0.79769   0.16838   0.55691   0.01267  Uiso   1.00
C28    C     0.86010   0.16760   0.58964   0.01267  Uiso   1.00
C29    C     0.89319   0.12178   0.57894   0.01267  Uiso   1.00
C30    C     0.86148   0.07856   0.53728   0.01267  Uiso   1.00
C31    C     0.85279   0.25318   0.64559   0.01267  Uiso   1.00
C32    C     0.90835   0.29744   0.68845   0.01267  Uiso   1.00
C33    C     0.99576   0.33832   0.66636   0.01267  Uiso   1.00
C34    C     0.04189   0.39818   0.58416   0.01267  Uiso   1.00
C35    C     0.12154   0.39828   0.58645   0.01267  Uiso   1.00
C36    C     0.17531   0.42342   0.54378   0.01267  Uiso   1.00
C37    C     0.07546   0.44592   0.49807   0.01267  Uiso   1.00
C38    C     0.01733   0.42286   0.53966   0.01267  Uiso   1.00
C39    C     0.92379   0.25658   0.73559   0.01267  Uiso   1.00
C40    C     0.82762   0.17464   0.79342   0.01267  Uiso   1.00
C41    C     0.88672   0.15924   0.81510   0.01267  Uiso   1.00
C42    C     0.86563   0.11246   0.85671   0.01267  Uiso   1.00
C43    C     0.73174   0.09328   0.84990   0.01267  Uiso   1.00
C44    C     0.74677   0.14014   0.80884   0.01267  Uiso   1.00
C45    C     0.86361   0.33962   0.70786   0.01267  Uiso   1.00
C46    C     0.88111   0.41302   0.78185   0.01267  Uiso   1.00
C47    C     0.79656   0.39692   0.78697   0.01267  Uiso   1.00
C48    C     0.76765   0.42570   0.82696   0.01267  Uiso   1.00
C49    C     0.89966   0.48712   0.85450   0.01267  Uiso   1.00
C50    C     0.93321   0.46102   0.81513   0.01267  Uiso   1.00
C51    C     0.85340   0.12220   0.01606   0.01267  Uiso   1.00
C52    C     0.87069   0.16838   0.05691   0.01267  Uiso   1.00
C53    C     0.80750   0.16760   0.08964   0.01267  Uiso   1.00
C54    C     0.72859   0.12178   0.07894   0.01267  Uiso   1.00
C55    C     0.71708   0.07856   0.03728   0.01267  Uiso   1.00
C56    C     0.90039   0.25318   0.14559   0.01267  Uiso   1.00
C57    C     0.88909   0.29744   0.18845   0.01267  Uiso   1.00
C58    C     0.84256   0.33832   0.16636   0.01267  Uiso   1.00
C59    C     0.85629   0.39818   0.08416   0.01267  Uiso   1.00
C60    C     0.77674   0.39828   0.08645   0.01267  Uiso   1.00
C61    C     0.74811   0.42342   0.04378   0.01267  Uiso   1.00
C62    C     0.87046   0.44592   0.99807   0.01267  Uiso   1.00
C63    C     0.90553   0.42286   0.03966   0.01267  Uiso   1.00
C64    C     0.83279   0.25658   0.23559   0.01267  Uiso   1.00
C65    C     0.84702   0.17464   0.29342   0.01267  Uiso   1.00
C66    C     0.77252   0.15924   0.31510   0.01267  Uiso   1.00
C67    C     0.74683   0.11246   0.35671   0.01267  Uiso   1.00
C68    C     0.86154   0.09328   0.34990   0.01267  Uiso   1.00
C69    C     0.89337   0.14014   0.30884   0.01267  Uiso   1.00
C70    C     0.97601   0.33962   0.20786   0.01267  Uiso   1.00
C71    C     0.03191   0.41302   0.28185   0.01267  Uiso   1.00
C72    C     0.10036   0.39692   0.28697   0.01267  Uiso   1.00
C73    C     0.15805   0.42570   0.32696   0.01267  Uiso   1.00
C74    C     0.08746   0.48712   0.35450   0.01267  Uiso   1.00
C75    C     0.02781   0.46102   0.31513   0.01267  Uiso   1.00
C76    C     0.64660   0.87780   0.01606   0.01267  Uiso   1.00
C77    C     0.62931   0.83162   0.05691   0.01267  Uiso   1.00
C78    C     0.69250   0.83240   0.08964   0.01267  Uiso   1.00
C79    C     0.77141   0.87822   0.07894   0.01267  Uiso   1.00
C80    C     0.78292   0.92144   0.03728   0.01267  Uiso   1.00
C81    C     0.59961   0.74682   0.14559   0.01267  Uiso   1.00
C82    C     0.61091   0.70256   0.18845   0.01267  Uiso   1.00
C83    C     0.65744   0.66168   0.16636   0.01267  Uiso   1.00
C84    C     0.64371   0.60182   0.08416   0.01267  Uiso   1.00
C85    C     0.72326   0.60172   0.08645   0.01267  Uiso   1.00
C86    C     0.75189   0.57658   0.04378   0.01267  Uiso   1.00
C87    C     0.62954   0.55408   0.99807   0.01267  Uiso   1.00
C88    C     0.59447   0.57714   0.03966   0.01267  Uiso   1.00
C89    C     0.66721   0.74342   0.23559   0.01267  Uiso   1.00
C90    C     0.65298   0.82536   0.29342   0.01267  Uiso   1.00
C91    C     0.72748   0.84076   0.31510   0.01267  Uiso   1.00
C92    C     0.75317   0.88754   0.35671   0.01267  Uiso   1.00
C93    C     0.63846   0.90672   0.34990   0.01267  Uiso   1.00
C94    C     0.60663   0.85986   0.30884   0.01267  Uiso   1.00
C95    C     0.52399   0.66038   0.20786   0.01267  Uiso   1.00
C96    C     0.46809   0.58698   0.28185   0.01267  Uiso   1.00
C97    C     0.39964   0.60308   0.28697   0.01267  Uiso   1.00
C98    C     0.34195   0.57430   0.32696   0.01267  Uiso   1.00
C99    C     0.41254   0.51288   0.35450   0.01267  Uiso   1.00
C100   C     0.47219   0.53898   0.31513   0.01267  Uiso   1.00
N1     N     0.69966   0.92198   0.50635   0.01267  Uiso   1.00
N2     N     0.34722   0.55264   0.49950   0.01267  Uiso   1.00
N3     N     0.68352   0.53246   0.86210   0.01267  Uiso   1.00
N4     N     0.71262   0.92006   0.87329   0.01267  Uiso   1.00
N5     N     0.80034   0.07802   0.50635   0.01267  Uiso   1.00
N6     N     0.15278   0.44736   0.49950   0.01267  Uiso   1.00
N7     N     0.81648   0.46754   0.86210   0.01267  Uiso   1.00
N8     N     0.78738   0.07994   0.87329   0.01267  Uiso   1.00
N9     N     0.77768   0.07802   0.00635   0.01267  Uiso   1.00
N10    N     0.79458   0.44736   0.99950   0.01267  Uiso   1.00
N11    N     0.15106   0.46754   0.36210   0.01267  Uiso   1.00
N12    N     0.79256   0.07994   0.37329   0.01267  Uiso   1.00
N13    N     0.72232   0.92198   0.00635   0.01267  Uiso   1.00
N14    N     0.70542   0.55264   0.99950   0.01267  Uiso   1.00
N15    N     0.34894   0.53246   0.36210   0.01267  Uiso   1.00
N16    N     0.70744   0.92006   0.37329   0.01267  Uiso   1.00
O1     O     0.60865   0.79276   0.63149   0.01267  Uiso   1.00
O2     O     0.51813   0.62516   0.62271   0.01267  Uiso   1.00
O3     O     0.66483   0.78144   0.75480   0.01267  Uiso   1.00
O4     O     0.58203   0.61246   0.74607   0.01267  Uiso   1.00
O5     O     0.89135   0.20724   0.63149   0.01267  Uiso   1.00
O6     O     0.98187   0.37484   0.62271   0.01267  Uiso   1.00
O7     O     0.83517   0.21856   0.75480   0.01267  Uiso   1.00
O8     O     0.91797   0.38754   0.74607   0.01267  Uiso   1.00
O9     O     0.81589   0.20724   0.13149   0.01267  Uiso   1.00
O10    O     0.89297   0.37484   0.12271   0.01267  Uiso   1.00
O11    O     0.88339   0.21856   0.25480   0.01267  Uiso   1.00
O12    O     0.96957   0.38754   0.24607   0.01267  Uiso   1.00
O13    O     0.68411   0.79276   0.13149   0.01267  Uiso   1.00
O14    O     0.60703   0.62516   0.12271   0.01267  Uiso   1.00
O15    O     0.61661   0.78144   0.25480   0.01267  Uiso   1.00
O16    O     0.53043   0.61246   0.24607   0.01267  Uiso   1.00
Cd5    Cd    0.75000   0.50000   0.56774   0.01267  Uiso   1.00
Cd6    Cd    0.25000   0.50000   0.06774   0.01267  Uiso   1.00
Cd7    Cd    0.25000   0.00000   0.06071   0.01267  Uiso   1.00
Cd8    Cd    0.25000   0.00000   0.56071   0.01267  Uiso   1.00
H97    H     0.10190   0.87720   0.00550   0.01267  Uiso   1.00
H98    H     0.07460   0.80040   0.93830   0.01267  Uiso   1.00
H99    H     0.31730   0.88020   0.90020   0.01267  Uiso   1.00
H100   H     0.33740   0.95220   0.96910   0.01267  Uiso   1.00
H101   H     0.07150   0.72140   0.88550   0.01267  Uiso   1.00
H102   H     0.06590   0.77000   0.84090   0.01267  Uiso   1.00
H103   H     0.21360   0.68980   0.84600   0.01267  Uiso   1.00
H104   H     0.16300   0.63240   0.80630   0.01267  Uiso   1.00
H105   H     0.25750   0.61840   0.88370   0.01267  Uiso   1.00
H106   H     0.30600   0.57620   0.95430   0.01267  Uiso   1.00
H107   H     0.09720   0.53860   0.03270   0.01267  Uiso   1.00
H108   H     0.03970   0.57600   0.96260   0.01267  Uiso   1.00
H109   H     0.17370   0.71520   0.73650   0.01267  Uiso   1.00
H110   H     0.22280   0.77240   0.77700   0.01267  Uiso   1.00
H111   H     0.26340   0.82100   0.69680   0.01267  Uiso   1.00
H112   H     0.30490   0.89580   0.62670   0.01267  Uiso   1.00
H113   H     0.10540   0.92960   0.63960   0.01267  Uiso   1.00
H114   H     0.05490   0.85280   0.70730   0.01267  Uiso   1.00
H115   H     0.99810   0.68740   0.77500   0.01267  Uiso   1.00
H116   H     0.98880   0.63800   0.82220   0.01267  Uiso   1.00
H117   H     0.89180   0.63320   0.73630   0.01267  Uiso   1.00
H118   H     0.79480   0.58520   0.67070   0.01267  Uiso   1.00
H119   H     0.91670   0.48040   0.62330   0.01267  Uiso   1.00
H120   H     0.01570   0.52400   0.68900   0.01267  Uiso   1.00
H121   H     0.39810   0.12280   0.00550   0.01267  Uiso   1.00
H122   H     0.42540   0.19960   0.93830   0.01267  Uiso   1.00
H123   H     0.18270   0.11980   0.90020   0.01267  Uiso   1.00
H124   H     0.16260   0.04780   0.96910   0.01267  Uiso   1.00
H125   H     0.42850   0.27860   0.88550   0.01267  Uiso   1.00
H126   H     0.43410   0.23000   0.84090   0.01267  Uiso   1.00
H127   H     0.28640   0.31020   0.84600   0.01267  Uiso   1.00
H128   H     0.33700   0.36760   0.80630   0.01267  Uiso   1.00
H129   H     0.24250   0.38160   0.88370   0.01267  Uiso   1.00
H130   H     0.19400   0.42380   0.95430   0.01267  Uiso   1.00
H131   H     0.40280   0.46140   0.03270   0.01267  Uiso   1.00
H132   H     0.46030   0.42400   0.96260   0.01267  Uiso   1.00
H133   H     0.32630   0.28480   0.73650   0.01267  Uiso   1.00
H134   H     0.27720   0.22760   0.77700   0.01267  Uiso   1.00
H135   H     0.23660   0.17900   0.69680   0.01267  Uiso   1.00
H136   H     0.19510   0.10420   0.62670   0.01267  Uiso   1.00
H137   H     0.39460   0.07040   0.63960   0.01267  Uiso   1.00
H138   H     0.44510   0.14720   0.70730   0.01267  Uiso   1.00
H139   H     0.50190   0.31260   0.77500   0.01267  Uiso   1.00
H140   H     0.51120   0.36200   0.82220   0.01267  Uiso   1.00
H141   H     0.60820   0.36680   0.73630   0.01267  Uiso   1.00
H142   H     0.70520   0.41480   0.67070   0.01267  Uiso   1.00
H143   H     0.58330   0.51960   0.62330   0.01267  Uiso   1.00
H144   H     0.48430   0.47600   0.68900   0.01267  Uiso   1.00
H145   H     0.22470   0.12280   0.50550   0.01267  Uiso   1.00
H146   H     0.27420   0.19960   0.43830   0.01267  Uiso   1.00
H147   H     0.43710   0.11980   0.40020   0.01267  Uiso   1.00
H148   H     0.38520   0.04780   0.46910   0.01267  Uiso   1.00
H149   H     0.35010   0.27860   0.38550   0.01267  Uiso   1.00
H150   H     0.29590   0.23000   0.34090   0.01267  Uiso   1.00
H151   H     0.52380   0.31020   0.34600   0.01267  Uiso   1.00
H152   H     0.53060   0.36760   0.30630   0.01267  Uiso   1.00
H153   H     0.63910   0.38160   0.38370   0.01267  Uiso   1.00
H154   H     0.72980   0.42380   0.45430   0.01267  Uiso   1.00
H155   H     0.55860   0.46140   0.53270   0.01267  Uiso   1.00
H156   H     0.46370   0.42400   0.46260   0.01267  Uiso   1.00
H157   H     0.45850   0.28480   0.23650   0.01267  Uiso   1.00
H158   H     0.45040   0.22760   0.27700   0.01267  Uiso   1.00
H159   H     0.44240   0.17900   0.19680   0.01267  Uiso   1.00
H160   H     0.40910   0.10420   0.12670   0.01267  Uiso   1.00
H161   H     0.17580   0.07040   0.13960   0.01267  Uiso   1.00
H162   H     0.20210   0.14720   0.20730   0.01267  Uiso   1.00
H163   H     0.31070   0.31260   0.27500   0.01267  Uiso   1.00
H164   H     0.35080   0.36200   0.32220   0.01267  Uiso   1.00
H165   H     0.25860   0.36680   0.23630   0.01267  Uiso   1.00
H166   H     0.20960   0.41480   0.17070   0.01267  Uiso   1.00
H167   H     0.43630   0.51960   0.12330   0.01267  Uiso   1.00
H168   H     0.49170   0.47600   0.18900   0.01267  Uiso   1.00
H169   H     0.27530   0.87720   0.50550   0.01267  Uiso   1.00
H170   H     0.22580   0.80040   0.43830   0.01267  Uiso   1.00
H171   H     0.06290   0.88020   0.40020   0.01267  Uiso   1.00
H172   H     0.11480   0.95220   0.46910   0.01267  Uiso   1.00
H173   H     0.14990   0.72140   0.38550   0.01267  Uiso   1.00
H174   H     0.20410   0.77000   0.34090   0.01267  Uiso   1.00
H175   H     0.97620   0.68980   0.34600   0.01267  Uiso   1.00
H176   H     0.96940   0.63240   0.30630   0.01267  Uiso   1.00
H177   H     0.86090   0.61840   0.38370   0.01267  Uiso   1.00
H178   H     0.77020   0.57620   0.45430   0.01267  Uiso   1.00
H179   H     0.94140   0.53860   0.53270   0.01267  Uiso   1.00
H180   H     0.03630   0.57600   0.46260   0.01267  Uiso   1.00
H181   H     0.04150   0.71520   0.23650   0.01267  Uiso   1.00
H182   H     0.04960   0.77240   0.27700   0.01267  Uiso   1.00
H183   H     0.05760   0.82100   0.19680   0.01267  Uiso   1.00
H184   H     0.09090   0.89580   0.12670   0.01267  Uiso   1.00
H185   H     0.32420   0.92960   0.13960   0.01267  Uiso   1.00
H186   H     0.29790   0.85280   0.20730   0.01267  Uiso   1.00
H187   H     0.18930   0.68740   0.27500   0.01267  Uiso   1.00
H188   H     0.14920   0.63800   0.32220   0.01267  Uiso   1.00
H189   H     0.24140   0.63320   0.23630   0.01267  Uiso   1.00
H190   H     0.29040   0.58520   0.17070   0.01267  Uiso   1.00
H191   H     0.06370   0.48040   0.12330   0.01267  Uiso   1.00
H192   H     0.00830   0.52400   0.18900   0.01267  Uiso   1.00
C101   C     0.14660   0.87780   0.98394   0.01267  Uiso   1.00
C102   C     0.12931   0.83162   0.94309   0.01267  Uiso   1.00
C103   C     0.19250   0.83240   0.91036   0.01267  Uiso   1.00
C104   C     0.27141   0.87822   0.92106   0.01267  Uiso   1.00
C105   C     0.28292   0.92144   0.96272   0.01267  Uiso   1.00
C106   C     0.09961   0.74682   0.85441   0.01267  Uiso   1.00
C107   C     0.11091   0.70256   0.81155   0.01267  Uiso   1.00
C108   C     0.15744   0.66168   0.83364   0.01267  Uiso   1.00
C109   C     0.14371   0.60182   0.91584   0.01267  Uiso   1.00
C110   C     0.22326   0.60172   0.91355   0.01267  Uiso   1.00
C111   C     0.25189   0.57658   0.95622   0.01267  Uiso   1.00
C112   C     0.12954   0.55408   0.00193   0.01267  Uiso   1.00
C113   C     0.09447   0.57714   0.96034   0.01267  Uiso   1.00
C114   C     0.16721   0.74342   0.76441   0.01267  Uiso   1.00
C115   C     0.15298   0.82536   0.70658   0.01267  Uiso   1.00
C116   C     0.22748   0.84076   0.68490   0.01267  Uiso   1.00
C117   C     0.25317   0.88754   0.64329   0.01267  Uiso   1.00
C118   C     0.13846   0.90672   0.65010   0.01267  Uiso   1.00
C119   C     0.10663   0.85986   0.69116   0.01267  Uiso   1.00
C120   C     0.02399   0.66038   0.79214   0.01267  Uiso   1.00
C121   C     0.96809   0.58698   0.71815   0.01267  Uiso   1.00
C122   C     0.89964   0.60308   0.71303   0.01267  Uiso   1.00
C123   C     0.84195   0.57430   0.67304   0.01267  Uiso   1.00
C124   C     0.91254   0.51288   0.64550   0.01267  Uiso   1.00
C125   C     0.97219   0.53898   0.68487   0.01267  Uiso   1.00
C126   C     0.35340   0.12220   0.98394   0.01267  Uiso   1.00
C127   C     0.37069   0.16838   0.94309   0.01267  Uiso   1.00
C128   C     0.30750   0.16760   0.91036   0.01267  Uiso   1.00
C129   C     0.22859   0.12178   0.92106   0.01267  Uiso   1.00
C130   C     0.21708   0.07856   0.96272   0.01267  Uiso   1.00
C131   C     0.40039   0.25318   0.85441   0.01267  Uiso   1.00
C132   C     0.38909   0.29744   0.81155   0.01267  Uiso   1.00
C133   C     0.34256   0.33832   0.83364   0.01267  Uiso   1.00
C134   C     0.35629   0.39818   0.91584   0.01267  Uiso   1.00
C135   C     0.27674   0.39828   0.91355   0.01267  Uiso   1.00
C136   C     0.24811   0.42342   0.95622   0.01267  Uiso   1.00
C137   C     0.37046   0.44592   0.00193   0.01267  Uiso   1.00
C138   C     0.40553   0.42286   0.96034   0.01267  Uiso   1.00
C139   C     0.33279   0.25658   0.76441   0.01267  Uiso   1.00
C140   C     0.34702   0.17464   0.70658   0.01267  Uiso   1.00
C141   C     0.27252   0.15924   0.68490   0.01267  Uiso   1.00
C142   C     0.24683   0.11246   0.64329   0.01267  Uiso   1.00
C143   C     0.36154   0.09328   0.65010   0.01267  Uiso   1.00
C144   C     0.39337   0.14014   0.69116   0.01267  Uiso   1.00
C145   C     0.47601   0.33962   0.79214   0.01267  Uiso   1.00
C146   C     0.53191   0.41302   0.71815   0.01267  Uiso   1.00
C147   C     0.60036   0.39692   0.71303   0.01267  Uiso   1.00
C148   C     0.65805   0.42570   0.67304   0.01267  Uiso   1.00
C149   C     0.58746   0.48712   0.64550   0.01267  Uiso   1.00
C150   C     0.52781   0.46102   0.68487   0.01267  Uiso   1.00
C151   C     0.26880   0.12220   0.48394   0.01267  Uiso   1.00
C152   C     0.29769   0.16838   0.44309   0.01267  Uiso   1.00
C153   C     0.36010   0.16760   0.41036   0.01267  Uiso   1.00
C154   C     0.39319   0.12178   0.42106   0.01267  Uiso   1.00
C155   C     0.36148   0.07856   0.46272   0.01267  Uiso   1.00
C156   C     0.35279   0.25318   0.35441   0.01267  Uiso   1.00
C157   C     0.40835   0.29744   0.31155   0.01267  Uiso   1.00
C158   C     0.49576   0.33832   0.33364   0.01267  Uiso   1.00
C159   C     0.54189   0.39818   0.41584   0.01267  Uiso   1.00
C160   C     0.62154   0.39828   0.41355   0.01267  Uiso   1.00
C161   C     0.67531   0.42342   0.45622   0.01267  Uiso   1.00
C162   C     0.57546   0.44592   0.50193   0.01267  Uiso   1.00
C163   C     0.51733   0.42286   0.46034   0.01267  Uiso   1.00
C164   C     0.42379   0.25658   0.26441   0.01267  Uiso   1.00
C165   C     0.32762   0.17464   0.20658   0.01267  Uiso   1.00
C166   C     0.38672   0.15924   0.18490   0.01267  Uiso   1.00
C167   C     0.36563   0.11246   0.14329   0.01267  Uiso   1.00
C168   C     0.23174   0.09328   0.15010   0.01267  Uiso   1.00
C169   C     0.24677   0.14014   0.19116   0.01267  Uiso   1.00
C170   C     0.36361   0.33962   0.29214   0.01267  Uiso   1.00
C171   C     0.38111   0.41302   0.21815   0.01267  Uiso   1.00
C172   C     0.29656   0.39692   0.21303   0.01267  Uiso   1.00
C173   C     0.26765   0.42570   0.17304   0.01267  Uiso   1.00
C174   C     0.39966   0.48712   0.14550   0.01267  Uiso   1.00
C175   C     0.43321   0.46102   0.18487   0.01267  Uiso   1.00
C176   C     0.23120   0.87780   0.48394   0.01267  Uiso   1.00
C177   C     0.20231   0.83162   0.44309   0.01267  Uiso   1.00
C178   C     0.13990   0.83240   0.41036   0.01267  Uiso   1.00
C179   C     0.10681   0.87822   0.42106   0.01267  Uiso   1.00
C180   C     0.13852   0.92144   0.46272   0.01267  Uiso   1.00
C181   C     0.14721   0.74682   0.35441   0.01267  Uiso   1.00
C182   C     0.09165   0.70256   0.31155   0.01267  Uiso   1.00
C183   C     0.00424   0.66168   0.33364   0.01267  Uiso   1.00
C184   C     0.95811   0.60182   0.41584   0.01267  Uiso   1.00
C185   C     0.87846   0.60172   0.41355   0.01267  Uiso   1.00
C186   C     0.82469   0.57658   0.45622   0.01267  Uiso   1.00
C187   C     0.92454   0.55408   0.50193   0.01267  Uiso   1.00
C188   C     0.98267   0.57714   0.46034   0.01267  Uiso   1.00
C189   C     0.07621   0.74342   0.26441   0.01267  Uiso   1.00
C190   C     0.17238   0.82536   0.20658   0.01267  Uiso   1.00
C191   C     0.11328   0.84076   0.18490   0.01267  Uiso   1.00
C192   C     0.13437   0.88754   0.14329   0.01267  Uiso   1.00
C193   C     0.26826   0.90672   0.15010   0.01267  Uiso   1.00
C194   C     0.25323   0.85986   0.19116   0.01267  Uiso   1.00
C195   C     0.13639   0.66038   0.29214   0.01267  Uiso   1.00
C196   C     0.11889   0.58698   0.21815   0.01267  Uiso   1.00
C197   C     0.20344   0.60308   0.21303   0.01267  Uiso   1.00
C198   C     0.23235   0.57430   0.17304   0.01267  Uiso   1.00
C199   C     0.10034   0.51288   0.14550   0.01267  Uiso   1.00
C200   C     0.06679   0.53898   0.18487   0.01267  Uiso   1.00
N17    N     0.22232   0.92198   0.99365   0.01267  Uiso   1.00
N18    N     0.20542   0.55264   0.00050   0.01267  Uiso   1.00
N19    N     0.84894   0.53246   0.63790   0.01267  Uiso   1.00
N20    N     0.20744   0.92006   0.62671   0.01267  Uiso   1.00
N21    N     0.27768   0.07802   0.99365   0.01267  Uiso   1.00
N22    N     0.29458   0.44736   0.00050   0.01267  Uiso   1.00
N23    N     0.65106   0.46754   0.63790   0.01267  Uiso   1.00
N24    N     0.29256   0.07994   0.62671   0.01267  Uiso   1.00
N25    N     0.30034   0.07802   0.49365   0.01267  Uiso   1.00
N26    N     0.65278   0.44736   0.50050   0.01267  Uiso   1.00
N27    N     0.31648   0.46754   0.13790   0.01267  Uiso   1.00
N28    N     0.28738   0.07994   0.12671   0.01267  Uiso   1.00
N29    N     0.19966   0.92198   0.49365   0.01267  Uiso   1.00
N30    N     0.84722   0.55264   0.50050   0.01267  Uiso   1.00
N31    N     0.18352   0.53246   0.13790   0.01267  Uiso   1.00
N32    N     0.21262   0.92006   0.12671   0.01267  Uiso   1.00
O17    O     0.18411   0.79276   0.86851   0.01267  Uiso   1.00
O18    O     0.10703   0.62516   0.87729   0.01267  Uiso   1.00
O19    O     0.11661   0.78144   0.74520   0.01267  Uiso   1.00
O20    O     0.03043   0.61246   0.75393   0.01267  Uiso   1.00
O21    O     0.31589   0.20724   0.86851   0.01267  Uiso   1.00
O22    O     0.39297   0.37484   0.87729   0.01267  Uiso   1.00
O23    O     0.38339   0.21856   0.74520   0.01267  Uiso   1.00
O24    O     0.46957   0.38754   0.75393   0.01267  Uiso   1.00
O25    O     0.39135   0.20724   0.36851   0.01267  Uiso   1.00
O26    O     0.48187   0.37484   0.37729   0.01267  Uiso   1.00
O27    O     0.33517   0.21856   0.24520   0.01267  Uiso   1.00
O28    O     0.41797   0.38754   0.25393   0.01267  Uiso   1.00
O29    O     0.10865   0.79276   0.36851   0.01267  Uiso   1.00
O30    O     0.01813   0.62516   0.37729   0.01267  Uiso   1.00
O31    O     0.16483   0.78144   0.24520   0.01267  Uiso   1.00
O32    O     0.08203   0.61246   0.25393   0.01267  Uiso   1.00
