data_VEXTUO_clean
_audit_creation_date              2015-07-07
_audit_creation_method            'Materials Studio'
_symmetry_space_group_name_H-M    'P1'
_symmetry_Int_Tables_number       1
_symmetry_cell_setting            triclinic
loop_
_symmetry_equiv_pos_as_xyz
  x,y,z
_cell_length_a                    18.8523
_cell_length_b                    18.8523
_cell_length_c                    18.8523
_cell_angle_alpha                 60.5177
_cell_angle_beta                  60.5177
_cell_angle_gamma                 60.5177
loop_
_atom_site_label
_atom_site_type_symbol
_atom_site_fract_x
_atom_site_fract_y
_atom_site_fract_z
_atom_site_U_iso_or_equiv
_atom_site_adp_type
_atom_site_occupancy
Ni1    Ni    0.35129   0.25126   0.14832   0.01267  Uiso   1.00
Ni2    Ni    0.14855   0.35122   0.25110   0.01267  Uiso   1.00
Ni3    Ni    0.25133   0.14848   0.35107   0.01267  Uiso   1.00
Ni4    Ni    0.64855   0.75126   0.85107   0.01267  Uiso   1.00
Ni5    Ni    0.85129   0.64848   0.75111   0.01267  Uiso   1.00
Ni6    Ni    0.75133   0.85122   0.64832   0.01267  Uiso   1.00
H7     H     0.74434   0.29576   0.89361   0.01267  Uiso   1.00
H8     H     0.80103   0.40861   0.85470   0.01267  Uiso   1.00
H9     H     0.54895   0.59780   0.85952   0.01267  Uiso   1.00
H10    H     0.49175   0.48553   0.90500   0.01267  Uiso   1.00
H11    H     0.48059   0.34826   0.04629   0.01267  Uiso   1.00
H12    H     0.89383   0.74428   0.29560   0.01267  Uiso   1.00
H13    H     0.85492   0.80097   0.40846   0.01267  Uiso   1.00
H14    H     0.85975   0.54888   0.59764   0.01267  Uiso   1.00
H15    H     0.90523   0.49169   0.48537   0.01267  Uiso   1.00
H16    H     0.04652   0.48053   0.34810   0.01267  Uiso   1.00
H17    H     0.29583   0.89377   0.74412   0.01267  Uiso   1.00
H18    H     0.40868   0.85485   0.80081   0.01267  Uiso   1.00
H19    H     0.59787   0.85968   0.54873   0.01267  Uiso   1.00
H20    H     0.48559   0.90516   0.49153   0.01267  Uiso   1.00
H21    H     0.34833   0.04645   0.48037   0.01267  Uiso   1.00
H22    H     0.20859   0.75275   0.60456   0.01267  Uiso   1.00
H23    H     0.09523   0.69622   0.64438   0.01267  Uiso   1.00
H24    H     0.90701   0.94908   0.63752   0.01267  Uiso   1.00
H25    H     0.01956   0.00593   0.59155   0.01267  Uiso   1.00
H26    H     0.15490   0.01811   0.45162   0.01267  Uiso   1.00
H27    H     0.75282   0.60472   0.20837   0.01267  Uiso   1.00
H28    H     0.69629   0.64453   0.09500   0.01267  Uiso   1.00
H29    H     0.94915   0.63768   0.90678   0.01267  Uiso   1.00
H30    H     0.00600   0.59171   0.01933   0.01267  Uiso   1.00
H31    H     0.01818   0.45178   0.15467   0.01267  Uiso   1.00
H32    H     0.60479   0.20853   0.75260   0.01267  Uiso   1.00
H33    H     0.64460   0.09516   0.69606   0.01267  Uiso   1.00
H34    H     0.63774   0.90694   0.94892   0.01267  Uiso   1.00
H35    H     0.59178   0.01949   0.00577   0.01267  Uiso   1.00
H36    H     0.45184   0.15483   0.01795   0.01267  Uiso   1.00
H37    H     0.25282   0.70853   0.10456   0.01267  Uiso   1.00
H38    H     0.19629   0.59516   0.14437   0.01267  Uiso   1.00
H39    H     0.44915   0.40694   0.13752   0.01267  Uiso   1.00
H40    H     0.50600   0.51949   0.09155   0.01267  Uiso   1.00
H41    H     0.51818   0.65483   0.95162   0.01267  Uiso   1.00
H42    H     0.10478   0.25275   0.70837   0.01267  Uiso   1.00
H43    H     0.14460   0.19622   0.59500   0.01267  Uiso   1.00
H44    H     0.13774   0.44908   0.40678   0.01267  Uiso   1.00
H45    H     0.09178   0.50593   0.51933   0.01267  Uiso   1.00
H46    H     0.95184   0.51811   0.65467   0.01267  Uiso   1.00
H47    H     0.70859   0.10472   0.25260   0.01267  Uiso   1.00
H48    H     0.59523   0.14453   0.19606   0.01267  Uiso   1.00
H49    H     0.40701   0.13768   0.44892   0.01267  Uiso   1.00
H50    H     0.51956   0.09171   0.50577   0.01267  Uiso   1.00
H51    H     0.65490   0.95178   0.51796   0.01267  Uiso   1.00
H52    H     0.79583   0.24428   0.39361   0.01267  Uiso   1.00
H53    H     0.90868   0.30097   0.35470   0.01267  Uiso   1.00
H54    H     0.09787   0.04888   0.35952   0.01267  Uiso   1.00
H55    H     0.98559   0.99169   0.40500   0.01267  Uiso   1.00
H56    H     0.84833   0.98053   0.54629   0.01267  Uiso   1.00
H57    H     0.24434   0.39377   0.79560   0.01267  Uiso   1.00
H58    H     0.30103   0.35485   0.90846   0.01267  Uiso   1.00
H59    H     0.04895   0.35968   0.09764   0.01267  Uiso   1.00
H60    H     0.99175   0.40516   0.98537   0.01267  Uiso   1.00
H61    H     0.98059   0.54645   0.84810   0.01267  Uiso   1.00
H62    H     0.39383   0.79576   0.24412   0.01267  Uiso   1.00
H63    H     0.35492   0.90861   0.30081   0.01267  Uiso   1.00
H64    H     0.35975   0.09780   0.04873   0.01267  Uiso   1.00
H65    H     0.40522   0.98553   0.99153   0.01267  Uiso   1.00
H66    H     0.54651   0.84826   0.98037   0.01267  Uiso   1.00
H67    H     0.66034   0.25273   0.83619   0.01267  Uiso   1.00
H68    H     0.83641   0.66027   0.25258   0.01267  Uiso   1.00
H69    H     0.25280   0.83634   0.66011   0.01267  Uiso   1.00
H70    H     0.33641   0.75273   0.16011   0.01267  Uiso   1.00
H71    H     0.16034   0.33634   0.75257   0.01267  Uiso   1.00
H72    H     0.75280   0.16027   0.33619   0.01267  Uiso   1.00
C73    C     0.70085   0.36148   0.88710   0.01267  Uiso   1.00
C74    C     0.73347   0.42658   0.86492   0.01267  Uiso   1.00
C75    C     0.59229   0.53199   0.87024   0.01267  Uiso   1.00
C76    C     0.55951   0.46720   0.89438   0.01267  Uiso   1.00
C77    C     0.61252   0.38029   0.90407   0.01267  Uiso   1.00
C78    C     0.67918   0.51325   0.85804   0.01267  Uiso   1.00
C79    C     0.57264   0.31128   0.93661   0.01267  Uiso   1.00
C80    C     0.49939   0.30664   0.01261   0.01267  Uiso   1.00
C81    C     0.71047   0.58470   0.83785   0.01267  Uiso   1.00
C82    C     0.88733   0.70079   0.36132   0.01267  Uiso   1.00
C83    C     0.86515   0.73340   0.42642   0.01267  Uiso   1.00
C84    C     0.87046   0.59223   0.53183   0.01267  Uiso   1.00
C85    C     0.89461   0.55945   0.46704   0.01267  Uiso   1.00
C86    C     0.90429   0.61245   0.38013   0.01267  Uiso   1.00
C87    C     0.85826   0.67912   0.51309   0.01267  Uiso   1.00
C88    C     0.93684   0.57257   0.31112   0.01267  Uiso   1.00
C89    C     0.01283   0.49933   0.30649   0.01267  Uiso   1.00
C90    C     0.83808   0.71041   0.58455   0.01267  Uiso   1.00
C91    C     0.36154   0.88726   0.70063   0.01267  Uiso   1.00
C92    C     0.42665   0.86508   0.73324   0.01267  Uiso   1.00
C93    C     0.53206   0.87040   0.59207   0.01267  Uiso   1.00
C94    C     0.46726   0.89454   0.55929   0.01267  Uiso   1.00
C95    C     0.38036   0.90423   0.61229   0.01267  Uiso   1.00
C96    C     0.51332   0.85820   0.67896   0.01267  Uiso   1.00
C97    C     0.31135   0.93677   0.57241   0.01267  Uiso   1.00
C98    C     0.30671   0.01277   0.49917   0.01267  Uiso   1.00
C99    C     0.58477   0.83801   0.71025   0.01267  Uiso   1.00
C100   C     0.14295   0.79640   0.61085   0.01267  Uiso   1.00
C101   C     0.07761   0.76388   0.63353   0.01267  Uiso   1.00
C102   C     0.97271   0.90548   0.62714   0.01267  Uiso   1.00
C103   C     0.03766   0.93810   0.60263   0.01267  Uiso   1.00
C104   C     0.12442   0.88485   0.59314   0.01267  Uiso   1.00
C105   C     0.99110   0.81847   0.64012   0.01267  Uiso   1.00
C106   C     0.19348   0.92465   0.56029   0.01267  Uiso   1.00
C107   C     0.19729   0.99850   0.48478   0.01267  Uiso   1.00
C108   C     0.91917   0.78772   0.66084   0.01267  Uiso   1.00
C109   C     0.79647   0.61100   0.14273   0.01267  Uiso   1.00
C110   C     0.76395   0.63369   0.07738   0.01267  Uiso   1.00
C111   C     0.90554   0.62730   0.97248   0.01267  Uiso   1.00
C112   C     0.93816   0.60279   0.03743   0.01267  Uiso   1.00
C113   C     0.88492   0.59330   0.12420   0.01267  Uiso   1.00
C114   C     0.81853   0.64028   0.99088   0.01267  Uiso   1.00
C115   C     0.92471   0.56045   0.19325   0.01267  Uiso   1.00
C116   C     0.99857   0.48494   0.19707   0.01267  Uiso   1.00
C117   C     0.78779   0.66100   0.91894   0.01267  Uiso   1.00
C118   C     0.61107   0.14289   0.79624   0.01267  Uiso   1.00
C119   C     0.63376   0.07754   0.76372   0.01267  Uiso   1.00
C120   C     0.62736   0.97264   0.90532   0.01267  Uiso   1.00
C121   C     0.60285   0.03759   0.93794   0.01267  Uiso   1.00
C122   C     0.59337   0.12436   0.88469   0.01267  Uiso   1.00
C123   C     0.64034   0.99104   0.81831   0.01267  Uiso   1.00
C124   C     0.56052   0.19341   0.92449   0.01267  Uiso   1.00
C125   C     0.48500   0.19722   0.99834   0.01267  Uiso   1.00
C126   C     0.66107   0.91910   0.78757   0.01267  Uiso   1.00
C127   C     0.29647   0.64289   0.11085   0.01267  Uiso   1.00
C128   C     0.26395   0.57754   0.13353   0.01267  Uiso   1.00
C129   C     0.40555   0.47264   0.12714   0.01267  Uiso   1.00
C130   C     0.43816   0.53759   0.10263   0.01267  Uiso   1.00
C131   C     0.38492   0.62436   0.09314   0.01267  Uiso   1.00
C132   C     0.31853   0.49104   0.14012   0.01267  Uiso   1.00
C133   C     0.42471   0.69341   0.06029   0.01267  Uiso   1.00
C134   C     0.49856   0.69722   0.98478   0.01267  Uiso   1.00
C135   C     0.28779   0.41910   0.16084   0.01267  Uiso   1.00
C136   C     0.11107   0.29640   0.64273   0.01267  Uiso   1.00
C137   C     0.13376   0.26388   0.57738   0.01267  Uiso   1.00
C138   C     0.12736   0.40548   0.47248   0.01267  Uiso   1.00
C139   C     0.10285   0.43810   0.53743   0.01267  Uiso   1.00
C140   C     0.09337   0.38485   0.62420   0.01267  Uiso   1.00
C141   C     0.14034   0.31847   0.49088   0.01267  Uiso   1.00
C142   C     0.06051   0.42465   0.69325   0.01267  Uiso   1.00
C143   C     0.98500   0.49850   0.69707   0.01267  Uiso   1.00
C144   C     0.16107   0.28772   0.41894   0.01267  Uiso   1.00
C145   C     0.64295   0.11100   0.29624   0.01267  Uiso   1.00
C146   C     0.57761   0.13369   0.26372   0.01267  Uiso   1.00
C147   C     0.47271   0.12730   0.40532   0.01267  Uiso   1.00
C148   C     0.53766   0.10279   0.43794   0.01267  Uiso   1.00
C149   C     0.62442   0.09330   0.38469   0.01267  Uiso   1.00
C150   C     0.49110   0.14028   0.31831   0.01267  Uiso   1.00
C151   C     0.69348   0.06045   0.42449   0.01267  Uiso   1.00
C152   C     0.69729   0.98494   0.49834   0.01267  Uiso   1.00
C153   C     0.41917   0.16100   0.28757   0.01267  Uiso   1.00
C154   C     0.86154   0.20079   0.38710   0.01267  Uiso   1.00
C155   C     0.92665   0.23340   0.36492   0.01267  Uiso   1.00
C156   C     0.03206   0.09223   0.37024   0.01267  Uiso   1.00
C157   C     0.96726   0.05945   0.39438   0.01267  Uiso   1.00
C158   C     0.88036   0.11245   0.40407   0.01267  Uiso   1.00
C159   C     0.01332   0.17912   0.35804   0.01267  Uiso   1.00
C160   C     0.81135   0.07257   0.43661   0.01267  Uiso   1.00
C161   C     0.80671  -0.00067   0.51261   0.01267  Uiso   1.00
C162   C     0.08477   0.21041   0.33785   0.01267  Uiso   1.00
C163   C     0.20085   0.38726   0.86132   0.01267  Uiso   1.00
C164   C     0.23347   0.36508   0.92642   0.01267  Uiso   1.00
C165   C     0.09229   0.37040   0.03183   0.01267  Uiso   1.00
C166   C     0.05951   0.39454   0.96704   0.01267  Uiso   1.00
C167   C     0.11252   0.40423   0.88013   0.01267  Uiso   1.00
C168   C     0.17918   0.35820   0.01309   0.01267  Uiso   1.00
C169   C     0.07264   0.43677   0.81112   0.01267  Uiso   1.00
C170   C    -0.00061   0.51277   0.80649   0.01267  Uiso   1.00
C171   C     0.21047   0.33801   0.08455   0.01267  Uiso   1.00
C172   C     0.38733   0.86148   0.20063   0.01267  Uiso   1.00
C173   C     0.36515   0.92658   0.23324   0.01267  Uiso   1.00
C174   C     0.37046   0.03199   0.09207   0.01267  Uiso   1.00
C175   C     0.39461   0.96720   0.05929   0.01267  Uiso   1.00
C176   C     0.40429   0.88029   0.11229   0.01267  Uiso   1.00
C177   C     0.35826   0.01325   0.17896   0.01267  Uiso   1.00
C178   C     0.43684   0.81128   0.07241   0.01267  Uiso   1.00
C179   C     0.51283   0.80664  -0.00083   0.01267  Uiso   1.00
C180   C     0.33808   0.08470   0.21025   0.01267  Uiso   1.00
C181   C     0.60350   0.25255   0.89331   0.01267  Uiso   1.00
C182   C     0.89354   0.60344   0.25239   0.01267  Uiso   1.00
C183   C     0.25261   0.89347   0.60328   0.01267  Uiso   1.00
C184   C     0.39354   0.75255   0.10328   0.01267  Uiso   1.00
C185   C     0.10350   0.39347   0.75239   0.01267  Uiso   1.00
C186   C     0.75261   0.10344   0.39331   0.01267  Uiso   1.00
N187   N     0.45427   0.25183   0.04354   0.01267  Uiso   1.00
N188   N     0.04376   0.45421   0.25167   0.01267  Uiso   1.00
N189   N     0.25189   0.04369   0.45405   0.01267  Uiso   1.00
N190   N     0.54376   0.75183   0.95405   0.01267  Uiso   1.00
N191   N     0.95427   0.54369   0.75167   0.01267  Uiso   1.00
N192   N     0.75189   0.95421   0.54354   0.01267  Uiso   1.00
O193   O     0.78957   0.57916   0.79724   0.01267  Uiso   1.00
O194   O     0.65498   0.64948   0.86202   0.01267  Uiso   1.00
O195   O     0.79746   0.78950   0.57900   0.01267  Uiso   1.00
O196   O     0.86224   0.65492   0.64932   0.01267  Uiso   1.00
O197   O     0.57923   0.79739   0.78934   0.01267  Uiso   1.00
O198   O     0.64954   0.86217   0.65476   0.01267  Uiso   1.00
O199   O     0.92339   0.70857   0.70365   0.01267  Uiso   1.00
O200   O     0.85444   0.84429   0.63609   0.01267  Uiso   1.00
O201   O     0.70863   0.70381   0.92316   0.01267  Uiso   1.00
O202   O     0.84436   0.63625   0.85422   0.01267  Uiso   1.00
O203   O     0.70388   0.92332   0.70841   0.01267  Uiso   1.00
O204   O     0.63632   0.85438   0.84413   0.01267  Uiso   1.00
O205   O     0.20864   0.42332   0.20365   0.01267  Uiso   1.00
O206   O     0.34436   0.35438   0.13609   0.01267  Uiso   1.00
O207   O     0.20388   0.20857   0.42316   0.01267  Uiso   1.00
O208   O     0.13632   0.34429   0.35422   0.01267  Uiso   1.00
O209   O     0.42339   0.20381   0.20841   0.01267  Uiso   1.00
O210   O     0.35444   0.13625   0.34413   0.01267  Uiso   1.00
O211   O     0.07923   0.28950   0.29723   0.01267  Uiso   1.00
O212   O     0.14954   0.15492   0.36202   0.01267  Uiso   1.00
O213   O     0.28957   0.29739   0.07900   0.01267  Uiso   1.00
O214   O     0.15498   0.36217   0.14932   0.01267  Uiso   1.00
O215   O     0.29746   0.07916   0.28934   0.01267  Uiso   1.00
O216   O     0.36224   0.14948   0.15476   0.01267  Uiso   1.00
O217   O     0.25169   0.25162   0.25146   0.01267  Uiso   1.00
O218   O     0.75168   0.75162   0.75146   0.01267  Uiso   1.00
H219   H     0.77302   0.77296   0.77280   0.00000  Uiso   1.00
H220   H     0.27302   0.27296   0.27280   0.00000  Uiso   1.00
loop_
_geom_bond_atom_site_label_1
_geom_bond_atom_site_label_2
_geom_bond_distance
_geom_bond_site_symmetry_2
_ccdc_geom_bond_type
Ni1    N187    1.974   .     S
Ni1    O206    1.785   .     S
Ni1    O209    1.803   .     S
Ni1    O213    1.789   .     S
Ni1    O216    1.773   .     S
Ni1    O217    1.927   .     S
Ni2    N188    1.974   .     S
Ni2    O205    1.803   .     S
Ni2    O208    1.785   .     S
Ni2    O211    1.789   .     S
Ni2    O214    1.773   .     S
Ni2    O217    1.927   .     S
Ni3    N189    1.974   .     S
Ni3    O207    1.803   .     S
Ni3    O210    1.785   .     S
Ni3    O212    1.773   .     S
Ni3    O215    1.789   .     S
Ni3    O217    1.927   .     S
Ni4    N190    1.974   .     S
Ni4    O194    1.773   .     S
Ni4    O197    1.789   .     S
Ni4    O201    1.803   .     S
Ni4    O204    1.785   .     S
Ni4    O218    1.927   .     S
Ni5    N191    1.974   .     S
Ni5    O193    1.789   .     S
Ni5    O196    1.773   .     S
Ni5    O199    1.803   .     S
Ni5    O202    1.785   .     S
Ni5    O218    1.927   .     S
Ni6    N192    1.974   .     S
Ni6    O195    1.789   .     S
Ni6    O198    1.773   .     S
Ni6    O200    1.785   .     S
Ni6    O203    1.803   .     S
Ni6    O218    1.927   .     S
H7     C73     1.082   .     S
H8     C74     1.083   .     S
H9     C75     1.080   .     S
H10    C76     1.083   .     S
H11    C80     1.068   .     S
H12    C82     1.082   .     S
H13    C83     1.083   .     S
H14    C84     1.080   .     S
H15    C85     1.083   .     S
H16    C89     1.068   .     S
H17    C91     1.082   .     S
H18    C92     1.083   .     S
H19    C93     1.080   .     S
H20    C94     1.083   .     S
H21    C98     1.068   .     S
H22    C100    1.082   .     S
H23    C101    1.083   .     S
H24    C102    1.080   .     S
H25    C103    1.083   1_545 S
H26    C107    1.068   1_545 S
H27    C109    1.082   .     S
H28    C110    1.083   .     S
H29    C111    1.080   .     S
H30    C112    1.083   1_455 S
H31    C116    1.068   1_455 S
H32    C118    1.082   .     S
H33    C119    1.083   .     S
H34    C120    1.080   .     S
H35    C121    1.083   1_554 S
H36    C125    1.068   1_554 S
H37    C127    1.082   .     S
H38    C128    1.083   .     S
H39    C129    1.080   .     S
H40    C130    1.083   .     S
H41    C134    1.068   .     S
H42    C136    1.082   .     S
H43    C137    1.083   .     S
H44    C138    1.080   .     S
H45    C139    1.083   .     S
H46    C143    1.068   .     S
H47    C145    1.082   .     S
H48    C146    1.083   .     S
H49    C147    1.080   .     S
H50    C148    1.083   .     S
H51    C152    1.068   .     S
H52    C154    1.082   .     S
H53    C155    1.083   .     S
H54    C156    1.080   .     S
H55    C157    1.083   1_565 S
H56    C161    1.068   1_565 S
H57    C163    1.082   .     S
H58    C164    1.083   .     S
H59    C165    1.080   .     S
H60    C166    1.083   1_655 S
H61    C170    1.068   1_655 S
H62    C172    1.082   .     S
H63    C173    1.083   .     S
H64    C174    1.080   .     S
H65    C175    1.083   1_556 S
H66    C179    1.068   1_556 S
H67    C181    1.083   .     S
H68    C182    1.083   .     S
H69    C183    1.083   .     S
H70    C184    1.083   .     S
H71    C185    1.083   .     S
H72    C186    1.083   .     S
C73    C74     1.430   .     A
C73    C77     1.417   .     A
C74    C78     1.418   .     A
C75    C76     1.414   .     A
C75    C78     1.414   .     A
C76    C77     1.411   .     A
C77    C79     1.535   .     S
C78    C81     1.538   .     S
C79    C80     1.420   1_556 A
C79    C181    1.421   .     A
C80    C79     1.420   1_554 A
C80    N187    1.384   .     A
C81    O193    1.274   .     A
C81    O194    1.270   .     A
C82    C83     1.430   .     A
C82    C86     1.417   .     A
C83    C87     1.418   .     A
C84    C85     1.414   .     A
C84    C87     1.414   .     A
C85    C86     1.411   .     A
C86    C88     1.535   .     S
C87    C90     1.538   .     S
C88    C89     1.420   1_655 A
C88    C182    1.421   .     A
C89    C88     1.420   1_455 A
C89    N188    1.384   .     A
C90    O195    1.274   .     A
C90    O196    1.270   .     A
C91    C92     1.430   .     A
C91    C95     1.417   .     A
C92    C96     1.418   .     A
C93    C94     1.414   .     A
C93    C96     1.414   .     A
C94    C95     1.411   .     A
C95    C97     1.535   .     S
C96    C99     1.538   .     S
C97    C98     1.420   1_565 A
C97    C183    1.421   .     A
C98    C97     1.420   1_545 A
C98    N189    1.384   .     A
C99    O197    1.274   .     A
C99    O198    1.270   .     A
C100   C101    1.429   .     A
C100   C104    1.417   .     A
C101   C105    1.417   1_455 A
C102   C103    1.413   1_655 A
C102   C105    1.414   .     A
C103   H25     1.083   1_565 S
C103   C102    1.413   1_455 A
C103   C104    1.410   .     A
C104   C106    1.534   .     S
C105   C101    1.417   1_655 A
C105   C108    1.535   .     S
C106   C107    1.420   .     A
C106   C183    1.421   .     A
C107   H26     1.068   1_565 S
C107   N189    1.383   1_565 A
C108   O199    1.283   .     A
C108   O200    1.278   .     A
C109   C110    1.429   .     A
C109   C113    1.417   .     A
C110   C114    1.417   1_554 A
C111   C112    1.413   1_556 A
C111   C114    1.414   .     A
C112   H30     1.083   1_655 S
C112   C111    1.413   1_554 A
C112   C113    1.410   .     A
C113   C115    1.534   .     S
C114   C110    1.417   1_556 A
C114   C117    1.535   .     S
C115   C116    1.420   .     A
C115   C182    1.421   .     A
C116   H31     1.068   1_655 S
C116   N188    1.383   1_655 A
C117   O201    1.283   .     A
C117   O202    1.278   .     A
C118   C119    1.429   .     A
C118   C122    1.417   .     A
C119   C123    1.417   1_545 A
C120   C121    1.413   1_565 A
C120   C123    1.414   .     A
C121   H35     1.083   1_556 S
C121   C120    1.413   1_545 A
C121   C122    1.410   .     A
C122   C124    1.534   .     S
C123   C119    1.417   1_565 A
C123   C126    1.535   .     S
C124   C125    1.420   .     A
C124   C181    1.421   .     A
C125   H36     1.068   1_556 S
C125   N187    1.383   1_556 A
C126   O203    1.283   .     A
C126   O204    1.278   .     A
C127   C128    1.429   .     A
C127   C131    1.417   .     A
C128   C132    1.417   .     A
C129   C130    1.413   .     A
C129   C132    1.414   .     A
C130   C131    1.410   .     A
C131   C133    1.534   .     S
C132   C135    1.535   .     S
C133   C134    1.420   1_554 A
C133   C184    1.421   .     A
C134   C133    1.420   1_556 A
C134   N190    1.383   .     A
C135   O205    1.283   .     A
C135   O206    1.278   .     A
C136   C137    1.429   .     A
C136   C140    1.417   .     A
C137   C141    1.417   .     A
C138   C139    1.413   .     A
C138   C141    1.414   .     A
C139   C140    1.410   .     A
C140   C142    1.534   .     S
C141   C144    1.535   .     S
C142   C143    1.420   1_455 A
C142   C185    1.421   .     A
C143   C142    1.420   1_655 A
C143   N191    1.383   .     A
C144   O207    1.283   .     A
C144   O208    1.278   .     A
C145   C146    1.429   .     A
C145   C149    1.417   .     A
C146   C150    1.417   .     A
C147   C148    1.413   .     A
C147   C150    1.414   .     A
C148   C149    1.410   .     A
C149   C151    1.534   .     S
C150   C153    1.535   .     S
C151   C152    1.420   1_545 A
C151   C186    1.421   .     A
C152   C151    1.420   1_565 A
C152   N192    1.383   .     A
C153   O209    1.283   .     A
C153   O210    1.278   .     A
C154   C155    1.430   .     A
C154   C158    1.417   .     A
C155   C159    1.418   1_655 A
C156   C157    1.414   1_455 A
C156   C159    1.414   .     A
C157   C156    1.414   1_655 A
C157   H55     1.083   1_545 S
C157   C158    1.411   .     A
C158   C160    1.535   .     S
C159   C155    1.418   1_455 A
C159   C162    1.538   .     S
C160   C161    1.420   .     A
C160   C186    1.421   .     A
C161   H56     1.068   1_545 S
C161   N192    1.384   1_545 A
C162   O211    1.274   .     A
C162   O212    1.270   .     A
C163   C164    1.430   .     A
C163   C167    1.417   .     A
C164   C168    1.418   1_556 A
C165   C166    1.414   1_554 A
C165   C168    1.414   .     A
C166   C165    1.414   1_556 A
C166   H60     1.083   1_455 S
C166   C167    1.411   .     A
C167   C169    1.535   .     S
C168   C164    1.418   1_554 A
C168   C171    1.538   .     S
C169   C170    1.420   .     A
C169   C185    1.421   .     A
C170   H61     1.068   1_455 S
C170   N191    1.384   1_455 A
C171   O213    1.274   .     A
C171   O214    1.270   .     A
C172   C173    1.430   .     A
C172   C176    1.417   .     A
C173   C177    1.418   1_565 A
C174   C175    1.414   1_545 A
C174   C177    1.414   .     A
C175   H65     1.083   1_554 S
C175   C174    1.414   1_565 A
C175   C176    1.411   .     A
C176   C178    1.535   .     S
C177   C173    1.418   1_545 A
C177   C180    1.538   .     S
C178   C179    1.420   .     A
C178   C184    1.421   .     A
C179   H66     1.068   1_554 S
C179   N190    1.384   1_554 A
C180   O215    1.274   .     A
C180   O216    1.270   .     A
N187   C125    1.383   1_554 A
N188   C116    1.383   1_455 A
N189   C107    1.383   1_545 A
N190   C179    1.384   1_556 A
N191   C170    1.384   1_655 A
N192   C161    1.384   1_565 A
O217   H220    0.981   .     S
O218   H219    0.981   .     S
