data_VEXVAW_clean
_audit_creation_date              2014-07-02
_audit_creation_method            'Materials Studio'
_symmetry_space_group_name_H-M    'P1'
_symmetry_Int_Tables_number       1
_symmetry_cell_setting            triclinic
loop_
_symmetry_equiv_pos_as_xyz
  x,y,z
_cell_length_a                    18.8313
_cell_length_b                    18.8313
_cell_length_c                    18.8313
_cell_angle_alpha                 61.4560
_cell_angle_beta                  61.4560
_cell_angle_gamma                 61.4560
loop_
_atom_site_label
_atom_site_type_symbol
_atom_site_fract_x
_atom_site_fract_y
_atom_site_fract_z
_atom_site_U_iso_or_equiv
_atom_site_adp_type
_atom_site_occupancy
Fe1    Fe    0.34882   0.15118   0.25000   0.01267  Uiso   1.00
Fe2    Fe    0.25000   0.34882   0.15118   0.01267  Uiso   1.00
Fe3    Fe    0.15118   0.25000   0.34882   0.01267  Uiso   1.00
Fe4    Fe    0.65118   0.84882   0.75000   0.01267  Uiso   1.00
Fe5    Fe    0.75000   0.65118   0.84882   0.01267  Uiso   1.00
Fe6    Fe    0.84882   0.75000   0.65118   0.01267  Uiso   1.00
H1     H     0.48110   0.03110   0.34800   0.01267  Uiso   1.00
H2     H     0.49640   0.91800   0.47490   0.01267  Uiso   1.00
H3     H     0.55090   0.88590   0.57820   0.01267  Uiso   1.00
H4     H     0.79200   0.82510   0.41530   0.01267  Uiso   1.00
H5     H     0.73770   0.85890   0.31010   0.01267  Uiso   1.00
H6     H     0.34800   0.48110   0.03110   0.01267  Uiso   1.00
H7     H     0.47490   0.49640   0.91800   0.01267  Uiso   1.00
H8     H     0.57820   0.55090   0.88590   0.01267  Uiso   1.00
H9     H     0.41530   0.79200   0.82510   0.01267  Uiso   1.00
H10    H     0.31010   0.73770   0.85890   0.01267  Uiso   1.00
H11    H     0.03110   0.34800   0.48110   0.01267  Uiso   1.00
H12    H     0.91800   0.47490   0.49640   0.01267  Uiso   1.00
H13    H     0.88590   0.57820   0.55090   0.01267  Uiso   1.00
H14    H     0.82510   0.41530   0.79200   0.01267  Uiso   1.00
H15    H     0.85890   0.31010   0.73770   0.01267  Uiso   1.00
H16    H     0.46890   0.01890   0.15200   0.01267  Uiso   1.00
H17    H     0.58200   0.00360   0.02510   0.01267  Uiso   1.00
H18    H     0.61410   0.94910   0.92180   0.01267  Uiso   1.00
H19    H     0.67490   0.70800   0.08470   0.01267  Uiso   1.00
H20    H     0.64110   0.76230   0.18990   0.01267  Uiso   1.00
H21    H     0.01890   0.15200   0.46890   0.01267  Uiso   1.00
H22    H     0.00360   0.02510   0.58200   0.01267  Uiso   1.00
H23    H     0.94910   0.92180   0.61410   0.01267  Uiso   1.00
H24    H     0.70800   0.08470   0.67490   0.01267  Uiso   1.00
H25    H     0.76230   0.18990   0.64110   0.01267  Uiso   1.00
H26    H     0.15200   0.46890   0.01890   0.01267  Uiso   1.00
H27    H     0.02510   0.58200   0.00360   0.01267  Uiso   1.00
H28    H     0.92180   0.61410   0.94910   0.01267  Uiso   1.00
H29    H     0.08470   0.67490   0.70800   0.01267  Uiso   1.00
H30    H     0.18990   0.64110   0.76230   0.01267  Uiso   1.00
H31    H     0.51890   0.96890   0.65200   0.01267  Uiso   1.00
H32    H     0.50360   0.08200   0.52510   0.01267  Uiso   1.00
H33    H     0.44910   0.11410   0.42180   0.01267  Uiso   1.00
H34    H     0.20800   0.17490   0.58470   0.01267  Uiso   1.00
H35    H     0.26230   0.14110   0.68990   0.01267  Uiso   1.00
H36    H     0.65200   0.51890   0.96890   0.01267  Uiso   1.00
H37    H     0.52510   0.50360   0.08200   0.01267  Uiso   1.00
H38    H     0.42180   0.44910   0.11410   0.01267  Uiso   1.00
H39    H     0.58470   0.20800   0.17490   0.01267  Uiso   1.00
H40    H     0.68990   0.26230   0.14110   0.01267  Uiso   1.00
H41    H     0.96890   0.65200   0.51890   0.01267  Uiso   1.00
H42    H     0.08200   0.52510   0.50360   0.01267  Uiso   1.00
H43    H     0.11410   0.42180   0.44910   0.01267  Uiso   1.00
H44    H     0.17490   0.58470   0.20800   0.01267  Uiso   1.00
H45    H     0.14110   0.68990   0.26230   0.01267  Uiso   1.00
H46    H     0.53110   0.98110   0.84800   0.01267  Uiso   1.00
H47    H     0.41800   0.99640   0.97490   0.01267  Uiso   1.00
H48    H     0.38590   0.05090   0.07820   0.01267  Uiso   1.00
H49    H     0.32510   0.29200   0.91530   0.01267  Uiso   1.00
H50    H     0.35890   0.23770   0.81010   0.01267  Uiso   1.00
H51    H     0.98110   0.84800   0.53110   0.01267  Uiso   1.00
H52    H     0.99640   0.97490   0.41800   0.01267  Uiso   1.00
H53    H     0.05090   0.07820   0.38590   0.01267  Uiso   1.00
H54    H     0.29200   0.91530   0.32510   0.01267  Uiso   1.00
H55    H     0.23770   0.81010   0.35890   0.01267  Uiso   1.00
H56    H     0.84800   0.53110   0.98110   0.01267  Uiso   1.00
H57    H     0.97490   0.41800   0.99640   0.01267  Uiso   1.00
H58    H     0.07820   0.38590   0.05090   0.01267  Uiso   1.00
H59    H     0.91530   0.32510   0.29200   0.01267  Uiso   1.00
H60    H     0.81010   0.35890   0.23770   0.01267  Uiso   1.00
H61    H     0.65805   0.84195   0.25000   0.01267  Uiso   1.00
H62    H     0.25000   0.65805   0.84195   0.01267  Uiso   1.00
H63    H     0.84195   0.25000   0.65805   0.01267  Uiso   1.00
H64    H     0.34195   0.15805   0.75000   0.01267  Uiso   1.00
H65    H     0.75000   0.34195   0.15805   0.01267  Uiso   1.00
H66    H     0.15805   0.75000   0.34195   0.01267  Uiso   1.00
C1     C     0.50371   0.00371   0.30691   0.01267  Uiso   1.00
C2     C     0.57694   0.93154   0.30924   0.01267  Uiso   1.00
C3     C     0.71257   0.83835   0.57091   0.01267  Uiso   1.00
C4     C     0.61039   0.89459   0.38189   0.01267  Uiso   1.00
C5     C     0.55650   0.90010   0.46210   0.01267  Uiso   1.00
C6     C     0.58894   0.88004   0.52394   0.01267  Uiso   1.00
C7     C     0.67602   0.85162   0.50752   0.01267  Uiso   1.00
C8     C     0.73209   0.84419   0.42699   0.01267  Uiso   1.00
C9     C     0.69987   0.86487   0.36437   0.01267  Uiso   1.00
C10    C     0.30691   0.50371   0.00371   0.01267  Uiso   1.00
C11    C     0.30924   0.57694   0.93154   0.01267  Uiso   1.00
C12    C     0.57091   0.71257   0.83835   0.01267  Uiso   1.00
C13    C     0.38189   0.61039   0.89459   0.01267  Uiso   1.00
C14    C     0.46210   0.55650   0.90010   0.01267  Uiso   1.00
C15    C     0.52394   0.58894   0.88004   0.01267  Uiso   1.00
C16    C     0.50752   0.67602   0.85162   0.01267  Uiso   1.00
C17    C     0.42699   0.73209   0.84419   0.01267  Uiso   1.00
C18    C     0.36437   0.69987   0.86487   0.01267  Uiso   1.00
C19    C     0.00371   0.30691   0.50371   0.01267  Uiso   1.00
C20    C     0.93154   0.30924   0.57694   0.01267  Uiso   1.00
C21    C     0.83835   0.57091   0.71257   0.01267  Uiso   1.00
C22    C     0.89459   0.38189   0.61039   0.01267  Uiso   1.00
C23    C     0.90010   0.46210   0.55650   0.01267  Uiso   1.00
C24    C     0.88004   0.52394   0.58894   0.01267  Uiso   1.00
C25    C     0.85162   0.50752   0.67602   0.01267  Uiso   1.00
C26    C     0.84419   0.42699   0.73209   0.01267  Uiso   1.00
C27    C     0.86487   0.36437   0.69987   0.01267  Uiso   1.00
C28    C     0.49629   0.99629   0.19309   0.01267  Uiso   1.00
C29    C     0.56846   0.92306   0.19076   0.01267  Uiso   1.00
C30    C     0.66165   0.78743   0.92909   0.01267  Uiso   1.00
C31    C     0.60541   0.88961   0.11811   0.01267  Uiso   1.00
C32    C     0.59990   0.94350   0.03790   0.01267  Uiso   1.00
C33    C     0.61996   0.91106   0.97606   0.01267  Uiso   1.00
C34    C     0.64838   0.82398   0.99248   0.01267  Uiso   1.00
C35    C     0.65581   0.76791   0.07301   0.01267  Uiso   1.00
C36    C     0.63513   0.80013   0.13563   0.01267  Uiso   1.00
C37    C     0.99629   0.19309   0.49629   0.01267  Uiso   1.00
C38    C     0.92306   0.19076   0.56846   0.01267  Uiso   1.00
C39    C     0.78743   0.92909   0.66165   0.01267  Uiso   1.00
C40    C     0.88961   0.11811   0.60541   0.01267  Uiso   1.00
C41    C     0.94350   0.03790   0.59990   0.01267  Uiso   1.00
C42    C     0.91106   0.97606   0.61996   0.01267  Uiso   1.00
C43    C     0.82398   0.99248   0.64838   0.01267  Uiso   1.00
C44    C     0.76791   0.07301   0.65581   0.01267  Uiso   1.00
C45    C     0.80013   0.13563   0.63513   0.01267  Uiso   1.00
C46    C     0.19309   0.49629   0.99629   0.01267  Uiso   1.00
C47    C     0.19076   0.56846   0.92306   0.01267  Uiso   1.00
C48    C     0.92909   0.66165   0.78743   0.01267  Uiso   1.00
C49    C     0.11811   0.60541   0.88961   0.01267  Uiso   1.00
C50    C     0.03790   0.59990   0.94350   0.01267  Uiso   1.00
C51    C     0.97606   0.61996   0.91106   0.01267  Uiso   1.00
C52    C     0.99248   0.64838   0.82398   0.01267  Uiso   1.00
C53    C     0.07301   0.65581   0.76791   0.01267  Uiso   1.00
C54    C     0.13563   0.63513   0.80013   0.01267  Uiso   1.00
C55    C     0.49629   0.99629   0.69309   0.01267  Uiso   1.00
C56    C     0.42306   0.06846   0.69076   0.01267  Uiso   1.00
C57    C     0.28743   0.16165   0.42909   0.01267  Uiso   1.00
C58    C     0.38961   0.10541   0.61811   0.01267  Uiso   1.00
C59    C     0.44350   0.09990   0.53790   0.01267  Uiso   1.00
C60    C     0.41106   0.11996   0.47606   0.01267  Uiso   1.00
C61    C     0.32398   0.14838   0.49248   0.01267  Uiso   1.00
C62    C     0.26791   0.15581   0.57301   0.01267  Uiso   1.00
C63    C     0.30013   0.13513   0.63563   0.01267  Uiso   1.00
C64    C     0.69309   0.49629   0.99629   0.01267  Uiso   1.00
C65    C     0.69076   0.42306   0.06846   0.01267  Uiso   1.00
C66    C     0.42909   0.28743   0.16165   0.01267  Uiso   1.00
C67    C     0.61811   0.38961   0.10541   0.01267  Uiso   1.00
C68    C     0.53790   0.44350   0.09990   0.01267  Uiso   1.00
C69    C     0.47606   0.41106   0.11996   0.01267  Uiso   1.00
C70    C     0.49248   0.32398   0.14838   0.01267  Uiso   1.00
C71    C     0.57301   0.26791   0.15581   0.01267  Uiso   1.00
C72    C     0.63563   0.30013   0.13513   0.01267  Uiso   1.00
C73    C     0.99629   0.69309   0.49629   0.01267  Uiso   1.00
C74    C     0.06846   0.69076   0.42306   0.01267  Uiso   1.00
C75    C     0.16165   0.42909   0.28743   0.01267  Uiso   1.00
C76    C     0.10541   0.61811   0.38961   0.01267  Uiso   1.00
C77    C     0.09990   0.53790   0.44350   0.01267  Uiso   1.00
C78    C     0.11996   0.47606   0.41106   0.01267  Uiso   1.00
C79    C     0.14838   0.49248   0.32398   0.01267  Uiso   1.00
C80    C     0.15581   0.57301   0.26791   0.01267  Uiso   1.00
C81    C     0.13513   0.63563   0.30013   0.01267  Uiso   1.00
C82    C     0.50371   0.00371   0.80691   0.01267  Uiso   1.00
C83    C     0.43154   0.07694   0.80924   0.01267  Uiso   1.00
C84    C     0.33835   0.21257   0.07091   0.01267  Uiso   1.00
C85    C     0.39459   0.11039   0.88189   0.01267  Uiso   1.00
C86    C     0.40010   0.05650   0.96210   0.01267  Uiso   1.00
C87    C     0.38004   0.08894   0.02394   0.01267  Uiso   1.00
C88    C     0.35162   0.17602   0.00752   0.01267  Uiso   1.00
C89    C     0.34419   0.23209   0.92699   0.01267  Uiso   1.00
C90    C     0.36487   0.19987   0.86437   0.01267  Uiso   1.00
C91    C     0.00371   0.80691   0.50371   0.01267  Uiso   1.00
C92    C     0.07694   0.80924   0.43154   0.01267  Uiso   1.00
C93    C     0.21257   0.07091   0.33835   0.01267  Uiso   1.00
C94    C     0.11039   0.88189   0.39459   0.01267  Uiso   1.00
C95    C     0.05650   0.96210   0.40010   0.01267  Uiso   1.00
C96    C     0.08894   0.02394   0.38004   0.01267  Uiso   1.00
C97    C     0.17602   0.00752   0.35162   0.01267  Uiso   1.00
C98    C     0.23209   0.92699   0.34419   0.01267  Uiso   1.00
C99    C     0.19987   0.86437   0.36487   0.01267  Uiso   1.00
C100   C     0.80691   0.50371   0.00371   0.01267  Uiso   1.00
C101   C     0.80924   0.43154   0.07694   0.01267  Uiso   1.00
C102   C     0.07091   0.33835   0.21257   0.01267  Uiso   1.00
C103   C     0.88189   0.39459   0.11039   0.01267  Uiso   1.00
C104   C     0.96210   0.40010   0.05650   0.01267  Uiso   1.00
C105   C     0.02394   0.38004   0.08894   0.01267  Uiso   1.00
C106   C     0.00752   0.35162   0.17602   0.01267  Uiso   1.00
C107   C     0.92699   0.34419   0.23209   0.01267  Uiso   1.00
C108   C     0.86437   0.36487   0.19987   0.01267  Uiso   1.00
C109   C     0.60875   0.89125   0.25000   0.01267  Uiso   1.00
C110   C     0.25000   0.60875   0.89125   0.01267  Uiso   1.00
C111   C     0.89125   0.25000   0.60875   0.01267  Uiso   1.00
C112   C     0.39125   0.10875   0.75000   0.01267  Uiso   1.00
C113   C     0.75000   0.39125   0.10875   0.01267  Uiso   1.00
C114   C     0.10875   0.75000   0.39125   0.01267  Uiso   1.00
N1     N     0.46375   0.03625   0.25000   0.01267  Uiso   1.00
N2     N     0.25000   0.46375   0.03625   0.01267  Uiso   1.00
N3     N     0.03625   0.25000   0.46375   0.01267  Uiso   1.00
N4     N     0.53625   0.96375   0.75000   0.01267  Uiso   1.00
N5     N     0.75000   0.53625   0.96375   0.01267  Uiso   1.00
N6     N     0.96375   0.75000   0.53625   0.01267  Uiso   1.00
O1     O     0.66204   0.87496   0.62677   0.01267  Uiso   1.00
O2     O     0.78693   0.78697   0.56848   0.01267  Uiso   1.00
O3     O     0.62677   0.66204   0.87496   0.01267  Uiso   1.00
O4     O     0.56848   0.78693   0.78697   0.01267  Uiso   1.00
O5     O     0.87496   0.62677   0.66204   0.01267  Uiso   1.00
O6     O     0.78697   0.56848   0.78693   0.01267  Uiso   1.00
O7     O     0.62504   0.83796   0.87323   0.01267  Uiso   1.00
O8     O     0.71303   0.71307   0.93152   0.01267  Uiso   1.00
O9     O     0.83796   0.87323   0.62504   0.01267  Uiso   1.00
O10    O     0.71307   0.93152   0.71303   0.01267  Uiso   1.00
O11    O     0.87323   0.62504   0.83796   0.01267  Uiso   1.00
O12    O     0.93152   0.71303   0.71307   0.01267  Uiso   1.00
O13    O     0.33796   0.12504   0.37323   0.01267  Uiso   1.00
O14    O     0.21307   0.21303   0.43152   0.01267  Uiso   1.00
O15    O     0.37323   0.33796   0.12504   0.01267  Uiso   1.00
O16    O     0.43152   0.21307   0.21303   0.01267  Uiso   1.00
O17    O     0.12504   0.37323   0.33796   0.01267  Uiso   1.00
O18    O     0.21303   0.43152   0.21307   0.01267  Uiso   1.00
O19    O     0.37496   0.16204   0.12677   0.01267  Uiso   1.00
O20    O     0.28697   0.28693   0.06848   0.01267  Uiso   1.00
O21    O     0.16204   0.12677   0.37496   0.01267  Uiso   1.00
O22    O     0.28693   0.06848   0.28697   0.01267  Uiso   1.00
O23    O     0.12677   0.37496   0.16204   0.01267  Uiso   1.00
O24    O     0.06848   0.28697   0.28693   0.01267  Uiso   1.00
O25    O     0.25000   0.25000   0.25000   0.01267  Uiso   1.00
O26    O     0.75000   0.75000   0.75000   0.01267  Uiso   1.00
