data_image0
_cell_length_a       18.313
_cell_length_b       8.8229
_cell_length_c       16.221
_cell_angle_alpha    90
_cell_angle_beta     111.7
_cell_angle_gamma    90

_symmetry_space_group_name_H-M    "P 1"
_symmetry_int_tables_number       1

loop_
  _symmetry_equiv_pos_as_xyz
  'x, y, z'

loop_
  _atom_site_label
  _atom_site_occupancy
  _atom_site_fract_x
  _atom_site_fract_y
  _atom_site_fract_z
  _atom_site_thermal_displace_type
  _atom_site_B_iso_or_equiv
  _atom_site_type_symbol
  In1      1.0000 0.26462  0.71957  0.33978  Biso   1.000  In
  P1       1.0000 0.13801  0.85149  0.43152  Biso   1.000  P
  P2       1.0000 0.87366  0.92416  0.31375  Biso   1.000  P
  P3       1.0000 0.13147  0.45252  0.24136  Biso   1.000  P
  O1       1.0000 0.19370  0.52480  0.32224  Biso   1.000  O
  O2       1.0000 0.09369  0.00790  0.40114  Biso   1.000  O
  H1       1.0000 0.07580  0.01260  0.34680  Biso   1.000  H
  O3       1.0000 0.21308  0.85860  0.41153  Biso   1.000  O
  O4       1.0000 0.16062  0.40450  0.16769  Biso   1.000  O
  O5       1.0000 0.93857  0.90380  0.27757  Biso   1.000  O
  O6       1.0000 0.81380  0.79600  0.28740  Biso   1.000  O
  O7       1.0000 0.08359  0.72270  0.38360  Biso   1.000  O
  O8       1.0000 0.83676  0.08130  0.28821  Biso   1.000  O
  O9       1.0000 0.05913  0.55360  0.20158  Biso   1.000  O
  O10      1.0000 0.10438  0.30490  0.27730  Biso   1.000  O
  H2       1.0000 0.12060  0.22980  0.25960  Biso   1.000  H
  O11      1.0000 0.15451  0.84820  0.53099  Biso   1.000  O
  O12      1.0000 0.91377  0.91440  0.41813  Biso   1.000  O
  H3       1.0000 0.89690  0.98260  0.44060  Biso   1.000  H
  In2      1.0000 0.76462  0.21957  0.33978  Biso   1.000  In
  P4       1.0000 0.63801  0.35149  0.43152  Biso   1.000  P
  P5       1.0000 0.37366  0.42416  0.31375  Biso   1.000  P
  P6       1.0000 0.63147  0.95252  0.24136  Biso   1.000  P
  O13      1.0000 0.69370  0.02480  0.32224  Biso   1.000  O
  O14      1.0000 0.59369  0.50790  0.40114  Biso   1.000  O
  H4       1.0000 0.57580  0.51260  0.34680  Biso   1.000  H
  O15      1.0000 0.71308  0.35860  0.41153  Biso   1.000  O
  O16      1.0000 0.66062  0.90450  0.16769  Biso   1.000  O
  O17      1.0000 0.43857  0.40380  0.27757  Biso   1.000  O
  O18      1.0000 0.31380  0.29600  0.28740  Biso   1.000  O
  O19      1.0000 0.58359  0.22270  0.38360  Biso   1.000  O
  O20      1.0000 0.33676  0.58130  0.28821  Biso   1.000  O
  O21      1.0000 0.55913  0.05360  0.20158  Biso   1.000  O
  O22      1.0000 0.60438  0.80490  0.27730  Biso   1.000  O
  H5       1.0000 0.62060  0.72980  0.25960  Biso   1.000  H
  O23      1.0000 0.65451  0.34820  0.53099  Biso   1.000  O
  O24      1.0000 0.41377  0.41440  0.41813  Biso   1.000  O
  H6       1.0000 0.39690  0.48260  0.44060  Biso   1.000  H
  In3      1.0000 0.73538  0.71957  0.16022  Biso   1.000  In
  P7       1.0000 0.86199  0.85149  0.06848  Biso   1.000  P
  P8       1.0000 0.12634  0.92416  0.18625  Biso   1.000  P
  P9       1.0000 0.86853  0.45252  0.25864  Biso   1.000  P
  O25      1.0000 0.80630  0.52480  0.17776  Biso   1.000  O
  O26      1.0000 0.90631  0.00790  0.09886  Biso   1.000  O
  H7       1.0000 0.92420  0.01260  0.15320  Biso   1.000  H
  O27      1.0000 0.78692  0.85860  0.08847  Biso   1.000  O
  O28      1.0000 0.83938  0.40450  0.33231  Biso   1.000  O
  O29      1.0000 0.06143  0.90380  0.22243  Biso   1.000  O
  O30      1.0000 0.18620  0.79600  0.21260  Biso   1.000  O
  O31      1.0000 0.91641  0.72270  0.11640  Biso   1.000  O
  O32      1.0000 0.16324  0.08130  0.21179  Biso   1.000  O
  O33      1.0000 0.94087  0.55360  0.29842  Biso   1.000  O
  O34      1.0000 0.89562  0.30490  0.22270  Biso   1.000  O
  H8       1.0000 0.87940  0.22980  0.24040  Biso   1.000  H
  O35      1.0000 0.84549  0.84820  0.96901  Biso   1.000  O
  O36      1.0000 0.08623  0.91440  0.08187  Biso   1.000  O
  H9       1.0000 0.10310  0.98260  0.05940  Biso   1.000  H
  In4      1.0000 0.23538  0.21957  0.16022  Biso   1.000  In
  P10      1.0000 0.36199  0.35149  0.06848  Biso   1.000  P
  P11      1.0000 0.62634  0.42416  0.18625  Biso   1.000  P
  P12      1.0000 0.36853  0.95252  0.25864  Biso   1.000  P
  O37      1.0000 0.30630  0.02480  0.17776  Biso   1.000  O
  O38      1.0000 0.40631  0.50790  0.09886  Biso   1.000  O
  H10      1.0000 0.42420  0.51260  0.15320  Biso   1.000  H
  O39      1.0000 0.28692  0.35860  0.08847  Biso   1.000  O
  O40      1.0000 0.33938  0.90450  0.33231  Biso   1.000  O
  O41      1.0000 0.56143  0.40380  0.22243  Biso   1.000  O
  O42      1.0000 0.68620  0.29600  0.21260  Biso   1.000  O
  O43      1.0000 0.41641  0.22270  0.11640  Biso   1.000  O
  O44      1.0000 0.66324  0.58130  0.21179  Biso   1.000  O
  O45      1.0000 0.44087  0.05360  0.29842  Biso   1.000  O
  O46      1.0000 0.39562  0.80490  0.22270  Biso   1.000  O
  H11      1.0000 0.37940  0.72980  0.24040  Biso   1.000  H
  O47      1.0000 0.34549  0.34820  0.96901  Biso   1.000  O
  O48      1.0000 0.58623  0.41440  0.08187  Biso   1.000  O
  H12      1.0000 0.60310  0.48260  0.05940  Biso   1.000  H
  In5      1.0000 0.73538  0.28043  0.66022  Biso   1.000  In
  P13      1.0000 0.86199  0.14851  0.56848  Biso   1.000  P
  P14      1.0000 0.12634  0.07584  0.68625  Biso   1.000  P
  P15      1.0000 0.86853  0.54748  0.75864  Biso   1.000  P
  O49      1.0000 0.80630  0.47520  0.67776  Biso   1.000  O
  O50      1.0000 0.90631  0.99210  0.59886  Biso   1.000  O
  H13      1.0000 0.92420  0.98740  0.65320  Biso   1.000  H
  O51      1.0000 0.78692  0.14140  0.58847  Biso   1.000  O
  O52      1.0000 0.83938  0.59550  0.83231  Biso   1.000  O
  O53      1.0000 0.06143  0.09620  0.72243  Biso   1.000  O
  O54      1.0000 0.18620  0.20400  0.71260  Biso   1.000  O
  O55      1.0000 0.91641  0.27730  0.61640  Biso   1.000  O
  O56      1.0000 0.16324  0.91870  0.71179  Biso   1.000  O
  O57      1.0000 0.94087  0.44640  0.79842  Biso   1.000  O
  O58      1.0000 0.89562  0.69510  0.72270  Biso   1.000  O
  H14      1.0000 0.87940  0.77020  0.74040  Biso   1.000  H
  O59      1.0000 0.84549  0.15180  0.46901  Biso   1.000  O
  O60      1.0000 0.08623  0.08560  0.58187  Biso   1.000  O
  H15      1.0000 0.10310  0.01740  0.55940  Biso   1.000  H
  In6      1.0000 0.23538  0.78043  0.66022  Biso   1.000  In
  P16      1.0000 0.36199  0.64851  0.56848  Biso   1.000  P
  P17      1.0000 0.62634  0.57584  0.68625  Biso   1.000  P
  P18      1.0000 0.36853  0.04748  0.75864  Biso   1.000  P
  O61      1.0000 0.30630  0.97520  0.67776  Biso   1.000  O
  O62      1.0000 0.40631  0.49210  0.59886  Biso   1.000  O
  H16      1.0000 0.42420  0.48740  0.65320  Biso   1.000  H
  O63      1.0000 0.28692  0.64140  0.58847  Biso   1.000  O
  O64      1.0000 0.33938  0.09550  0.83231  Biso   1.000  O
  O65      1.0000 0.56143  0.59620  0.72243  Biso   1.000  O
  O66      1.0000 0.68620  0.70400  0.71260  Biso   1.000  O
  O67      1.0000 0.41641  0.77730  0.61640  Biso   1.000  O
  O68      1.0000 0.66324  0.41870  0.71179  Biso   1.000  O
  O69      1.0000 0.44087  0.94640  0.79842  Biso   1.000  O
  O70      1.0000 0.39562  0.19510  0.72270  Biso   1.000  O
  H17      1.0000 0.37940  0.27020  0.74040  Biso   1.000  H
  O71      1.0000 0.34549  0.65180  0.46901  Biso   1.000  O
  O72      1.0000 0.58623  0.58560  0.58187  Biso   1.000  O
  H18      1.0000 0.60310  0.51740  0.55940  Biso   1.000  H
  In7      1.0000 0.26462  0.28043  0.83978  Biso   1.000  In
  P19      1.0000 0.13801  0.14851  0.93152  Biso   1.000  P
  P20      1.0000 0.87366  0.07584  0.81375  Biso   1.000  P
  P21      1.0000 0.13147  0.54748  0.74136  Biso   1.000  P
  O73      1.0000 0.19370  0.47520  0.82224  Biso   1.000  O
  O74      1.0000 0.09369  0.99210  0.90114  Biso   1.000  O
  H19      1.0000 0.07580  0.98740  0.84680  Biso   1.000  H
  O75      1.0000 0.21308  0.14140  0.91153  Biso   1.000  O
  O76      1.0000 0.16062  0.59550  0.66769  Biso   1.000  O
  O77      1.0000 0.93857  0.09620  0.77757  Biso   1.000  O
  O78      1.0000 0.81380  0.20400  0.78740  Biso   1.000  O
  O79      1.0000 0.08359  0.27730  0.88360  Biso   1.000  O
  O80      1.0000 0.83676  0.91870  0.78821  Biso   1.000  O
  O81      1.0000 0.05913  0.44640  0.70158  Biso   1.000  O
  O82      1.0000 0.10438  0.69510  0.77730  Biso   1.000  O
  H20      1.0000 0.12060  0.77020  0.75960  Biso   1.000  H
  O83      1.0000 0.15451  0.15180  0.03099  Biso   1.000  O
  O84      1.0000 0.91377  0.08560  0.91813  Biso   1.000  O
  H21      1.0000 0.89690  0.01740  0.94060  Biso   1.000  H
  In8      1.0000 0.76462  0.78043  0.83978  Biso   1.000  In
  P22      1.0000 0.63801  0.64851  0.93152  Biso   1.000  P
  P23      1.0000 0.37366  0.57584  0.81375  Biso   1.000  P
  P24      1.0000 0.63147  0.04748  0.74136  Biso   1.000  P
  O85      1.0000 0.69370  0.97520  0.82224  Biso   1.000  O
  O86      1.0000 0.59369  0.49210  0.90114  Biso   1.000  O
  H22      1.0000 0.57580  0.48740  0.84680  Biso   1.000  H
  O87      1.0000 0.71308  0.64140  0.91153  Biso   1.000  O
  O88      1.0000 0.66062  0.09550  0.66769  Biso   1.000  O
  O89      1.0000 0.43857  0.59620  0.77757  Biso   1.000  O
  O90      1.0000 0.31380  0.70400  0.78740  Biso   1.000  O
  O91      1.0000 0.58359  0.77730  0.88360  Biso   1.000  O
  O92      1.0000 0.33676  0.41870  0.78821  Biso   1.000  O
  O93      1.0000 0.55913  0.94640  0.70158  Biso   1.000  O
  O94      1.0000 0.60438  0.19510  0.77730  Biso   1.000  O
  H23      1.0000 0.62060  0.27020  0.75960  Biso   1.000  H
  O95      1.0000 0.65451  0.65180  0.03099  Biso   1.000  O
  O96      1.0000 0.41377  0.58560  0.91813  Biso   1.000  O
  H24      1.0000 0.39690  0.51740  0.94060  Biso   1.000  H
  In9      1.0000 0.00000  0.71412  0.25000  Biso   1.000  In
  In10     1.0000 0.50000  0.21412  0.25000  Biso   1.000  In
  In11     1.0000 0.00000  0.28588  0.75000  Biso   1.000  In
  In12     1.0000 0.50000  0.78588  0.75000  Biso   1.000  In
