data_image0
_cell_length_a       15.258
_cell_length_b       21.333
_cell_length_c       29.267
_cell_angle_alpha    90
_cell_angle_beta     90
_cell_angle_gamma    90

_symmetry_space_group_name_H-M    "P 1"
_symmetry_int_tables_number       1

loop_
  _symmetry_equiv_pos_as_xyz
  'x, y, z'

loop_
  _atom_site_label
  _atom_site_occupancy
  _atom_site_fract_x
  _atom_site_fract_y
  _atom_site_fract_z
  _atom_site_thermal_displace_type
  _atom_site_B_iso_or_equiv
  _atom_site_type_symbol
  Mn1      1.0000 0.36145  0.27305  0.23334  Biso   1.000  Mn
  Mn2      1.0000 0.12909  0.27696  0.17966  Biso   1.000  Mn
  Mn3      1.0000 0.17252  0.50936  0.15734  Biso   1.000  Mn
  Mn4      1.0000 0.33289  0.50327  0.25526  Biso   1.000  Mn
  C1       1.0000 0.19440  0.20090  0.26550  Biso   1.000  C
  C2       1.0000 0.16960  0.14820  0.29810  Biso   1.000  C
  C3       1.0000 0.23490  0.12140  0.32470  Biso   1.000  C
  H1       1.0000 0.29220  0.13630  0.32380  Biso   1.000  H
  C4       1.0000 0.21190  0.07210  0.35240  Biso   1.000  C
  H2       1.0000 0.25510  0.05320  0.37000  Biso   1.000  H
  C5       1.0000 0.06630  0.07630  0.32870  Biso   1.000  C
  H3       1.0000 0.00930  0.06100  0.33020  Biso   1.000  H
  C6       1.0000 0.08630  0.12420  0.30050  Biso   1.000  C
  H4       1.0000 0.04260  0.14140  0.28230  Biso   1.000  H
  C7       1.0000 0.10990  0.99820  0.38730  Biso   1.000  C
  H5       1.0000 0.06480  0.97160  0.37410  Biso   1.000  H
  H6       1.0000 0.16150  0.97270  0.39270  Biso   1.000  H
  C8       1.0000 0.07890  0.02490  0.43020  Biso   1.000  C
  H7       1.0000 0.02140  0.04330  0.42570  Biso   1.000  H
  H8       1.0000 0.11860  0.05780  0.44000  Biso   1.000  H
  C9       1.0000 0.07380  0.97320  0.46760  Biso   1.000  C
  H9       1.0000 0.03590  0.93940  0.45770  Biso   1.000  H
  H10      1.0000 0.13160  0.95630  0.47360  Biso   1.000  H
  C10      1.0000 0.03650  0.00450  0.51080  Biso   1.000  C
  H11      1.0000 0.07340  0.03940  0.51970  Biso   1.000  H
  H12      1.0000 0.97810  0.02040  0.50470  Biso   1.000  H
  C11      1.0000 0.09940  0.95230  0.57950  Biso   1.000  C
  H13      1.0000 0.14850  0.97780  0.57690  Biso   1.000  H
  C12      1.0000 0.09360  0.91000  0.61400  Biso   1.000  C
  H14      1.0000 0.13700  0.90900  0.63630  Biso   1.000  H
  C13      1.0000 0.02590  0.86960  0.61630  Biso   1.000  C
  C14      1.0000 0.96110  0.87310  0.58350  Biso   1.000  C
  H15      1.0000 0.91400  0.84540  0.58390  Biso   1.000  H
  C15      1.0000 0.96770  0.91840  0.55020  Biso   1.000  C
  H16      1.0000 0.92420  0.92140  0.52810  Biso   1.000  H
  C16      1.0000 0.01770  0.82060  0.65440  Biso   1.000  C
  C17      1.0000 0.29360  0.20250  0.14470  Biso   1.000  C
  C18      1.0000 0.32820  0.15880  0.10720  Biso   1.000  C
  C19      1.0000 0.40530  0.12840  0.11350  Biso   1.000  C
  H17      1.0000 0.43980  0.13600  0.13910  Biso   1.000  H
  C20      1.0000 0.43100  0.08590  0.08050  Biso   1.000  C
  H18      1.0000 0.48080  0.06180  0.08590  Biso   1.000  H
  C21      1.0000 0.31750  0.10980  0.03540  Biso   1.000  C
  H19      1.0000 0.28700  0.10440  0.00820  Biso   1.000  H
  C22      1.0000 0.28790  0.15090  0.06770  Biso   1.000  C
  H20      1.0000 0.23770  0.17420  0.06160  Biso   1.000  H
  C23      1.0000 0.42190  0.02980  0.00960  Biso   1.000  C
  H21      1.0000 0.47500  0.01020  0.02090  Biso   1.000  H
  H22      1.0000 0.37790  0.99740  0.00550  Biso   1.000  H
  C24      1.0000 0.43890  0.06040  0.96700  Biso   1.000  C
  H23      1.0000 0.48590  0.09050  0.97110  Biso   1.000  H
  H24      1.0000 0.38690  0.08310  0.95750  Biso   1.000  H
  C25      1.0000 0.46520  0.01220  0.92910  Biso   1.000  C
  H25      1.0000 0.48180  0.03500  0.90170  Biso   1.000  H
  H26      1.0000 0.51600  0.98880  0.93930  Biso   1.000  H
  C26      1.0000 0.39860  0.97050  0.91830  Biso   1.000  C
  H27      1.0000 0.34490  0.99350  0.91290  Biso   1.000  H
  H28      1.0000 0.38890  0.94250  0.94390  Biso   1.000  H
  C27      1.0000 0.47320  0.88310  0.87860  Biso   1.000  C
  H29      1.0000 0.49650  0.87270  0.90700  Biso   1.000  H
  C28      1.0000 0.49470  0.84720  0.84180  Biso   1.000  C
  H30      1.0000 0.53040  0.81220  0.84550  Biso   1.000  H
  C29      1.0000 0.46340  0.86290  0.79920  Biso   1.000  C
  C30      1.0000 0.41030  0.91520  0.79600  Biso   1.000  C
  H31      1.0000 0.38860  0.92700  0.76760  Biso   1.000  H
  C31      1.0000 0.38860  0.95050  0.83430  Biso   1.000  C
  H32      1.0000 0.35310  0.98580  0.83190  Biso   1.000  H
  C32      1.0000 0.48820  0.82450  0.75800  Biso   1.000  C
  C33      1.0000 0.15690  0.38580  0.09960  Biso   1.000  C
  C34      1.0000 0.15970  0.35970  0.05090  Biso   1.000  C
  C35      1.0000 0.14460  0.29740  0.04300  Biso   1.000  C
  H33      1.0000 0.12990  0.27070  0.06690  Biso   1.000  H
  C36      1.0000 0.15170  0.27500  0.99870  Biso   1.000  C
  H34      1.0000 0.14160  0.23270  0.99300  Biso   1.000  H
  C37      1.0000 0.18500  0.37410  0.97050  Biso   1.000  C
  H35      1.0000 0.19570  0.40040  0.94580  Biso   1.000  H
  C38      1.0000 0.18160  0.39820  0.01420  Biso   1.000  C
  H36      1.0000 0.19400  0.44040  0.01910  Biso   1.000  H
  C39      1.0000 0.18340  0.28540  0.91840  Biso   1.000  C
  H37      1.0000 0.21850  0.24760  0.92060  Biso   1.000  H
  H38      1.0000 0.21410  0.31480  0.89880  Biso   1.000  H
  C40      1.0000 0.09470  0.26950  0.89730  Biso   1.000  C
  H39      1.0000 0.06170  0.30770  0.89240  Biso   1.000  H
  H40      1.0000 0.06170  0.24320  0.91820  Biso   1.000  H
  C41      1.0000 0.10640  0.23510  0.85150  Biso   1.000  C
  H41      1.0000 0.13370  0.26350  0.82990  Biso   1.000  H
  H42      1.0000 0.14590  0.20000  0.85600  Biso   1.000  H
  C42      1.0000 0.02220  0.21110  0.83130  Biso   1.000  C
  H43      1.0000 0.03510  0.18050  0.80780  Biso   1.000  H
  H44      1.0000 0.98790  0.19060  0.85490  Biso   1.000  H
  C43      1.0000 0.99220  0.28210  0.76950  Biso   1.000  C
  H45      1.0000 0.03720  0.26180  0.75400  Biso   1.000  H
  C44      1.0000 0.94850  0.33130  0.74870  Biso   1.000  C
  H46      1.0000 0.96360  0.34410  0.71940  Biso   1.000  H
  C45      1.0000 0.88170  0.36140  0.77240  Biso   1.000  C
  C46      1.0000 0.86000  0.34030  0.81680  Biso   1.000  C
  H47      1.0000 0.81550  0.35930  0.83350  Biso   1.000  H
  C47      1.0000 0.90680  0.29100  0.83440  Biso   1.000  C
  H48      1.0000 0.89320  0.27630  0.86350  Biso   1.000  H
  C48      1.0000 0.83290  0.41550  0.75020  Biso   1.000  C
  C49      1.0000 0.33620  0.37940  0.31430  Biso   1.000  C
  C50      1.0000 0.32180  0.35370  0.36160  Biso   1.000  C
  C51      1.0000 0.30970  0.29150  0.36960  Biso   1.000  C
  H49      1.0000 0.31040  0.26360  0.34520  Biso   1.000  H
  C52      1.0000 0.29660  0.26930  0.41250  Biso   1.000  C
  H50      1.0000 0.28890  0.22660  0.41740  Biso   1.000  H
  C53      1.0000 0.30680  0.37050  0.44080  Biso   1.000  C
  H51      1.0000 0.30580  0.39750  0.46570  Biso   1.000  H
  C54      1.0000 0.32040  0.39500  0.39880  Biso   1.000  C
  H52      1.0000 0.32860  0.43790  0.39470  Biso   1.000  H
  C55      1.0000 0.27880  0.28520  0.49640  Biso   1.000  C
  H53      1.0000 0.24590  0.31580  0.51390  Biso   1.000  H
  H54      1.0000 0.24480  0.24680  0.49500  Biso   1.000  H
  C56      1.0000 0.36610  0.27240  0.51980  Biso   1.000  C
  H55      1.0000 0.40000  0.24280  0.50190  Biso   1.000  H
  H56      1.0000 0.39940  0.31100  0.52230  Biso   1.000  H
  C57      1.0000 0.34850  0.24610  0.56650  Biso   1.000  C
  H57      1.0000 0.31950  0.27780  0.58480  Biso   1.000  H
  H58      1.0000 0.30870  0.21080  0.56360  Biso   1.000  H
  C58      1.0000 0.42930  0.22490  0.59100  Biso   1.000  C
  H59      1.0000 0.46410  0.19930  0.57040  Biso   1.000  H
  H60      1.0000 0.41230  0.19890  0.61670  Biso   1.000  H
  C59      1.0000 0.46710  0.30450  0.64840  Biso   1.000  C
  H61      1.0000 0.41930  0.29040  0.66520  Biso   1.000  H
  C60      1.0000 0.51760  0.35150  0.66540  Biso   1.000  C
  H62      1.0000 0.50430  0.37010  0.69330  Biso   1.000  H
  C61      1.0000 0.59020  0.37120  0.63980  Biso   1.000  C
  C62      1.0000 0.60450  0.34470  0.59800  Biso   1.000  C
  H63      1.0000 0.65060  0.35910  0.58020  Biso   1.000  H
  C63      1.0000 0.55320  0.29790  0.58190  Biso   1.000  C
  H64      1.0000 0.56440  0.27960  0.55370  Biso   1.000  H
  C64      1.0000 0.65140  0.42040  0.66020  Biso   1.000  C
  O1       1.0000 0.14070  0.21230  0.23410  Biso   1.000  O
  O2       1.0000 0.26540  0.22610  0.27261  Biso   1.000  O
  O3       1.0000 0.05930  0.83230  0.69062  Biso   1.000  O
  O4       1.0000 0.97100  0.77540  0.64630  Biso   1.000  O
  O5       1.0000 0.21930  0.22650  0.13676  Biso   1.000  O
  O6       1.0000 0.33950  0.20990  0.17780  Biso   1.000  O
  O7       1.0000 0.54260  0.78120  0.76495  Biso   1.000  O
  O8       1.0000 0.45140  0.83890  0.72145  Biso   1.000  O
  O9       1.0000 0.18440  0.43990  0.10388  Biso   1.000  O
  O10      1.0000 0.12150  0.35230  0.12956  Biso   1.000  O
  O11      1.0000 0.85320  0.42670  0.70940  Biso   1.000  O
  O12      1.0000 0.77960  0.44440  0.77540  Biso   1.000  O
  O13      1.0000 0.36930  0.34440  0.28562  Biso   1.000  O
  O14      1.0000 0.31290  0.43560  0.30780  Biso   1.000  O
  O15      1.0000 0.71060  0.44190  0.63509  Biso   1.000  O
  O16      1.0000 0.63700  0.43450  0.70140  Biso   1.000  O
  N1       1.0000 0.24590  0.33460  0.20560  Biso   1.000  N
  N2       1.0000 0.24700  0.38934  0.20620  Biso   1.000  N
  N3       1.0000 0.24810  0.44460  0.20720  Biso   1.000  N
  N4       1.0000 0.13150  0.05060  0.35510  Biso   1.000  N
  N5       1.0000 0.03300  0.95680  0.54910  Biso   1.000  N
  N6       1.0000 0.38980  0.07800  0.04340  Biso   1.000  N
  N7       1.0000 0.42110  0.93170  0.87570  Biso   1.000  N
  N8       1.0000 0.17270  0.31290  0.96390  Biso   1.000  N
  N9       1.0000 0.97050  0.26370  0.81120  Biso   1.000  N
  N10      1.0000 0.29470  0.30990  0.44810  Biso   1.000  N
  N11      1.0000 0.48470  0.27820  0.60810  Biso   1.000  N
  Mn5      1.0000 0.63855  0.72695  0.73334  Biso   1.000  Mn
  Mn6      1.0000 0.87091  0.72304  0.67966  Biso   1.000  Mn
  Mn7      1.0000 0.82748  0.49064  0.65734  Biso   1.000  Mn
  Mn8      1.0000 0.66711  0.49673  0.75526  Biso   1.000  Mn
  C65      1.0000 0.80560  0.79910  0.76550  Biso   1.000  C
  C66      1.0000 0.83040  0.85180  0.79810  Biso   1.000  C
  C67      1.0000 0.76510  0.87860  0.82470  Biso   1.000  C
  H65      1.0000 0.70780  0.86370  0.82380  Biso   1.000  H
  C68      1.0000 0.78810  0.92790  0.85240  Biso   1.000  C
  H66      1.0000 0.74490  0.94680  0.87000  Biso   1.000  H
  C69      1.0000 0.93370  0.92370  0.82870  Biso   1.000  C
  H67      1.0000 0.99070  0.93900  0.83020  Biso   1.000  H
  C70      1.0000 0.91370  0.87580  0.80050  Biso   1.000  C
  H68      1.0000 0.95740  0.85860  0.78230  Biso   1.000  H
  C71      1.0000 0.89010  0.00180  0.88730  Biso   1.000  C
  H69      1.0000 0.93520  0.02840  0.87410  Biso   1.000  H
  H70      1.0000 0.83850  0.02730  0.89270  Biso   1.000  H
  C72      1.0000 0.92110  0.97510  0.93020  Biso   1.000  C
  H71      1.0000 0.97860  0.95670  0.92570  Biso   1.000  H
  H72      1.0000 0.88140  0.94220  0.94000  Biso   1.000  H
  C73      1.0000 0.92620  0.02680  0.96760  Biso   1.000  C
  H73      1.0000 0.96410  0.06060  0.95770  Biso   1.000  H
  H74      1.0000 0.86840  0.04370  0.97360  Biso   1.000  H
  C74      1.0000 0.96350  0.99550  0.01080  Biso   1.000  C
  H75      1.0000 0.92660  0.96060  0.01970  Biso   1.000  H
  H76      1.0000 0.02190  0.97960  0.00470  Biso   1.000  H
  C75      1.0000 0.90060  0.04770  0.07950  Biso   1.000  C
  H77      1.0000 0.85150  0.02220  0.07690  Biso   1.000  H
  C76      1.0000 0.90640  0.09000  0.11400  Biso   1.000  C
  H78      1.0000 0.86300  0.09100  0.13630  Biso   1.000  H
  C77      1.0000 0.97410  0.13040  0.11630  Biso   1.000  C
  C78      1.0000 0.03890  0.12690  0.08350  Biso   1.000  C
  H79      1.0000 0.08600  0.15460  0.08390  Biso   1.000  H
  C79      1.0000 0.03230  0.08160  0.05020  Biso   1.000  C
  H80      1.0000 0.07580  0.07860  0.02810  Biso   1.000  H
  C80      1.0000 0.98230  0.17940  0.15440  Biso   1.000  C
  C81      1.0000 0.70640  0.79750  0.64470  Biso   1.000  C
  C82      1.0000 0.67180  0.84120  0.60720  Biso   1.000  C
  C83      1.0000 0.59470  0.87160  0.61350  Biso   1.000  C
  H81      1.0000 0.56020  0.86400  0.63910  Biso   1.000  H
  C84      1.0000 0.56900  0.91410  0.58050  Biso   1.000  C
  H82      1.0000 0.51920  0.93820  0.58590  Biso   1.000  H
  C85      1.0000 0.68250  0.89020  0.53540  Biso   1.000  C
  H83      1.0000 0.71300  0.89560  0.50820  Biso   1.000  H
  C86      1.0000 0.71210  0.84910  0.56770  Biso   1.000  C
  H84      1.0000 0.76230  0.82580  0.56160  Biso   1.000  H
  C87      1.0000 0.57810  0.97020  0.50960  Biso   1.000  C
  H85      1.0000 0.52500  0.98980  0.52090  Biso   1.000  H
  H86      1.0000 0.62210  0.00260  0.50550  Biso   1.000  H
  C88      1.0000 0.56110  0.93960  0.46700  Biso   1.000  C
  H87      1.0000 0.51410  0.90950  0.47110  Biso   1.000  H
  H88      1.0000 0.61310  0.91690  0.45750  Biso   1.000  H
  C89      1.0000 0.53480  0.98780  0.42910  Biso   1.000  C
  H89      1.0000 0.51820  0.96500  0.40170  Biso   1.000  H
  H90      1.0000 0.48400  0.01120  0.43930  Biso   1.000  H
  C90      1.0000 0.60140  0.02950  0.41830  Biso   1.000  C
  H91      1.0000 0.65510  0.00650  0.41290  Biso   1.000  H
  H92      1.0000 0.61110  0.05750  0.44390  Biso   1.000  H
  C91      1.0000 0.52680  0.11690  0.37860  Biso   1.000  C
  H93      1.0000 0.50350  0.12730  0.40700  Biso   1.000  H
  C92      1.0000 0.50530  0.15280  0.34180  Biso   1.000  C
  H94      1.0000 0.46960  0.18780  0.34550  Biso   1.000  H
  C93      1.0000 0.53660  0.13710  0.29920  Biso   1.000  C
  C94      1.0000 0.58970  0.08480  0.29600  Biso   1.000  C
  H95      1.0000 0.61140  0.07300  0.26760  Biso   1.000  H
  C95      1.0000 0.61140  0.04950  0.33430  Biso   1.000  C
  H96      1.0000 0.64690  0.01420  0.33190  Biso   1.000  H
  C96      1.0000 0.51180  0.17550  0.25800  Biso   1.000  C
  C97      1.0000 0.84310  0.61420  0.59960  Biso   1.000  C
  C98      1.0000 0.84030  0.64030  0.55090  Biso   1.000  C
  C99      1.0000 0.85540  0.70260  0.54300  Biso   1.000  C
  H97      1.0000 0.87010  0.72930  0.56690  Biso   1.000  H
  C100     1.0000 0.84830  0.72500  0.49870  Biso   1.000  C
  H98      1.0000 0.85840  0.76730  0.49300  Biso   1.000  H
  C101     1.0000 0.81500  0.62590  0.47050  Biso   1.000  C
  H99      1.0000 0.80430  0.59960  0.44580  Biso   1.000  H
  C102     1.0000 0.81840  0.60180  0.51420  Biso   1.000  C
  H100     1.0000 0.80600  0.55960  0.51910  Biso   1.000  H
  C103     1.0000 0.81660  0.71460  0.41840  Biso   1.000  C
  H101     1.0000 0.78150  0.75240  0.42060  Biso   1.000  H
  H102     1.0000 0.78590  0.68520  0.39880  Biso   1.000  H
  C104     1.0000 0.90530  0.73050  0.39730  Biso   1.000  C
  H103     1.0000 0.93830  0.69230  0.39240  Biso   1.000  H
  H104     1.0000 0.93830  0.75680  0.41820  Biso   1.000  H
  C105     1.0000 0.89360  0.76490  0.35150  Biso   1.000  C
  H105     1.0000 0.86630  0.73650  0.32990  Biso   1.000  H
  H106     1.0000 0.85410  0.80000  0.35600  Biso   1.000  H
  C106     1.0000 0.97780  0.78890  0.33130  Biso   1.000  C
  H107     1.0000 0.96490  0.81950  0.30780  Biso   1.000  H
  H108     1.0000 0.01210  0.80940  0.35490  Biso   1.000  H
  C107     1.0000 0.00780  0.71790  0.26950  Biso   1.000  C
  H109     1.0000 0.96280  0.73820  0.25400  Biso   1.000  H
  C108     1.0000 0.05150  0.66870  0.24870  Biso   1.000  C
  H110     1.0000 0.03640  0.65590  0.21940  Biso   1.000  H
  C109     1.0000 0.11830  0.63860  0.27240  Biso   1.000  C
  C110     1.0000 0.14000  0.65970  0.31680  Biso   1.000  C
  H111     1.0000 0.18450  0.64070  0.33350  Biso   1.000  H
  C111     1.0000 0.09320  0.70900  0.33440  Biso   1.000  C
  H112     1.0000 0.10680  0.72370  0.36350  Biso   1.000  H
  C112     1.0000 0.16710  0.58450  0.25020  Biso   1.000  C
  C113     1.0000 0.66380  0.62060  0.81430  Biso   1.000  C
  C114     1.0000 0.67820  0.64630  0.86160  Biso   1.000  C
  C115     1.0000 0.69030  0.70850  0.86960  Biso   1.000  C
  H113     1.0000 0.68960  0.73640  0.84520  Biso   1.000  H
  C116     1.0000 0.70340  0.73070  0.91250  Biso   1.000  C
  H114     1.0000 0.71110  0.77340  0.91740  Biso   1.000  H
  C117     1.0000 0.69320  0.62950  0.94080  Biso   1.000  C
  H115     1.0000 0.69420  0.60250  0.96570  Biso   1.000  H
  C118     1.0000 0.67960  0.60500  0.89880  Biso   1.000  C
  H116     1.0000 0.67140  0.56210  0.89470  Biso   1.000  H
  C119     1.0000 0.72120  0.71480  0.99640  Biso   1.000  C
  H117     1.0000 0.75410  0.68420  0.01390  Biso   1.000  H
  H118     1.0000 0.75520  0.75320  0.99500  Biso   1.000  H
  C120     1.0000 0.63390  0.72760  0.01980  Biso   1.000  C
  H119     1.0000 0.60000  0.75720  0.00190  Biso   1.000  H
  H120     1.0000 0.60060  0.68900  0.02230  Biso   1.000  H
  C121     1.0000 0.65150  0.75390  0.06650  Biso   1.000  C
  H121     1.0000 0.68050  0.72220  0.08480  Biso   1.000  H
  H122     1.0000 0.69130  0.78920  0.06360  Biso   1.000  H
  C122     1.0000 0.57070  0.77510  0.09100  Biso   1.000  C
  H123     1.0000 0.53590  0.80070  0.07040  Biso   1.000  H
  H124     1.0000 0.58770  0.80110  0.11670  Biso   1.000  H
  C123     1.0000 0.53290  0.69550  0.14840  Biso   1.000  C
  H125     1.0000 0.58070  0.70960  0.16520  Biso   1.000  H
  C124     1.0000 0.48240  0.64850  0.16540  Biso   1.000  C
  H126     1.0000 0.49570  0.62990  0.19330  Biso   1.000  H
  C125     1.0000 0.40980  0.62880  0.13980  Biso   1.000  C
  C126     1.0000 0.39550  0.65530  0.09800  Biso   1.000  C
  H127     1.0000 0.34940  0.64090  0.08020  Biso   1.000  H
  C127     1.0000 0.44680  0.70210  0.08190  Biso   1.000  C
  H128     1.0000 0.43560  0.72040  0.05370  Biso   1.000  H
  C128     1.0000 0.34860  0.57960  0.16020  Biso   1.000  C
  O17      1.0000 0.85930  0.78770  0.73410  Biso   1.000  O
  O18      1.0000 0.73460  0.77390  0.77261  Biso   1.000  O
  O19      1.0000 0.94070  0.16770  0.19062  Biso   1.000  O
  O20      1.0000 0.02900  0.22460  0.14630  Biso   1.000  O
  O21      1.0000 0.78070  0.77350  0.63676  Biso   1.000  O
  O22      1.0000 0.66050  0.79010  0.67780  Biso   1.000  O
  O23      1.0000 0.45740  0.21880  0.26495  Biso   1.000  O
  O24      1.0000 0.54860  0.16110  0.22145  Biso   1.000  O
  O25      1.0000 0.81560  0.56010  0.60388  Biso   1.000  O
  O26      1.0000 0.87850  0.64770  0.62956  Biso   1.000  O
  O27      1.0000 0.14680  0.57330  0.20940  Biso   1.000  O
  O28      1.0000 0.22040  0.55560  0.27540  Biso   1.000  O
  O29      1.0000 0.63070  0.65560  0.78562  Biso   1.000  O
  O30      1.0000 0.68710  0.56440  0.80780  Biso   1.000  O
  O31      1.0000 0.28940  0.55810  0.13509  Biso   1.000  O
  O32      1.0000 0.36300  0.56550  0.20140  Biso   1.000  O
  N12      1.0000 0.75410  0.66540  0.70560  Biso   1.000  N
  N13      1.0000 0.75300  0.61066  0.70620  Biso   1.000  N
  N14      1.0000 0.75190  0.55540  0.70720  Biso   1.000  N
  N15      1.0000 0.86850  0.94940  0.85510  Biso   1.000  N
  N16      1.0000 0.96700  0.04320  0.04910  Biso   1.000  N
  N17      1.0000 0.61020  0.92200  0.54340  Biso   1.000  N
  N18      1.0000 0.57890  0.06830  0.37570  Biso   1.000  N
  N19      1.0000 0.82730  0.68710  0.46390  Biso   1.000  N
  N20      1.0000 0.02950  0.73630  0.31120  Biso   1.000  N
  N21      1.0000 0.70530  0.69010  0.94810  Biso   1.000  N
  N22      1.0000 0.51530  0.72180  0.10810  Biso   1.000  N
  Mn9      1.0000 0.86145  0.22695  0.23334  Biso   1.000  Mn
  Mn10     1.0000 0.62909  0.22304  0.17966  Biso   1.000  Mn
  Mn11     1.0000 0.67252  0.99064  0.15734  Biso   1.000  Mn
  Mn12     1.0000 0.83289  0.99673  0.25526  Biso   1.000  Mn
  C129     1.0000 0.69440  0.29910  0.26550  Biso   1.000  C
  C130     1.0000 0.66960  0.35180  0.29810  Biso   1.000  C
  C131     1.0000 0.73490  0.37860  0.32470  Biso   1.000  C
  H129     1.0000 0.79220  0.36370  0.32380  Biso   1.000  H
  C132     1.0000 0.71190  0.42790  0.35240  Biso   1.000  C
  H130     1.0000 0.75510  0.44680  0.37000  Biso   1.000  H
  C133     1.0000 0.56630  0.42370  0.32870  Biso   1.000  C
  H131     1.0000 0.50930  0.43900  0.33020  Biso   1.000  H
  C134     1.0000 0.58630  0.37580  0.30050  Biso   1.000  C
  H132     1.0000 0.54260  0.35860  0.28230  Biso   1.000  H
  C135     1.0000 0.60990  0.50180  0.38730  Biso   1.000  C
  H133     1.0000 0.56480  0.52840  0.37410  Biso   1.000  H
  H134     1.0000 0.66150  0.52730  0.39270  Biso   1.000  H
  C136     1.0000 0.57890  0.47510  0.43020  Biso   1.000  C
  H135     1.0000 0.52140  0.45670  0.42570  Biso   1.000  H
  H136     1.0000 0.61860  0.44220  0.44000  Biso   1.000  H
  C137     1.0000 0.57380  0.52680  0.46760  Biso   1.000  C
  H137     1.0000 0.53590  0.56060  0.45770  Biso   1.000  H
  H138     1.0000 0.63160  0.54370  0.47360  Biso   1.000  H
  C138     1.0000 0.53650  0.49550  0.51080  Biso   1.000  C
  H139     1.0000 0.57340  0.46060  0.51970  Biso   1.000  H
  H140     1.0000 0.47810  0.47960  0.50470  Biso   1.000  H
  C139     1.0000 0.59940  0.54770  0.57950  Biso   1.000  C
  H141     1.0000 0.64850  0.52220  0.57690  Biso   1.000  H
  C140     1.0000 0.59360  0.59000  0.61400  Biso   1.000  C
  H142     1.0000 0.63700  0.59100  0.63630  Biso   1.000  H
  C141     1.0000 0.52590  0.63040  0.61630  Biso   1.000  C
  C142     1.0000 0.46110  0.62690  0.58350  Biso   1.000  C
  H143     1.0000 0.41400  0.65460  0.58390  Biso   1.000  H
  C143     1.0000 0.46770  0.58160  0.55020  Biso   1.000  C
  H144     1.0000 0.42420  0.57860  0.52810  Biso   1.000  H
  C144     1.0000 0.51770  0.67940  0.65440  Biso   1.000  C
  C145     1.0000 0.79360  0.29750  0.14470  Biso   1.000  C
  C146     1.0000 0.82820  0.34120  0.10720  Biso   1.000  C
  C147     1.0000 0.90530  0.37160  0.11350  Biso   1.000  C
  H145     1.0000 0.93980  0.36400  0.13910  Biso   1.000  H
  C148     1.0000 0.93100  0.41410  0.08050  Biso   1.000  C
  H146     1.0000 0.98080  0.43820  0.08590  Biso   1.000  H
  C149     1.0000 0.81750  0.39020  0.03540  Biso   1.000  C
  H147     1.0000 0.78700  0.39560  0.00820  Biso   1.000  H
  C150     1.0000 0.78790  0.34910  0.06770  Biso   1.000  C
  H148     1.0000 0.73770  0.32580  0.06160  Biso   1.000  H
  C151     1.0000 0.92190  0.47020  0.00960  Biso   1.000  C
  H149     1.0000 0.97500  0.48980  0.02090  Biso   1.000  H
  H150     1.0000 0.87790  0.50260  0.00550  Biso   1.000  H
  C152     1.0000 0.93890  0.43960  0.96700  Biso   1.000  C
  H151     1.0000 0.98590  0.40950  0.97110  Biso   1.000  H
  H152     1.0000 0.88690  0.41690  0.95750  Biso   1.000  H
  C153     1.0000 0.96520  0.48780  0.92910  Biso   1.000  C
  H153     1.0000 0.98180  0.46500  0.90170  Biso   1.000  H
  H154     1.0000 0.01600  0.51120  0.93930  Biso   1.000  H
  C154     1.0000 0.89860  0.52950  0.91830  Biso   1.000  C
  H155     1.0000 0.84490  0.50650  0.91290  Biso   1.000  H
  H156     1.0000 0.88890  0.55750  0.94390  Biso   1.000  H
  C155     1.0000 0.97320  0.61690  0.87860  Biso   1.000  C
  H157     1.0000 0.99650  0.62730  0.90700  Biso   1.000  H
  C156     1.0000 0.99470  0.65280  0.84180  Biso   1.000  C
  H158     1.0000 0.03040  0.68780  0.84550  Biso   1.000  H
  C157     1.0000 0.96340  0.63710  0.79920  Biso   1.000  C
  C158     1.0000 0.91030  0.58480  0.79600  Biso   1.000  C
  H159     1.0000 0.88860  0.57300  0.76760  Biso   1.000  H
  C159     1.0000 0.88860  0.54950  0.83430  Biso   1.000  C
  H160     1.0000 0.85310  0.51420  0.83190  Biso   1.000  H
  C160     1.0000 0.98820  0.67550  0.75800  Biso   1.000  C
  C161     1.0000 0.65690  0.11420  0.09960  Biso   1.000  C
  C162     1.0000 0.65970  0.14030  0.05090  Biso   1.000  C
  C163     1.0000 0.64460  0.20260  0.04300  Biso   1.000  C
  H161     1.0000 0.62990  0.22930  0.06690  Biso   1.000  H
  C164     1.0000 0.65170  0.22500  0.99870  Biso   1.000  C
  H162     1.0000 0.64160  0.26730  0.99300  Biso   1.000  H
  C165     1.0000 0.68500  0.12590  0.97050  Biso   1.000  C
  H163     1.0000 0.69570  0.09960  0.94580  Biso   1.000  H
  C166     1.0000 0.68160  0.10180  0.01420  Biso   1.000  C
  H164     1.0000 0.69400  0.05960  0.01910  Biso   1.000  H
  C167     1.0000 0.68340  0.21460  0.91840  Biso   1.000  C
  H165     1.0000 0.71850  0.25240  0.92060  Biso   1.000  H
  H166     1.0000 0.71410  0.18520  0.89880  Biso   1.000  H
  C168     1.0000 0.59470  0.23050  0.89730  Biso   1.000  C
  H167     1.0000 0.56170  0.19230  0.89240  Biso   1.000  H
  H168     1.0000 0.56170  0.25680  0.91820  Biso   1.000  H
  C169     1.0000 0.60640  0.26490  0.85150  Biso   1.000  C
  H169     1.0000 0.63370  0.23650  0.82990  Biso   1.000  H
  H170     1.0000 0.64590  0.30000  0.85600  Biso   1.000  H
  C170     1.0000 0.52220  0.28890  0.83130  Biso   1.000  C
  H171     1.0000 0.53510  0.31950  0.80780  Biso   1.000  H
  H172     1.0000 0.48790  0.30940  0.85490  Biso   1.000  H
  C171     1.0000 0.49220  0.21790  0.76950  Biso   1.000  C
  H173     1.0000 0.53720  0.23820  0.75400  Biso   1.000  H
  C172     1.0000 0.44850  0.16870  0.74870  Biso   1.000  C
  H174     1.0000 0.46360  0.15590  0.71940  Biso   1.000  H
  C173     1.0000 0.38170  0.13860  0.77240  Biso   1.000  C
  C174     1.0000 0.36000  0.15970  0.81680  Biso   1.000  C
  H175     1.0000 0.31550  0.14070  0.83350  Biso   1.000  H
  C175     1.0000 0.40680  0.20900  0.83440  Biso   1.000  C
  H176     1.0000 0.39320  0.22370  0.86350  Biso   1.000  H
  C176     1.0000 0.33290  0.08450  0.75020  Biso   1.000  C
  C177     1.0000 0.83620  0.12060  0.31430  Biso   1.000  C
  C178     1.0000 0.82180  0.14630  0.36160  Biso   1.000  C
  C179     1.0000 0.80970  0.20850  0.36960  Biso   1.000  C
  H177     1.0000 0.81040  0.23640  0.34520  Biso   1.000  H
  C180     1.0000 0.79660  0.23070  0.41250  Biso   1.000  C
  H178     1.0000 0.78890  0.27340  0.41740  Biso   1.000  H
  C181     1.0000 0.80680  0.12950  0.44080  Biso   1.000  C
  H179     1.0000 0.80580  0.10250  0.46570  Biso   1.000  H
  C182     1.0000 0.82040  0.10500  0.39880  Biso   1.000  C
  H180     1.0000 0.82860  0.06210  0.39470  Biso   1.000  H
  C183     1.0000 0.77880  0.21480  0.49640  Biso   1.000  C
  H181     1.0000 0.74590  0.18420  0.51390  Biso   1.000  H
  H182     1.0000 0.74480  0.25320  0.49500  Biso   1.000  H
  C184     1.0000 0.86610  0.22760  0.51980  Biso   1.000  C
  H183     1.0000 0.90000  0.25720  0.50190  Biso   1.000  H
  H184     1.0000 0.89940  0.18900  0.52230  Biso   1.000  H
  C185     1.0000 0.84850  0.25390  0.56650  Biso   1.000  C
  H185     1.0000 0.81950  0.22220  0.58480  Biso   1.000  H
  H186     1.0000 0.80870  0.28920  0.56360  Biso   1.000  H
  C186     1.0000 0.92930  0.27510  0.59100  Biso   1.000  C
  H187     1.0000 0.96410  0.30070  0.57040  Biso   1.000  H
  H188     1.0000 0.91230  0.30110  0.61670  Biso   1.000  H
  C187     1.0000 0.96710  0.19550  0.64840  Biso   1.000  C
  H189     1.0000 0.91930  0.20960  0.66520  Biso   1.000  H
  C188     1.0000 0.01760  0.14850  0.66540  Biso   1.000  C
  H190     1.0000 0.00430  0.12990  0.69330  Biso   1.000  H
  C189     1.0000 0.09020  0.12880  0.63980  Biso   1.000  C
  C190     1.0000 0.10450  0.15530  0.59800  Biso   1.000  C
  H191     1.0000 0.15060  0.14090  0.58020  Biso   1.000  H
  C191     1.0000 0.05320  0.20210  0.58190  Biso   1.000  C
  H192     1.0000 0.06440  0.22040  0.55370  Biso   1.000  H
  C192     1.0000 0.15140  0.07960  0.66020  Biso   1.000  C
  O33      1.0000 0.64070  0.28770  0.23410  Biso   1.000  O
  O34      1.0000 0.76540  0.27390  0.27261  Biso   1.000  O
  O35      1.0000 0.55930  0.66770  0.69062  Biso   1.000  O
  O36      1.0000 0.47100  0.72460  0.64630  Biso   1.000  O
  O37      1.0000 0.71930  0.27350  0.13676  Biso   1.000  O
  O38      1.0000 0.83950  0.29010  0.17780  Biso   1.000  O
  O39      1.0000 0.04260  0.71880  0.76495  Biso   1.000  O
  O40      1.0000 0.95140  0.66110  0.72145  Biso   1.000  O
  O41      1.0000 0.68440  0.06010  0.10388  Biso   1.000  O
  O42      1.0000 0.62150  0.14770  0.12956  Biso   1.000  O
  O43      1.0000 0.35320  0.07330  0.70940  Biso   1.000  O
  O44      1.0000 0.27960  0.05560  0.77540  Biso   1.000  O
  O45      1.0000 0.86930  0.15560  0.28562  Biso   1.000  O
  O46      1.0000 0.81290  0.06440  0.30780  Biso   1.000  O
  O47      1.0000 0.21060  0.05810  0.63509  Biso   1.000  O
  O48      1.0000 0.13700  0.06550  0.70140  Biso   1.000  O
  N23      1.0000 0.74590  0.16540  0.20560  Biso   1.000  N
  N24      1.0000 0.74700  0.11066  0.20620  Biso   1.000  N
  N25      1.0000 0.74810  0.05540  0.20720  Biso   1.000  N
  N26      1.0000 0.63150  0.44940  0.35510  Biso   1.000  N
  N27      1.0000 0.53300  0.54320  0.54910  Biso   1.000  N
  N28      1.0000 0.88980  0.42200  0.04340  Biso   1.000  N
  N29      1.0000 0.92110  0.56830  0.87570  Biso   1.000  N
  N30      1.0000 0.67270  0.18710  0.96390  Biso   1.000  N
  N31      1.0000 0.47050  0.23630  0.81120  Biso   1.000  N
  N32      1.0000 0.79470  0.19010  0.44810  Biso   1.000  N
  N33      1.0000 0.98470  0.22180  0.60810  Biso   1.000  N
  Mn13     1.0000 0.13855  0.77305  0.73334  Biso   1.000  Mn
  Mn14     1.0000 0.37091  0.77696  0.67966  Biso   1.000  Mn
  Mn15     1.0000 0.32748  0.00936  0.65734  Biso   1.000  Mn
  Mn16     1.0000 0.16711  0.00327  0.75526  Biso   1.000  Mn
  C193     1.0000 0.30560  0.70090  0.76550  Biso   1.000  C
  C194     1.0000 0.33040  0.64820  0.79810  Biso   1.000  C
  C195     1.0000 0.26510  0.62140  0.82470  Biso   1.000  C
  H193     1.0000 0.20780  0.63630  0.82380  Biso   1.000  H
  C196     1.0000 0.28810  0.57210  0.85240  Biso   1.000  C
  H194     1.0000 0.24490  0.55320  0.87000  Biso   1.000  H
  C197     1.0000 0.43370  0.57630  0.82870  Biso   1.000  C
  H195     1.0000 0.49070  0.56100  0.83020  Biso   1.000  H
  C198     1.0000 0.41370  0.62420  0.80050  Biso   1.000  C
  H196     1.0000 0.45740  0.64140  0.78230  Biso   1.000  H
  C199     1.0000 0.39010  0.49820  0.88730  Biso   1.000  C
  H197     1.0000 0.43520  0.47160  0.87410  Biso   1.000  H
  H198     1.0000 0.33850  0.47270  0.89270  Biso   1.000  H
  C200     1.0000 0.42110  0.52490  0.93020  Biso   1.000  C
  H199     1.0000 0.47860  0.54330  0.92570  Biso   1.000  H
  H200     1.0000 0.38140  0.55780  0.94000  Biso   1.000  H
  C201     1.0000 0.42620  0.47320  0.96760  Biso   1.000  C
  H201     1.0000 0.46410  0.43940  0.95770  Biso   1.000  H
  H202     1.0000 0.36840  0.45630  0.97360  Biso   1.000  H
  C202     1.0000 0.46350  0.50450  0.01080  Biso   1.000  C
  H203     1.0000 0.42660  0.53940  0.01970  Biso   1.000  H
  H204     1.0000 0.52190  0.52040  0.00470  Biso   1.000  H
  C203     1.0000 0.40060  0.45230  0.07950  Biso   1.000  C
  H205     1.0000 0.35150  0.47780  0.07690  Biso   1.000  H
  C204     1.0000 0.40640  0.41000  0.11400  Biso   1.000  C
  H206     1.0000 0.36300  0.40900  0.13630  Biso   1.000  H
  C205     1.0000 0.47410  0.36960  0.11630  Biso   1.000  C
  C206     1.0000 0.53890  0.37310  0.08350  Biso   1.000  C
  H207     1.0000 0.58600  0.34540  0.08390  Biso   1.000  H
  C207     1.0000 0.53230  0.41840  0.05020  Biso   1.000  C
  H208     1.0000 0.57580  0.42140  0.02810  Biso   1.000  H
  C208     1.0000 0.48230  0.32060  0.15440  Biso   1.000  C
  C209     1.0000 0.20640  0.70250  0.64470  Biso   1.000  C
  C210     1.0000 0.17180  0.65880  0.60720  Biso   1.000  C
  C211     1.0000 0.09470  0.62840  0.61350  Biso   1.000  C
  H209     1.0000 0.06020  0.63600  0.63910  Biso   1.000  H
  C212     1.0000 0.06900  0.58590  0.58050  Biso   1.000  C
  H210     1.0000 0.01920  0.56180  0.58590  Biso   1.000  H
  C213     1.0000 0.18250  0.60980  0.53540  Biso   1.000  C
  H211     1.0000 0.21300  0.60440  0.50820  Biso   1.000  H
  C214     1.0000 0.21210  0.65090  0.56770  Biso   1.000  C
  H212     1.0000 0.26230  0.67420  0.56160  Biso   1.000  H
  C215     1.0000 0.07810  0.52980  0.50960  Biso   1.000  C
  H213     1.0000 0.02500  0.51020  0.52090  Biso   1.000  H
  H214     1.0000 0.12210  0.49740  0.50550  Biso   1.000  H
  C216     1.0000 0.06110  0.56040  0.46700  Biso   1.000  C
  H215     1.0000 0.01410  0.59050  0.47110  Biso   1.000  H
  H216     1.0000 0.11310  0.58310  0.45750  Biso   1.000  H
  C217     1.0000 0.03480  0.51220  0.42910  Biso   1.000  C
  H217     1.0000 0.01820  0.53500  0.40170  Biso   1.000  H
  H218     1.0000 0.98400  0.48880  0.43930  Biso   1.000  H
  C218     1.0000 0.10140  0.47050  0.41830  Biso   1.000  C
  H219     1.0000 0.15510  0.49350  0.41290  Biso   1.000  H
  H220     1.0000 0.11110  0.44250  0.44390  Biso   1.000  H
  C219     1.0000 0.02680  0.38310  0.37860  Biso   1.000  C
  H221     1.0000 0.00350  0.37270  0.40700  Biso   1.000  H
  C220     1.0000 0.00530  0.34720  0.34180  Biso   1.000  C
  H222     1.0000 0.96960  0.31220  0.34550  Biso   1.000  H
  C221     1.0000 0.03660  0.36290  0.29920  Biso   1.000  C
  C222     1.0000 0.08970  0.41520  0.29600  Biso   1.000  C
  H223     1.0000 0.11140  0.42700  0.26760  Biso   1.000  H
  C223     1.0000 0.11140  0.45050  0.33430  Biso   1.000  C
  H224     1.0000 0.14690  0.48580  0.33190  Biso   1.000  H
  C224     1.0000 0.01180  0.32450  0.25800  Biso   1.000  C
  C225     1.0000 0.34310  0.88580  0.59960  Biso   1.000  C
  C226     1.0000 0.34030  0.85970  0.55090  Biso   1.000  C
  C227     1.0000 0.35540  0.79740  0.54300  Biso   1.000  C
  H225     1.0000 0.37010  0.77070  0.56690  Biso   1.000  H
  C228     1.0000 0.34830  0.77500  0.49870  Biso   1.000  C
  H226     1.0000 0.35840  0.73270  0.49300  Biso   1.000  H
  C229     1.0000 0.31500  0.87410  0.47050  Biso   1.000  C
  H227     1.0000 0.30430  0.90040  0.44580  Biso   1.000  H
  C230     1.0000 0.31840  0.89820  0.51420  Biso   1.000  C
  H228     1.0000 0.30600  0.94040  0.51910  Biso   1.000  H
  C231     1.0000 0.31660  0.78540  0.41840  Biso   1.000  C
  H229     1.0000 0.28150  0.74760  0.42060  Biso   1.000  H
  H230     1.0000 0.28590  0.81480  0.39880  Biso   1.000  H
  C232     1.0000 0.40530  0.76950  0.39730  Biso   1.000  C
  H231     1.0000 0.43830  0.80770  0.39240  Biso   1.000  H
  H232     1.0000 0.43830  0.74320  0.41820  Biso   1.000  H
  C233     1.0000 0.39360  0.73510  0.35150  Biso   1.000  C
  H233     1.0000 0.36630  0.76350  0.32990  Biso   1.000  H
  H234     1.0000 0.35410  0.70000  0.35600  Biso   1.000  H
  C234     1.0000 0.47780  0.71110  0.33130  Biso   1.000  C
  H235     1.0000 0.46490  0.68050  0.30780  Biso   1.000  H
  H236     1.0000 0.51210  0.69060  0.35490  Biso   1.000  H
  C235     1.0000 0.50780  0.78210  0.26950  Biso   1.000  C
  H237     1.0000 0.46280  0.76180  0.25400  Biso   1.000  H
  C236     1.0000 0.55150  0.83130  0.24870  Biso   1.000  C
  H238     1.0000 0.53640  0.84410  0.21940  Biso   1.000  H
  C237     1.0000 0.61830  0.86140  0.27240  Biso   1.000  C
  C238     1.0000 0.64000  0.84030  0.31680  Biso   1.000  C
  H239     1.0000 0.68450  0.85930  0.33350  Biso   1.000  H
  C239     1.0000 0.59320  0.79100  0.33440  Biso   1.000  C
  H240     1.0000 0.60680  0.77630  0.36350  Biso   1.000  H
  C240     1.0000 0.66710  0.91550  0.25020  Biso   1.000  C
  C241     1.0000 0.16380  0.87940  0.81430  Biso   1.000  C
  C242     1.0000 0.17820  0.85370  0.86160  Biso   1.000  C
  C243     1.0000 0.19030  0.79150  0.86960  Biso   1.000  C
  H241     1.0000 0.18960  0.76360  0.84520  Biso   1.000  H
  C244     1.0000 0.20340  0.76930  0.91250  Biso   1.000  C
  H242     1.0000 0.21110  0.72660  0.91740  Biso   1.000  H
  C245     1.0000 0.19320  0.87050  0.94080  Biso   1.000  C
  H243     1.0000 0.19420  0.89750  0.96570  Biso   1.000  H
  C246     1.0000 0.17960  0.89500  0.89880  Biso   1.000  C
  H244     1.0000 0.17140  0.93790  0.89470  Biso   1.000  H
  C247     1.0000 0.22120  0.78520  0.99640  Biso   1.000  C
  H245     1.0000 0.25410  0.81580  0.01390  Biso   1.000  H
  H246     1.0000 0.25520  0.74680  0.99500  Biso   1.000  H
  C248     1.0000 0.13390  0.77240  0.01980  Biso   1.000  C
  H247     1.0000 0.10000  0.74280  0.00190  Biso   1.000  H
  H248     1.0000 0.10060  0.81100  0.02230  Biso   1.000  H
  C249     1.0000 0.15150  0.74610  0.06650  Biso   1.000  C
  H249     1.0000 0.18050  0.77780  0.08480  Biso   1.000  H
  H250     1.0000 0.19130  0.71080  0.06360  Biso   1.000  H
  C250     1.0000 0.07070  0.72490  0.09100  Biso   1.000  C
  H251     1.0000 0.03590  0.69930  0.07040  Biso   1.000  H
  H252     1.0000 0.08770  0.69890  0.11670  Biso   1.000  H
  C251     1.0000 0.03290  0.80450  0.14840  Biso   1.000  C
  H253     1.0000 0.08070  0.79040  0.16520  Biso   1.000  H
  C252     1.0000 0.98240  0.85150  0.16540  Biso   1.000  C
  H254     1.0000 0.99570  0.87010  0.19330  Biso   1.000  H
  C253     1.0000 0.90980  0.87120  0.13980  Biso   1.000  C
  C254     1.0000 0.89550  0.84470  0.09800  Biso   1.000  C
  H255     1.0000 0.84940  0.85910  0.08020  Biso   1.000  H
  C255     1.0000 0.94680  0.79790  0.08190  Biso   1.000  C
  H256     1.0000 0.93560  0.77960  0.05370  Biso   1.000  H
  C256     1.0000 0.84860  0.92040  0.16020  Biso   1.000  C
  O49      1.0000 0.35930  0.71230  0.73410  Biso   1.000  O
  O50      1.0000 0.23460  0.72610  0.77261  Biso   1.000  O
  O51      1.0000 0.44070  0.33230  0.19062  Biso   1.000  O
  O52      1.0000 0.52900  0.27540  0.14630  Biso   1.000  O
  O53      1.0000 0.28070  0.72650  0.63676  Biso   1.000  O
  O54      1.0000 0.16050  0.70990  0.67780  Biso   1.000  O
  O55      1.0000 0.95740  0.28120  0.26495  Biso   1.000  O
  O56      1.0000 0.04860  0.33890  0.22145  Biso   1.000  O
  O57      1.0000 0.31560  0.93990  0.60388  Biso   1.000  O
  O58      1.0000 0.37850  0.85230  0.62956  Biso   1.000  O
  O59      1.0000 0.64680  0.92670  0.20940  Biso   1.000  O
  O60      1.0000 0.72040  0.94440  0.27540  Biso   1.000  O
  O61      1.0000 0.13070  0.84440  0.78562  Biso   1.000  O
  O62      1.0000 0.18710  0.93560  0.80780  Biso   1.000  O
  O63      1.0000 0.78940  0.94190  0.13509  Biso   1.000  O
  O64      1.0000 0.86300  0.93450  0.20140  Biso   1.000  O
  N34      1.0000 0.25410  0.83460  0.70560  Biso   1.000  N
  N35      1.0000 0.25300  0.88934  0.70620  Biso   1.000  N
  N36      1.0000 0.25190  0.94460  0.70720  Biso   1.000  N
  N37      1.0000 0.36850  0.55060  0.85510  Biso   1.000  N
  N38      1.0000 0.46700  0.45680  0.04910  Biso   1.000  N
  N39      1.0000 0.11020  0.57800  0.54340  Biso   1.000  N
  N40      1.0000 0.07890  0.43170  0.37570  Biso   1.000  N
  N41      1.0000 0.32730  0.81290  0.46390  Biso   1.000  N
  N42      1.0000 0.52950  0.76370  0.31120  Biso   1.000  N
  N43      1.0000 0.20530  0.80990  0.94810  Biso   1.000  N
  N44      1.0000 0.01530  0.77820  0.10810  Biso   1.000  N
