data_VICDOC_clean
_audit_creation_date              2014-07-02
_audit_creation_method            'Materials Studio'
_symmetry_space_group_name_H-M    'P1'
_symmetry_Int_Tables_number       1
_symmetry_cell_setting            triclinic
loop_
_symmetry_equiv_pos_as_xyz
  x,y,z
_cell_length_a                    7.1046
_cell_length_b                    13.7152
_cell_length_c                    22.9510
_cell_angle_alpha                 87.7027
_cell_angle_beta                  81.0965
_cell_angle_gamma                 74.9891
loop_
_atom_site_label
_atom_site_type_symbol
_atom_site_fract_x
_atom_site_fract_y
_atom_site_fract_z
_atom_site_U_iso_or_equiv
_atom_site_adp_type
_atom_site_occupancy
Fe1    Fe    0.63004   0.25000   0.23992   0.01267  Uiso   1.00
Fe2    Fe    0.11996   0.25000   0.26008   0.01267  Uiso   1.00
Fe3    Fe    0.36996   0.75000   0.76008   0.01267  Uiso   1.00
Fe4    Fe    0.88004   0.75000   0.73992   0.01267  Uiso   1.00
H1     H     0.24528   0.99322   0.07678   0.01267  Uiso   1.00
H2     H     0.17880   0.11676   0.13958   0.01267  Uiso   1.00
H3     H     0.73547   0.12438   0.10274   0.01267  Uiso   1.00
H4     H     0.72362   0.09424   0.01112   0.01267  Uiso   1.00
H5     H     0.79560   0.83832   0.25000   0.01267  Uiso   1.00
H6     H     0.72583   0.99350   0.25000   0.01267  Uiso   1.00
H7     H     0.17794   0.50678   0.07678   0.01267  Uiso   1.00
H8     H     0.18162   0.38324   0.13958   0.01267  Uiso   1.00
H9     H     0.66179   0.37562   0.10274   0.01267  Uiso   1.00
H10    H     0.76526   0.40576   0.01112   0.01267  Uiso   1.00
H11    H     0.45440   0.66168   0.25000   0.01267  Uiso   1.00
H12    H     0.52417   0.50650   0.25000   0.01267  Uiso   1.00
H13    H     0.76150   0.99322   0.42322   0.01267  Uiso   1.00
H14    H     0.70444   0.11676   0.36042   0.01267  Uiso   1.00
H15    H     0.14015   0.12438   0.39726   0.01267  Uiso   1.00
H16    H     0.18214   0.09424   0.48888   0.01267  Uiso   1.00
H17    H     0.36608   0.83832   0.25000   0.01267  Uiso   1.00
H18    H     0.28067   0.99350   0.25000   0.01267  Uiso   1.00
H19    H     0.31528   0.50678   0.42322   0.01267  Uiso   1.00
H20    H     0.43514   0.38324   0.36042   0.01267  Uiso   1.00
H21    H     0.96259   0.37562   0.39726   0.01267  Uiso   1.00
H22    H     0.82898   0.40576   0.48888   0.01267  Uiso   1.00
H23    H     0.88392   0.66168   0.25000   0.01267  Uiso   1.00
H24    H     0.96933   0.50650   0.25000   0.01267  Uiso   1.00
H25    H     0.75472   0.00678   0.92322   0.01267  Uiso   1.00
H26    H     0.82120   0.88324   0.86042   0.01267  Uiso   1.00
H27    H     0.26453   0.87562   0.89726   0.01267  Uiso   1.00
H28    H     0.27638   0.90576   0.98888   0.01267  Uiso   1.00
H29    H     0.20440   0.16168   0.75000   0.01267  Uiso   1.00
H30    H     0.27417   0.00650   0.75000   0.01267  Uiso   1.00
H31    H     0.82206   0.49322   0.92322   0.01267  Uiso   1.00
H32    H     0.81838   0.61676   0.86042   0.01267  Uiso   1.00
H33    H     0.33821   0.62438   0.89726   0.01267  Uiso   1.00
H34    H     0.23474   0.59424   0.98888   0.01267  Uiso   1.00
H35    H     0.54560   0.33832   0.75000   0.01267  Uiso   1.00
H36    H     0.47583   0.49350   0.75000   0.01267  Uiso   1.00
H37    H     0.23850   0.00678   0.57678   0.01267  Uiso   1.00
H38    H     0.29556   0.88324   0.63958   0.01267  Uiso   1.00
H39    H     0.85985   0.87562   0.60274   0.01267  Uiso   1.00
H40    H     0.81786   0.90576   0.51112   0.01267  Uiso   1.00
H41    H     0.63392   0.16168   0.75000   0.01267  Uiso   1.00
H42    H     0.71933   0.00650   0.75000   0.01267  Uiso   1.00
H43    H     0.68472   0.49322   0.57678   0.01267  Uiso   1.00
H44    H     0.56486   0.61676   0.63958   0.01267  Uiso   1.00
H45    H     0.03741   0.62438   0.60274   0.01267  Uiso   1.00
H46    H     0.17102   0.59424   0.51112   0.01267  Uiso   1.00
H47    H     0.11608   0.33832   0.75000   0.01267  Uiso   1.00
H48    H     0.03067   0.49350   0.75000   0.01267  Uiso   1.00
C1     C     0.34869   0.99598   0.04560   0.01267  Uiso   1.00
C2     C     0.48153   0.05196   0.05220   0.01267  Uiso   1.00
C3     C     0.46226   0.10614   0.10668   0.01267  Uiso   1.00
C4     C     0.29261   0.13450   0.14788   0.01267  Uiso   1.00
C5     C     0.61021   0.13886   0.12684   0.01267  Uiso   1.00
C6     C     0.63284   0.05598   0.00660   0.01267  Uiso   1.00
C7     C     0.92933   0.80246   0.25000   0.01267  Uiso   1.00
C8     C     0.82869   0.02606   0.25000   0.01267  Uiso   1.00
C9     C     0.10571   0.50402   0.04560   0.01267  Uiso   1.00
C10    C     0.96627   0.44804   0.05220   0.01267  Uiso   1.00
C11    C     0.93106   0.39386   0.10668   0.01267  Uiso   1.00
C12    C     0.05951   0.36550   0.14788   0.01267  Uiso   1.00
C13    C     0.76295   0.36114   0.12684   0.01267  Uiso   1.00
C14    C     0.86056   0.44402   0.00660   0.01267  Uiso   1.00
C15    C     0.32067   0.69754   0.25000   0.01267  Uiso   1.00
C16    C     0.42131   0.47394   0.25000   0.01267  Uiso   1.00
C17    C     0.65533   0.99598   0.45440   0.01267  Uiso   1.00
C18    C     0.46651   0.05196   0.44780   0.01267  Uiso   1.00
C19    C     0.43160   0.10614   0.39332   0.01267  Uiso   1.00
C20    C     0.57289   0.13450   0.35212   0.01267  Uiso   1.00
C21    C     0.25093   0.13886   0.37316   0.01267  Uiso   1.00
C22    C     0.31118   0.05598   0.49340   0.01267  Uiso   1.00
C23    C     0.26821   0.80246   0.25000   0.01267  Uiso   1.00
C24    C     0.14525   0.02606   0.25000   0.01267  Uiso   1.00
C25    C     0.39027   0.50402   0.45440   0.01267  Uiso   1.00
C26    C     0.58569   0.44804   0.44780   0.01267  Uiso   1.00
C27    C     0.67508   0.39386   0.39332   0.01267  Uiso   1.00
C28    C     0.57499   0.36550   0.35212   0.01267  Uiso   1.00
C29    C     0.87591   0.36114   0.37316   0.01267  Uiso   1.00
C30    C     0.69542   0.44402   0.49340   0.01267  Uiso   1.00
C31    C     0.98179   0.69754   0.25000   0.01267  Uiso   1.00
C32    C     0.10475   0.47394   0.25000   0.01267  Uiso   1.00
C33    C     0.65131   0.00402   0.95440   0.01267  Uiso   1.00
C34    C     0.51847   0.94804   0.94780   0.01267  Uiso   1.00
C35    C     0.53774   0.89386   0.89332   0.01267  Uiso   1.00
C36    C     0.70739   0.86550   0.85212   0.01267  Uiso   1.00
C37    C     0.38979   0.86114   0.87316   0.01267  Uiso   1.00
C38    C     0.36716   0.94402   0.99340   0.01267  Uiso   1.00
C39    C     0.07067   0.19754   0.75000   0.01267  Uiso   1.00
C40    C     0.17131   0.97394   0.75000   0.01267  Uiso   1.00
C41    C     0.89429   0.49598   0.95440   0.01267  Uiso   1.00
C42    C     0.03373   0.55196   0.94780   0.01267  Uiso   1.00
C43    C     0.06894   0.60614   0.89332   0.01267  Uiso   1.00
C44    C     0.94049   0.63450   0.85212   0.01267  Uiso   1.00
C45    C     0.23705   0.63886   0.87316   0.01267  Uiso   1.00
C46    C     0.13944   0.55598   0.99340   0.01267  Uiso   1.00
C47    C     0.67933   0.30246   0.75000   0.01267  Uiso   1.00
C48    C     0.57869   0.52606   0.75000   0.01267  Uiso   1.00
C49    C     0.34467   0.00402   0.54560   0.01267  Uiso   1.00
C50    C     0.53349   0.94804   0.55220   0.01267  Uiso   1.00
C51    C     0.56840   0.89386   0.60668   0.01267  Uiso   1.00
C52    C     0.42711   0.86550   0.64788   0.01267  Uiso   1.00
C53    C     0.74907   0.86114   0.62684   0.01267  Uiso   1.00
C54    C     0.68882   0.94402   0.50660   0.01267  Uiso   1.00
C55    C     0.73179   0.19754   0.75000   0.01267  Uiso   1.00
C56    C     0.85475   0.97394   0.75000   0.01267  Uiso   1.00
C57    C     0.60973   0.49598   0.54560   0.01267  Uiso   1.00
C58    C     0.41431   0.55196   0.55220   0.01267  Uiso   1.00
C59    C     0.32492   0.60614   0.60668   0.01267  Uiso   1.00
C60    C     0.42501   0.63450   0.64788   0.01267  Uiso   1.00
C61    C     0.12409   0.63886   0.62684   0.01267  Uiso   1.00
C62    C     0.30458   0.55598   0.50660   0.01267  Uiso   1.00
C63    C     0.01821   0.30246   0.75000   0.01267  Uiso   1.00
C64    C     0.89525   0.52606   0.75000   0.01267  Uiso   1.00
C65    C     0.07254   0.85492   0.25000   0.01267  Uiso   1.00
C66    C     0.01781   0.96438   0.25000   0.01267  Uiso   1.00
C67    C     0.17746   0.64508   0.25000   0.01267  Uiso   1.00
C68    C     0.23219   0.53562   0.25000   0.01267  Uiso   1.00
C69    C     0.92746   0.14508   0.75000   0.01267  Uiso   1.00
C70    C     0.98219   0.03562   0.75000   0.01267  Uiso   1.00
C71    C     0.82254   0.35492   0.75000   0.01267  Uiso   1.00
C72    C     0.76781   0.46438   0.75000   0.01267  Uiso   1.00
N1     N     0.33569   0.18476   0.19352   0.01267  Uiso   1.00
N2     N     0.53198   0.18744   0.18052   0.01267  Uiso   1.00
N3     N     0.83925   0.12586   0.25000   0.01267  Uiso   1.00
N4     N     0.97079   0.31524   0.19352   0.01267  Uiso   1.00
N5     N     0.78750   0.31256   0.18052   0.01267  Uiso   1.00
N6     N     0.41075   0.37414   0.25000   0.01267  Uiso   1.00
N7     N     0.47955   0.18476   0.30648   0.01267  Uiso   1.00
N8     N     0.28058   0.18744   0.31948   0.01267  Uiso   1.00
N9     N     0.03489   0.12586   0.25000   0.01267  Uiso   1.00
N10    N     0.71397   0.31524   0.30648   0.01267  Uiso   1.00
N11    N     0.89994   0.31256   0.31948   0.01267  Uiso   1.00
N12    N     0.21511   0.37414   0.25000   0.01267  Uiso   1.00
N13    N     0.66431   0.81524   0.80648   0.01267  Uiso   1.00
N14    N     0.46802   0.81256   0.81948   0.01267  Uiso   1.00
N15    N     0.16075   0.87414   0.75000   0.01267  Uiso   1.00
N16    N     0.02921   0.68476   0.80648   0.01267  Uiso   1.00
N17    N     0.21250   0.68744   0.81948   0.01267  Uiso   1.00
N18    N     0.58925   0.62586   0.75000   0.01267  Uiso   1.00
N19    N     0.52045   0.81524   0.69352   0.01267  Uiso   1.00
N20    N     0.71942   0.81256   0.68052   0.01267  Uiso   1.00
N21    N     0.96511   0.87414   0.75000   0.01267  Uiso   1.00
N22    N     0.28603   0.68476   0.69352   0.01267  Uiso   1.00
N23    N     0.10006   0.68744   0.68052   0.01267  Uiso   1.00
N24    N     0.78489   0.62586   0.75000   0.01267  Uiso   1.00
