data_image0
_cell_length_a       9.797
_cell_length_b       14.1459
_cell_length_c       15.782
_cell_angle_alpha    106.273
_cell_angle_beta     100.855
_cell_angle_gamma    105.968

_symmetry_space_group_name_H-M    "P 1"
_symmetry_int_tables_number       1

loop_
  _symmetry_equiv_pos_as_xyz
  'x, y, z'

loop_
  _atom_site_label
  _atom_site_occupancy
  _atom_site_fract_x
  _atom_site_fract_y
  _atom_site_fract_z
  _atom_site_thermal_displace_type
  _atom_site_B_iso_or_equiv
  _atom_site_type_symbol
  Cu1      1.0000 0.80477  0.89383  0.92725  Biso   1.000  Cu
  S1       1.0000 0.97812  0.48261  0.70475  Biso   1.000  S
  O1       1.0000 0.94370  0.85018  0.86639  Biso   1.000  O
  O2       1.0000 0.16640  0.95440  0.96457  Biso   1.000  O
  O3       1.0000 0.59440  0.84864  0.92721  Biso   1.000  O
  O4       1.0000 0.56810  0.70540  0.81173  Biso   1.000  O
  O5       1.0000 0.87170  0.45680  0.75497  Biso   1.000  O
  O6       1.0000 0.06490  0.41491  0.69197  Biso   1.000  O
  O7       1.0000 0.90690  0.49310  0.61876  Biso   1.000  O
  N1       1.0000 0.74550  0.01320  0.71910  Biso   1.000  N
  N2       1.0000 0.66350  0.05710  0.76760  Biso   1.000  N
  N3       1.0000 0.75850  0.96100  0.83620  Biso   1.000  N
  N4       1.0000 0.94850  0.75530  0.10750  Biso   1.000  N
  N5       1.0000 0.90060  0.82180  0.16430  Biso   1.000  N
  N6       1.0000 0.86210  0.83690  0.02513  Biso   1.000  N
  C1       1.0000 0.62800  0.01710  0.56670  Biso   1.000  C
  C2       1.0000 0.53380  0.91500  0.51470  Biso   1.000  C
  C3       1.0000 0.40440  0.89640  0.44670  Biso   1.000  C
  C4       1.0000 0.77050  0.03500  0.63680  Biso   1.000  C
  H1       1.0000 0.82110  0.98970  0.60790  Biso   1.000  H
  H2       1.0000 0.83590  0.10800  0.65530  Biso   1.000  H
  C5       1.0000 0.56620  0.82230  0.53260  Biso   1.000  C
  H3       1.0000 0.67220  0.84120  0.55790  Biso   1.000  H
  H4       1.0000 0.53110  0.76300  0.47520  Biso   1.000  H
  H5       1.0000 0.51600  0.80350  0.57600  Biso   1.000  H
  C6       1.0000 0.30730  0.78410  0.38810  Biso   1.000  C
  H6       1.0000 0.35720  0.75390  0.34600  Biso   1.000  H
  H7       1.0000 0.21390  0.78310  0.35320  Biso   1.000  H
  H8       1.0000 0.28890  0.74330  0.42760  Biso   1.000  H
  C7       1.0000 0.67410  0.02300  0.83710  Biso   1.000  C
  H9       1.0000 0.62750  0.03990  0.88320  Biso   1.000  H
  C8       1.0000 0.80130  0.95750  0.76120  Biso   1.000  C
  H10      1.0000 0.86260  0.92090  0.74070  Biso   1.000  H
  C9       1.0000 0.01050  0.59280  0.06570  Biso   1.000  C
  C10      1.0000 0.13530  0.58640  0.03750  Biso   1.000  C
  C11      1.0000 0.12520  0.49210  0.97220  Biso   1.000  C
  C12      1.0000 0.01990  0.68900  0.14270  Biso   1.000  C
  H11      1.0000 0.97160  0.66660  0.18630  Biso   1.000  H
  H12      1.0000 0.12420  0.73050  0.17590  Biso   1.000  H
  C13      1.0000 0.27850  0.67890  0.07630  Biso   1.000  C
  H13      1.0000 0.25690  0.74350  0.08900  Biso   1.000  H
  H14      1.0000 0.33490  0.67520  0.03190  Biso   1.000  H
  H15      1.0000 0.33570  0.67750  0.13290  Biso   1.000  H
  C14      1.0000 0.26090  0.48220  0.94350  Biso   1.000  C
  H16      1.0000 0.32580  0.47050  0.99100  Biso   1.000  H
  H17      1.0000 0.31310  0.54620  0.93490  Biso   1.000  H
  H18      1.0000 0.23090  0.42340  0.88610  Biso   1.000  H
  C15      1.0000 0.84900  0.86830  0.11110  Biso   1.000  C
  H19      1.0000 0.80640  0.91920  0.13130  Biso   1.000  H
  C16      1.0000 0.92610  0.76580  0.02580  Biso   1.000  C
  H20      1.0000 0.95170  0.72830  0.97570  Biso   1.000  H
  C17      1.0000 0.14250  0.78990  0.86040  Biso   1.000  C
  C18      1.0000 0.29550  0.81280  0.87930  Biso   1.000  C
  H21      1.0000 0.36060  0.88090  0.91660  Biso   1.000  H
  C19      1.0000 0.35170  0.73570  0.84340  Biso   1.000  C
  C20      1.0000 0.25590  0.63420  0.78970  Biso   1.000  C
  H22      1.0000 0.29390  0.58180  0.76510  Biso   1.000  H
  C21      1.0000 0.10390  0.61090  0.77260  Biso   1.000  C
  C22      1.0000 0.04780  0.68880  0.80640  Biso   1.000  C
  H23      1.0000 0.94460  0.67310  0.79250  Biso   1.000  H
  C23      1.0000 0.08210  0.87380  0.90130  Biso   1.000  C
  C24      1.0000 0.51750  0.76430  0.86170  Biso   1.000  C
  Cu2      1.0000 0.19523  0.10617  0.07275  Biso   1.000  Cu
  S2       1.0000 0.02188  0.51739  0.29525  Biso   1.000  S
  O8       1.0000 0.05630  0.14982  0.13361  Biso   1.000  O
  O9       1.0000 0.83360  0.04560  0.03543  Biso   1.000  O
  O10      1.0000 0.40560  0.15136  0.07279  Biso   1.000  O
  O11      1.0000 0.43190  0.29460  0.18827  Biso   1.000  O
  O12      1.0000 0.12830  0.54320  0.24503  Biso   1.000  O
  O13      1.0000 0.93510  0.58509  0.30803  Biso   1.000  O
  O14      1.0000 0.09310  0.50690  0.38124  Biso   1.000  O
  N7       1.0000 0.25450  0.98680  0.28090  Biso   1.000  N
  N8       1.0000 0.33650  0.94290  0.23240  Biso   1.000  N
  N9       1.0000 0.24150  0.03900  0.16380  Biso   1.000  N
  N10      1.0000 0.05150  0.24470  0.89250  Biso   1.000  N
  N11      1.0000 0.09940  0.17820  0.83570  Biso   1.000  N
  N12      1.0000 0.13790  0.16310  0.97487  Biso   1.000  N
  C25      1.0000 0.37200  0.98290  0.43330  Biso   1.000  C
  C26      1.0000 0.46620  0.08500  0.48530  Biso   1.000  C
  C27      1.0000 0.59560  0.10360  0.55330  Biso   1.000  C
  C28      1.0000 0.22950  0.96500  0.36320  Biso   1.000  C
  H24      1.0000 0.17890  0.01030  0.39210  Biso   1.000  H
  H25      1.0000 0.16410  0.89200  0.34470  Biso   1.000  H
  C29      1.0000 0.43380  0.17770  0.46740  Biso   1.000  C
  H26      1.0000 0.32780  0.15880  0.44210  Biso   1.000  H
  H27      1.0000 0.46890  0.23700  0.52480  Biso   1.000  H
  H28      1.0000 0.48400  0.19650  0.42400  Biso   1.000  H
  C30      1.0000 0.69270  0.21590  0.61190  Biso   1.000  C
  H29      1.0000 0.64280  0.24610  0.65400  Biso   1.000  H
  H30      1.0000 0.78610  0.21690  0.64680  Biso   1.000  H
  H31      1.0000 0.71110  0.25670  0.57240  Biso   1.000  H
  C31      1.0000 0.32590  0.97700  0.16290  Biso   1.000  C
  H32      1.0000 0.37250  0.96010  0.11680  Biso   1.000  H
  C32      1.0000 0.19870  0.04250  0.23880  Biso   1.000  C
  H33      1.0000 0.13740  0.07910  0.25930  Biso   1.000  H
  C33      1.0000 0.98950  0.40720  0.93430  Biso   1.000  C
  C34      1.0000 0.86470  0.41360  0.96250  Biso   1.000  C
  C35      1.0000 0.87480  0.50790  0.02780  Biso   1.000  C
  C36      1.0000 0.98010  0.31100  0.85730  Biso   1.000  C
  H34      1.0000 0.02840  0.33340  0.81370  Biso   1.000  H
  H35      1.0000 0.87580  0.26950  0.82410  Biso   1.000  H
  C37      1.0000 0.72150  0.32110  0.92370  Biso   1.000  C
  H36      1.0000 0.74310  0.25650  0.91100  Biso   1.000  H
  H37      1.0000 0.66510  0.32480  0.96810  Biso   1.000  H
  H38      1.0000 0.66430  0.32250  0.86710  Biso   1.000  H
  C38      1.0000 0.73910  0.51780  0.05650  Biso   1.000  C
  H39      1.0000 0.67420  0.52950  0.00900  Biso   1.000  H
  H40      1.0000 0.68690  0.45380  0.06510  Biso   1.000  H
  H41      1.0000 0.76910  0.57660  0.11390  Biso   1.000  H
  C39      1.0000 0.15100  0.13170  0.88890  Biso   1.000  C
  H42      1.0000 0.19360  0.08080  0.86870  Biso   1.000  H
  C40      1.0000 0.07390  0.23420  0.97420  Biso   1.000  C
  H43      1.0000 0.04830  0.27170  0.02430  Biso   1.000  H
  C41      1.0000 0.85750  0.21010  0.13960  Biso   1.000  C
  C42      1.0000 0.70450  0.18720  0.12070  Biso   1.000  C
  H44      1.0000 0.63940  0.11910  0.08340  Biso   1.000  H
  C43      1.0000 0.64830  0.26430  0.15660  Biso   1.000  C
  C44      1.0000 0.74410  0.36580  0.21030  Biso   1.000  C
  H45      1.0000 0.70610  0.41820  0.23490  Biso   1.000  H
  C45      1.0000 0.89610  0.38910  0.22740  Biso   1.000  C
  C46      1.0000 0.95220  0.31120  0.19360  Biso   1.000  C
  H46      1.0000 0.05540  0.32690  0.20750  Biso   1.000  H
  C47      1.0000 0.91790  0.12620  0.09870  Biso   1.000  C
  C48      1.0000 0.48250  0.23570  0.13830  Biso   1.000  C
