data_VIDXOX_clean
_audit_creation_date              2014-07-02
_audit_creation_method            'Materials Studio'
_symmetry_space_group_name_H-M    'P1'
_symmetry_Int_Tables_number       1
_symmetry_cell_setting            triclinic
loop_
_symmetry_equiv_pos_as_xyz
  x,y,z
_cell_length_a                    10.4135
_cell_length_b                    10.5541
_cell_length_c                    14.0372
_cell_angle_alpha                 99.5950
_cell_angle_beta                  99.6200
_cell_angle_gamma                 108.8430
loop_
_atom_site_label
_atom_site_type_symbol
_atom_site_fract_x
_atom_site_fract_y
_atom_site_fract_z
_atom_site_U_iso_or_equiv
_atom_site_adp_type
_atom_site_occupancy
Er1    Er    0.96416   0.46417   0.82145   0.01267  Uiso   1.00
Er2    Er    0.54178   0.06538   0.18199   0.01267  Uiso   1.00
Er3    Er    0.03584   0.53583   0.17855   0.01267  Uiso   1.00
Er4    Er    0.45822   0.93462   0.81801   0.01267  Uiso   1.00
H1     H     0.79210   0.81830   0.92170   0.01267  Uiso   1.00
H2     H     0.30150   0.33450   0.89150   0.01267  Uiso   1.00
H3     H     0.08570   0.73730   0.55130   0.01267  Uiso   1.00
H4     H     0.20790   0.18170   0.07830   0.01267  Uiso   1.00
H5     H     0.69850   0.66550   0.10850   0.01267  Uiso   1.00
H6     H     0.91430   0.26270   0.44870   0.01267  Uiso   1.00
C1     C     0.00170   0.87920   0.94430   0.01267  Uiso   1.00
C2     C     0.12770   0.98800   0.99050   0.01267  Uiso   1.00
C3     C     0.87520   0.89110   0.95320   0.01267  Uiso   1.00
C4     C     0.00090   0.74140   0.89440   0.01267  Uiso   1.00
C5     C     0.26500   0.98230   0.97300   0.01267  Uiso   1.00
C6     C     0.48810   0.60180   0.07190   0.01267  Uiso   1.00
C7     C     0.36840   0.50160   0.00680   0.01267  Uiso   1.00
C8     C     0.38120   0.40070   0.93510   0.01267  Uiso   1.00
C9     C     0.48490   0.72050   0.14700   0.01267  Uiso   1.00
C10    C     0.22520   0.49860   0.01180   0.01267  Uiso   1.00
C11    C     0.03020   0.41990   0.56510   0.01267  Uiso   1.00
C12    C     0.08290   0.56480   0.59610   0.01267  Uiso   1.00
C13    C     0.05110   0.64170   0.53030   0.01267  Uiso   1.00
C14    C     0.05620   0.32600   0.63030   0.01267  Uiso   1.00
C15    C     0.17690   0.64230   0.69670   0.01267  Uiso   1.00
C16    C     0.99830   0.12080   0.05570   0.01267  Uiso   1.00
C17    C     0.87230   0.01200   0.00950   0.01267  Uiso   1.00
C18    C     0.12480   0.10890   0.04680   0.01267  Uiso   1.00
C19    C     0.99910   0.25860   0.10560   0.01267  Uiso   1.00
C20    C     0.73500   0.01770   0.02700   0.01267  Uiso   1.00
C21    C     0.51190   0.39820   0.92810   0.01267  Uiso   1.00
C22    C     0.63160   0.49840   0.99320   0.01267  Uiso   1.00
C23    C     0.61880   0.59930   0.06490   0.01267  Uiso   1.00
C24    C     0.51510   0.27950   0.85300   0.01267  Uiso   1.00
C25    C     0.77480   0.50140   0.98820   0.01267  Uiso   1.00
C26    C     0.96980   0.58010   0.43490   0.01267  Uiso   1.00
C27    C     0.91710   0.43520   0.40390   0.01267  Uiso   1.00
C28    C     0.94890   0.35830   0.46970   0.01267  Uiso   1.00
C29    C     0.94380   0.67400   0.36970   0.01267  Uiso   1.00
C30    C     0.82310   0.35770   0.30330   0.01267  Uiso   1.00
O1     O     0.36240   0.00690   0.04690   0.01267  Uiso   1.00
O2     O     0.27300   0.95800   0.88360   0.01267  Uiso   1.00
O3     O     0.07620   0.68990   0.94260   0.01267  Uiso   1.00
O4     O     0.91980   0.67510   0.81100   0.01267  Uiso   1.00
O5     O     0.13120   0.44250   0.93230   0.01267  Uiso   1.00
O6     O     0.20680   0.54940   0.09320   0.01267  Uiso   1.00
O7     O     0.47440   0.82170   0.11440   0.01267  Uiso   1.00
O8     O     0.50270   0.71510   0.23630   0.01267  Uiso   1.00
O9     O     0.15430   0.59300   0.77060   0.01267  Uiso   1.00
O10    O     0.27380   0.75230   0.70090   0.01267  Uiso   1.00
O11    O     0.00020   0.31580   0.70110   0.01267  Uiso   1.00
O12    O     0.12470   0.25490   0.60580   0.01267  Uiso   1.00
O13    O     0.63760   0.99310   0.95310   0.01267  Uiso   1.00
O14    O     0.72700   0.04200   0.11640   0.01267  Uiso   1.00
O15    O     0.92380   0.31010   0.05740   0.01267  Uiso   1.00
O16    O     0.08020   0.32490   0.18900   0.01267  Uiso   1.00
O17    O     0.86880   0.55750   0.06770   0.01267  Uiso   1.00
O18    O     0.79320   0.45060   0.90680   0.01267  Uiso   1.00
O19    O     0.52560   0.17830   0.88560   0.01267  Uiso   1.00
O20    O     0.49730   0.28490   0.76370   0.01267  Uiso   1.00
O21    O     0.84570   0.40700   0.22940   0.01267  Uiso   1.00
O22    O     0.72620   0.24770   0.29910   0.01267  Uiso   1.00
O23    O     0.99980   0.68420   0.29890   0.01267  Uiso   1.00
O24    O     0.87530   0.74510   0.39420   0.01267  Uiso   1.00
