data_VIFBUJ_clean
_audit_creation_date              2014-07-02
_audit_creation_method            'Materials Studio'
_symmetry_space_group_name_H-M    'P1'
_symmetry_Int_Tables_number       1
_symmetry_cell_setting            triclinic
loop_
_symmetry_equiv_pos_as_xyz
  x,y,z
_cell_length_a                    11.2874
_cell_length_b                    11.8917
_cell_length_c                    17.5352
_cell_angle_alpha                 90.0000
_cell_angle_beta                  90.0000
_cell_angle_gamma                 106.7230
loop_
_atom_site_label
_atom_site_type_symbol
_atom_site_fract_x
_atom_site_fract_y
_atom_site_fract_z
_atom_site_U_iso_or_equiv
_atom_site_adp_type
_atom_site_occupancy
Tm1    Tm    0.76145   0.64343   0.00175   0.01267  Uiso   1.00
Tm2    Tm    0.20569   0.83216   0.98720   0.01267  Uiso   1.00
Tm3    Tm    0.23855   0.35657   0.50175   0.01267  Uiso   1.00
Tm4    Tm    0.79431   0.16784   0.48720   0.01267  Uiso   1.00
Tm5    Tm    0.23855   0.35657   0.99825   0.01267  Uiso   1.00
Tm6    Tm    0.79431   0.16784   0.01280   0.01267  Uiso   1.00
Tm7    Tm    0.76145   0.64343   0.49825   0.01267  Uiso   1.00
Tm8    Tm    0.20569   0.83216   0.51280   0.01267  Uiso   1.00
H1     H     0.05430   0.32200   0.75000   0.01267  Uiso   1.00
H2     H     0.61430   0.81360   0.75000   0.01267  Uiso   1.00
H3     H     0.99740   0.80250   0.75000   0.01267  Uiso   1.00
H4     H     0.76610   0.53060   0.75000   0.01267  Uiso   1.00
H5     H     0.35800   0.43080   0.75000   0.01267  Uiso   1.00
H6     H     0.94570   0.67800   0.25000   0.01267  Uiso   1.00
H7     H     0.38570   0.18640   0.25000   0.01267  Uiso   1.00
H8     H     0.00260   0.19750   0.25000   0.01267  Uiso   1.00
H9     H     0.23390   0.46940   0.25000   0.01267  Uiso   1.00
H10    H     0.64200   0.56920   0.25000   0.01267  Uiso   1.00
C1     C     0.95450   0.39460   0.81910   0.01267  Uiso   1.00
C2     C     0.86700   0.45810   0.81960   0.01267  Uiso   1.00
C3     C     0.00690   0.35630   0.89120   0.01267  Uiso   1.00
C4     C     0.92490   0.90060   0.81870   0.01267  Uiso   1.00
C5     C     0.85840   0.98330   0.81900   0.01267  Uiso   1.00
C6     C     0.82460   0.50520   0.89000   0.01267  Uiso   1.00
C7     C     0.44620   0.56480   0.81980   0.01267  Uiso   1.00
C8     C     0.57100   0.74750   0.89250   0.01267  Uiso   1.00
C9     C     0.96680   0.84940   0.88860   0.01267  Uiso   1.00
C10    C     0.52420   0.68020   0.81950   0.01267  Uiso   1.00
C11    C     0.83040   0.03900   0.88980   0.01267  Uiso   1.00
C12    C     0.39070   0.49890   0.88960   0.01267  Uiso   1.00
C13    C     0.04550   0.60540   0.31910   0.01267  Uiso   1.00
C14    C     0.13300   0.54190   0.31960   0.01267  Uiso   1.00
C15    C     0.99310   0.64370   0.39120   0.01267  Uiso   1.00
C16    C     0.07510   0.09940   0.31870   0.01267  Uiso   1.00
C17    C     0.14160   0.01670   0.31900   0.01267  Uiso   1.00
C18    C     0.17540   0.49480   0.39000   0.01267  Uiso   1.00
C19    C     0.55380   0.43520   0.31980   0.01267  Uiso   1.00
C20    C     0.42900   0.25250   0.39250   0.01267  Uiso   1.00
C21    C     0.03320   0.15060   0.38860   0.01267  Uiso   1.00
C22    C     0.47580   0.31980   0.31950   0.01267  Uiso   1.00
C23    C     0.16960   0.96100   0.38980   0.01267  Uiso   1.00
C24    C     0.60930   0.50110   0.38960   0.01267  Uiso   1.00
C25    C     0.04550   0.60540   0.18090   0.01267  Uiso   1.00
C26    C     0.13300   0.54190   0.18040   0.01267  Uiso   1.00
C27    C     0.99310   0.64370   0.10880   0.01267  Uiso   1.00
C28    C     0.07510   0.09940   0.18130   0.01267  Uiso   1.00
C29    C     0.14160   0.01670   0.18100   0.01267  Uiso   1.00
C30    C     0.17540   0.49480   0.11000   0.01267  Uiso   1.00
C31    C     0.55380   0.43520   0.18020   0.01267  Uiso   1.00
C32    C     0.42900   0.25250   0.10750   0.01267  Uiso   1.00
C33    C     0.03320   0.15060   0.11140   0.01267  Uiso   1.00
C34    C     0.47580   0.31980   0.18050   0.01267  Uiso   1.00
C35    C     0.16960   0.96100   0.11020   0.01267  Uiso   1.00
C36    C     0.60930   0.50110   0.11040   0.01267  Uiso   1.00
C37    C     0.95450   0.39460   0.68090   0.01267  Uiso   1.00
C38    C     0.86700   0.45810   0.68040   0.01267  Uiso   1.00
C39    C     0.00690   0.35630   0.60880   0.01267  Uiso   1.00
C40    C     0.92490   0.90060   0.68130   0.01267  Uiso   1.00
C41    C     0.85840   0.98330   0.68100   0.01267  Uiso   1.00
C42    C     0.82460   0.50520   0.61000   0.01267  Uiso   1.00
C43    C     0.44620   0.56480   0.68020   0.01267  Uiso   1.00
C44    C     0.57100   0.74750   0.60750   0.01267  Uiso   1.00
C45    C     0.96680   0.84940   0.61140   0.01267  Uiso   1.00
C46    C     0.52420   0.68020   0.68050   0.01267  Uiso   1.00
C47    C     0.83040   0.03900   0.61020   0.01267  Uiso   1.00
C48    C     0.39070   0.49890   0.61040   0.01267  Uiso   1.00
C49    C     0.99650   0.36410   0.75000   0.01267  Uiso   1.00
C50    C     0.56260   0.73700   0.75000   0.01267  Uiso   1.00
C51    C     0.95540   0.85930   0.75000   0.01267  Uiso   1.00
C52    C     0.82420   0.48880   0.75000   0.01267  Uiso   1.00
C53    C     0.82500   0.02290   0.75000   0.01267  Uiso   1.00
C54    C     0.40870   0.50790   0.75000   0.01267  Uiso   1.00
C55    C     0.00350   0.63590   0.25000   0.01267  Uiso   1.00
C56    C     0.43740   0.26300   0.25000   0.01267  Uiso   1.00
C57    C     0.04460   0.14070   0.25000   0.01267  Uiso   1.00
C58    C     0.17580   0.51120   0.25000   0.01267  Uiso   1.00
C59    C     0.17500   0.97710   0.25000   0.01267  Uiso   1.00
C60    C     0.59130   0.49210   0.25000   0.01267  Uiso   1.00
O1     O     0.37980   0.39110   0.89460   0.01267  Uiso   1.00
O2     O     0.88950   0.03590   0.95000   0.01267  Uiso   1.00
O3     O     0.71990   0.52460   0.88990   0.01267  Uiso   1.00
O4     O     0.89300   0.53160   0.94810   0.01267  Uiso   1.00
O5     O     0.34610   0.54790   0.94260   0.01267  Uiso   1.00
O6     O     0.74770   0.09310   0.88780   0.01267  Uiso   1.00
O7     O     0.56950   0.85110   0.89640   0.01267  Uiso   1.00
O8     O     0.88960   0.77480   0.92650   0.01267  Uiso   1.00
O9     O     0.08140   0.87810   0.90000   0.01267  Uiso   1.00
O10    O     0.12130   0.38580   0.89700   0.01267  Uiso   1.00
O11    O     0.60750   0.69340   0.94580   0.01267  Uiso   1.00
O12    O     0.93310   0.29320   0.93820   0.01267  Uiso   1.00
O13    O     0.62020   0.60890   0.39460   0.01267  Uiso   1.00
O14    O     0.11050   0.96410   0.45000   0.01267  Uiso   1.00
O15    O     0.28010   0.47540   0.38990   0.01267  Uiso   1.00
O16    O     0.10700   0.46840   0.44810   0.01267  Uiso   1.00
O17    O     0.65390   0.45210   0.44260   0.01267  Uiso   1.00
O18    O     0.25230   0.90690   0.38780   0.01267  Uiso   1.00
O19    O     0.43050   0.14890   0.39640   0.01267  Uiso   1.00
O20    O     0.11040   0.22520   0.42650   0.01267  Uiso   1.00
O21    O     0.91860   0.12190   0.40000   0.01267  Uiso   1.00
O22    O     0.87870   0.61420   0.39700   0.01267  Uiso   1.00
O23    O     0.39250   0.30660   0.44580   0.01267  Uiso   1.00
O24    O     0.06690   0.70680   0.43820   0.01267  Uiso   1.00
O25    O     0.62020   0.60890   0.10540   0.01267  Uiso   1.00
O26    O     0.11050   0.96410   0.05000   0.01267  Uiso   1.00
O27    O     0.28010   0.47540   0.11010   0.01267  Uiso   1.00
O28    O     0.10700   0.46840   0.05190   0.01267  Uiso   1.00
O29    O     0.65390   0.45210   0.05740   0.01267  Uiso   1.00
O30    O     0.25230   0.90690   0.11220   0.01267  Uiso   1.00
O31    O     0.43050   0.14890   0.10360   0.01267  Uiso   1.00
O32    O     0.11040   0.22520   0.07350   0.01267  Uiso   1.00
O33    O     0.91860   0.12190   0.10000   0.01267  Uiso   1.00
O34    O     0.87870   0.61420   0.10300   0.01267  Uiso   1.00
O35    O     0.39250   0.30660   0.05420   0.01267  Uiso   1.00
O36    O     0.06690   0.70680   0.06180   0.01267  Uiso   1.00
O37    O     0.37980   0.39110   0.60540   0.01267  Uiso   1.00
O38    O     0.88950   0.03590   0.55000   0.01267  Uiso   1.00
O39    O     0.71990   0.52460   0.61010   0.01267  Uiso   1.00
O40    O     0.89300   0.53160   0.55190   0.01267  Uiso   1.00
O41    O     0.34610   0.54790   0.55740   0.01267  Uiso   1.00
O42    O     0.74770   0.09310   0.61220   0.01267  Uiso   1.00
O43    O     0.56950   0.85110   0.60360   0.01267  Uiso   1.00
O44    O     0.88960   0.77480   0.57350   0.01267  Uiso   1.00
O45    O     0.08140   0.87810   0.60000   0.01267  Uiso   1.00
O46    O     0.12130   0.38580   0.60300   0.01267  Uiso   1.00
O47    O     0.60750   0.69340   0.55420   0.01267  Uiso   1.00
O48    O     0.93310   0.29320   0.56180   0.01267  Uiso   1.00
