data_VIGNOQ_clean
_audit_creation_date              2014-07-02
_audit_creation_method            'Materials Studio'
_symmetry_space_group_name_H-M    'P1'
_symmetry_Int_Tables_number       1
_symmetry_cell_setting            triclinic
loop_
_symmetry_equiv_pos_as_xyz
  x,y,z
_cell_length_a                    12.0040
_cell_length_b                    13.9430
_cell_length_c                    22.7460
_cell_angle_alpha                 95.7760
_cell_angle_beta                  105.2060
_cell_angle_gamma                 104.2650
loop_
_atom_site_label
_atom_site_type_symbol
_atom_site_fract_x
_atom_site_fract_y
_atom_site_fract_z
_atom_site_U_iso_or_equiv
_atom_site_adp_type
_atom_site_occupancy
Na1    Na    0.70950   0.30190   0.15680   0.01267  Uiso   1.00
Na2    Na    0.29050   0.69810   0.84320   0.01267  Uiso   1.00
Ag1    Ag    0.51577   0.43971   0.08261   0.01267  Uiso   1.00
Ag2    Ag    0.85482   0.48531   0.14588   0.01267  Uiso   1.00
Ag3    Ag    0.97386   0.65029   0.30352   0.01267  Uiso   1.00
Ag4    Ag    0.39794   0.61872   0.17420   0.01267  Uiso   1.00
Ag5    Ag    0.18636   0.92569   0.55895   0.01267  Uiso   1.00
Ag6    Ag    0.31660   0.32941   0.93402   0.01267  Uiso   1.00
Ag7    Ag    0.15134   0.16354   0.99843   0.01267  Uiso   1.00
Ag8    Ag    0.48423   0.56029   0.91739   0.01267  Uiso   1.00
Ag9    Ag    0.14518   0.51469   0.85412   0.01267  Uiso   1.00
Ag10   Ag    0.02614   0.34971   0.69648   0.01267  Uiso   1.00
Ag11   Ag    0.60206   0.38128   0.82580   0.01267  Uiso   1.00
Ag12   Ag    0.81364   0.07431   0.44105   0.01267  Uiso   1.00
Ag13   Ag    0.68340   0.67059   0.06598   0.01267  Uiso   1.00
Ag14   Ag    0.84866   0.83646   0.00157   0.01267  Uiso   1.00
H1     H     0.21500   0.79290   0.34280   0.01267  Uiso   1.00
H2     H     0.35280   0.87110   0.43260   0.01267  Uiso   1.00
H3     H     0.57270   0.72820   0.39690   0.01267  Uiso   1.00
H4     H     0.43330   0.64680   0.30470   0.01267  Uiso   1.00
H5     H     0.83710   0.59090   0.51750   0.01267  Uiso   1.00
H6     H     0.69860   0.44510   0.50950   0.01267  Uiso   1.00
H7     H     0.93410   0.46870   0.38130   0.01267  Uiso   1.00
H8     H     0.78480   0.32790   0.37040   0.01267  Uiso   1.00
H9     H     0.81690   0.72470   0.36310   0.01267  Uiso   1.00
H10    H     0.84680   0.86870   0.43100   0.01267  Uiso   1.00
H11    H     0.57620   0.82400   0.24140   0.01267  Uiso   1.00
H12    H     0.65820   0.97450   0.30650   0.01267  Uiso   1.00
H13    H     0.75880   0.25200   0.91780   0.01267  Uiso   1.00
H14    H     0.90230   0.16520   0.91970   0.01267  Uiso   1.00
H15    H     0.12970   0.36020   0.05830   0.01267  Uiso   1.00
H16    H     0.99800   0.45290   0.05890   0.01267  Uiso   1.00
H17    H     0.54390   0.02450   0.91180   0.01267  Uiso   1.00
H18    H     0.63550   0.89230   0.91400   0.01267  Uiso   1.00
H19    H     0.74600   0.13310   0.08460   0.01267  Uiso   1.00
H20    H     0.81850   0.00330   0.08920   0.01267  Uiso   1.00
H21    H     0.78500   0.20710   0.65720   0.01267  Uiso   1.00
H22    H     0.64720   0.12890   0.56740   0.01267  Uiso   1.00
H23    H     0.42730   0.27180   0.60310   0.01267  Uiso   1.00
H24    H     0.56670   0.35320   0.69530   0.01267  Uiso   1.00
H25    H     0.16290   0.40910   0.48250   0.01267  Uiso   1.00
H26    H     0.30140   0.55490   0.49050   0.01267  Uiso   1.00
H27    H     0.06590   0.53130   0.61870   0.01267  Uiso   1.00
H28    H     0.21520   0.67210   0.62960   0.01267  Uiso   1.00
H29    H     0.18310   0.27530   0.63690   0.01267  Uiso   1.00
H30    H     0.15320   0.13130   0.56900   0.01267  Uiso   1.00
H31    H     0.42380   0.17600   0.75860   0.01267  Uiso   1.00
H32    H     0.34180   0.02550   0.69350   0.01267  Uiso   1.00
H33    H     0.24120   0.74800   0.08220   0.01267  Uiso   1.00
H34    H     0.09770   0.83480   0.08030   0.01267  Uiso   1.00
H35    H     0.87030   0.63980   0.94170   0.01267  Uiso   1.00
H36    H     0.00200   0.54710   0.94110   0.01267  Uiso   1.00
H37    H     0.45610   0.97550   0.08820   0.01267  Uiso   1.00
H38    H     0.36450   0.10770   0.08600   0.01267  Uiso   1.00
H39    H     0.25400   0.86690   0.91540   0.01267  Uiso   1.00
H40    H     0.18150   0.99670   0.91080   0.01267  Uiso   1.00
C1     C     0.21490   0.65910   0.25750   0.01267  Uiso   1.00
C2     C     0.30480   0.71300   0.31520   0.01267  Uiso   1.00
C3     C     0.28800   0.77760   0.35290   0.01267  Uiso   1.00
C4     C     0.37200   0.82500   0.40720   0.01267  Uiso   1.00
C5     C     0.49900   0.74180   0.38620   0.01267  Uiso   1.00
C6     C     0.41590   0.69270   0.33100   0.01267  Uiso   1.00
C7     C     0.98570   0.64740   0.45110   0.01267  Uiso   1.00
C8     C     0.90000   0.54750   0.44530   0.01267  Uiso   1.00
C9     C     0.82700   0.53650   0.48740   0.01267  Uiso   1.00
C10    C     0.74800   0.45200   0.48370   0.01267  Uiso   1.00
C11    C     0.88460   0.46700   0.40670   0.01267  Uiso   1.00
C12    C     0.79900   0.38080   0.40230   0.01267  Uiso   1.00
C13    C     0.68750   0.67470   0.24550   0.01267  Uiso   1.00
C14    C     0.70630   0.76020   0.29150   0.01267  Uiso   1.00
C15    C     0.78000   0.77350   0.35020   0.01267  Uiso   1.00
C16    C     0.79890   0.86130   0.39040   0.01267  Uiso   1.00
C17    C     0.64100   0.83470   0.27680   0.01267  Uiso   1.00
C18    C     0.68300   0.91930   0.31840   0.01267  Uiso   1.00
C19    C     0.77890   0.42380   0.99010   0.01267  Uiso   1.00
C20    C     0.86480   0.35950   0.98530   0.01267  Uiso   1.00
C21    C     0.83500   0.27630   0.94630   0.01267  Uiso   1.00
C22    C     0.92200   0.22380   0.94840   0.01267  Uiso   1.00
C23    C     0.05450   0.33750   0.02870   0.01267  Uiso   1.00
C24    C     0.97710   0.39440   0.03000   0.01267  Uiso   1.00
C25    C     0.57600   0.17580   0.00300   0.01267  Uiso   1.00
C26    C     0.63700   0.09120   0.99820   0.01267  Uiso   1.00
C27    C     0.60200   0.02150   0.94700   0.01267  Uiso   1.00
C28    C     0.65800   0.94280   0.94840   0.01267  Uiso   1.00
C29    C     0.72100   0.08320   0.04970   0.01267  Uiso   1.00
C30    C     0.76800   0.01000   0.05180   0.01267  Uiso   1.00
C31    C     0.78510   0.34090   0.74250   0.01267  Uiso   1.00
C32    C     0.69520   0.28700   0.68480   0.01267  Uiso   1.00
C33    C     0.71200   0.22240   0.64710   0.01267  Uiso   1.00
C34    C     0.62800   0.17500   0.59280   0.01267  Uiso   1.00
C35    C     0.50100   0.25820   0.61380   0.01267  Uiso   1.00
C36    C     0.58410   0.30730   0.66900   0.01267  Uiso   1.00
C37    C     0.01430   0.35260   0.54890   0.01267  Uiso   1.00
C38    C     0.10000   0.45250   0.55470   0.01267  Uiso   1.00
C39    C     0.17300   0.46350   0.51260   0.01267  Uiso   1.00
C40    C     0.25200   0.54800   0.51630   0.01267  Uiso   1.00
C41    C     0.11540   0.53300   0.59330   0.01267  Uiso   1.00
C42    C     0.20100   0.61920   0.59770   0.01267  Uiso   1.00
C43    C     0.31250   0.32530   0.75450   0.01267  Uiso   1.00
C44    C     0.29370   0.23980   0.70850   0.01267  Uiso   1.00
C45    C     0.22000   0.22650   0.64980   0.01267  Uiso   1.00
C46    C     0.20110   0.13870   0.60960   0.01267  Uiso   1.00
C47    C     0.35900   0.16530   0.72320   0.01267  Uiso   1.00
C48    C     0.31700   0.08070   0.68160   0.01267  Uiso   1.00
C49    C     0.22110   0.57620   0.00990   0.01267  Uiso   1.00
C50    C     0.13520   0.64050   0.01470   0.01267  Uiso   1.00
C51    C     0.16500   0.72370   0.05370   0.01267  Uiso   1.00
C52    C     0.07800   0.77620   0.05160   0.01267  Uiso   1.00
C53    C     0.94550   0.66250   0.97130   0.01267  Uiso   1.00
C54    C     0.02290   0.60560   0.97000   0.01267  Uiso   1.00
C55    C     0.42400   0.82420   0.99700   0.01267  Uiso   1.00
C56    C     0.36300   0.90880   0.00180   0.01267  Uiso   1.00
C57    C     0.39800   0.97850   0.05300   0.01267  Uiso   1.00
C58    C     0.34200   0.05720   0.05160   0.01267  Uiso   1.00
C59    C     0.27900   0.91680   0.95030   0.01267  Uiso   1.00
C60    C     0.23200   0.99000   0.94820   0.01267  Uiso   1.00
N1     N     0.24240   0.61960   0.20670   0.01267  Uiso   1.00
N2     N     0.13370   0.57200   0.16400   0.01267  Uiso   1.00
N3     N     0.04810   0.58300   0.18960   0.01267  Uiso   1.00
N4     N     0.47720   0.81040   0.42630   0.01267  Uiso   1.00
N5     N     0.02590   0.68560   0.40620   0.01267  Uiso   1.00
N6     N     0.10050   0.77650   0.43390   0.01267  Uiso   1.00
N7     N     0.09710   0.79290   0.49110   0.01267  Uiso   1.00
N8     N     0.02220   0.71350   0.50430   0.01267  Uiso   1.00
N9     N     0.73890   0.36920   0.43850   0.01267  Uiso   1.00
N10    N     0.77740   0.63150   0.24280   0.01267  Uiso   1.00
N11    N     0.73400   0.56140   0.19270   0.01267  Uiso   1.00
N12    N     0.62100   0.55950   0.16610   0.01267  Uiso   1.00
N13    N     0.58990   0.63090   0.19760   0.01267  Uiso   1.00
N14    N     0.75530   0.93190   0.37540   0.01267  Uiso   1.00
N15    N     0.78260   0.48140   0.03910   0.01267  Uiso   1.00
N16    N     0.69800   0.52150   0.02150   0.01267  Uiso   1.00
N17    N     0.63860   0.49010   0.96570   0.01267  Uiso   1.00
N18    N     0.68820   0.42270   0.94060   0.01267  Uiso   1.00
N19    N     0.03390   0.25430   0.99000   0.01267  Uiso   1.00
N20    N     0.60080   0.24820   0.05160   0.01267  Uiso   1.00
N21    N     0.52940   0.30270   0.03060   0.01267  Uiso   1.00
N22    N     0.46030   0.26610   0.97420   0.01267  Uiso   1.00
N23    N     0.49200   0.18590   0.95280   0.01267  Uiso   1.00
N24    N     0.74600   0.94180   0.00100   0.01267  Uiso   1.00
N25    N     0.09850   0.63390   0.24590   0.01267  Uiso   1.00
N26    N     0.75760   0.38040   0.79330   0.01267  Uiso   1.00
N27    N     0.86630   0.42800   0.83600   0.01267  Uiso   1.00
N28    N     0.95190   0.41700   0.81040   0.01267  Uiso   1.00
N29    N     0.52280   0.18960   0.57370   0.01267  Uiso   1.00
N30    N     0.97410   0.31440   0.59380   0.01267  Uiso   1.00
N31    N     0.89950   0.22350   0.56610   0.01267  Uiso   1.00
N32    N     0.90290   0.20710   0.50890   0.01267  Uiso   1.00
N33    N     0.97780   0.28650   0.49570   0.01267  Uiso   1.00
N34    N     0.26110   0.63080   0.56150   0.01267  Uiso   1.00
N35    N     0.22260   0.36850   0.75720   0.01267  Uiso   1.00
N36    N     0.26600   0.43860   0.80730   0.01267  Uiso   1.00
N37    N     0.37900   0.44050   0.83390   0.01267  Uiso   1.00
N38    N     0.41010   0.36910   0.80240   0.01267  Uiso   1.00
N39    N     0.24470   0.06810   0.62460   0.01267  Uiso   1.00
N40    N     0.21740   0.51860   0.96090   0.01267  Uiso   1.00
N41    N     0.30200   0.47850   0.97850   0.01267  Uiso   1.00
N42    N     0.36140   0.50990   0.03430   0.01267  Uiso   1.00
N43    N     0.31180   0.57730   0.05940   0.01267  Uiso   1.00
N44    N     0.96610   0.74570   0.01000   0.01267  Uiso   1.00
N45    N     0.39920   0.75180   0.94840   0.01267  Uiso   1.00
N46    N     0.47060   0.69730   0.96940   0.01267  Uiso   1.00
N47    N     0.53970   0.73390   0.02580   0.01267  Uiso   1.00
N48    N     0.50800   0.81410   0.04720   0.01267  Uiso   1.00
N49    N     0.25400   0.05820   0.99900   0.01267  Uiso   1.00
N50    N     0.90150   0.36610   0.75410   0.01267  Uiso   1.00
