data_VIGRIO_clean
_audit_creation_date              2014-07-02
_audit_creation_method            'Materials Studio'
_symmetry_space_group_name_H-M    'P1'
_symmetry_Int_Tables_number       1
_symmetry_cell_setting            triclinic
loop_
_symmetry_equiv_pos_as_xyz
  x,y,z
_cell_length_a                    8.6027
_cell_length_b                    13.2648
_cell_length_c                    14.9420
_cell_angle_alpha                 83.5649
_cell_angle_beta                  73.2695
_cell_angle_gamma                 71.0787
loop_
_atom_site_label
_atom_site_type_symbol
_atom_site_fract_x
_atom_site_fract_y
_atom_site_fract_z
_atom_site_U_iso_or_equiv
_atom_site_adp_type
_atom_site_occupancy
Zn1    Zn    0.83851   0.80234   0.94570   0.01267  Uiso   1.00
Zn2    Zn    0.58655   0.69766   0.55430   0.01267  Uiso   1.00
Zn3    Zn    0.16149   0.19766   0.05430   0.01267  Uiso   1.00
Zn4    Zn    0.41345   0.30234   0.44570   0.01267  Uiso   1.00
Zn5    Zn    0.00000   0.00000   0.00000   0.01267  Uiso   1.00
Zn6    Zn    0.00000   0.50000   0.50000   0.01267  Uiso   1.00
H1     H     0.72840   0.09730   0.72590   0.01267  Uiso   1.00
H2     H     0.80830   0.23040   0.62880   0.01267  Uiso   1.00
H3     H     0.27040   0.12240   0.67560   0.01267  Uiso   1.00
H4     H     0.86330   0.59110   0.02730   0.01267  Uiso   1.00
H5     H     0.72520   0.46560   0.05860   0.01267  Uiso   1.00
H6     H     0.41790   0.63870   0.90370   0.01267  Uiso   1.00
H7     H     0.56480   0.75920   0.87720   0.01267  Uiso   1.00
H8     H     0.55160   0.40270   0.77410   0.01267  Uiso   1.00
H9     H     0.66750   0.26960   0.87120   0.01267  Uiso   1.00
H10    H     0.06840   0.37760   0.82440   0.01267  Uiso   1.00
H11    H     0.48170   0.90890   0.47270   0.01267  Uiso   1.00
H12    H     0.24940   0.03440   0.44140   0.01267  Uiso   1.00
H13    H     0.96030   0.86130   0.59630   0.01267  Uiso   1.00
H14    H     0.20120   0.74080   0.62280   0.01267  Uiso   1.00
H15    H     0.27160   0.90270   0.27410   0.01267  Uiso   1.00
H16    H     0.19170   0.76960   0.37120   0.01267  Uiso   1.00
H17    H     0.72960   0.87760   0.32440   0.01267  Uiso   1.00
H18    H     0.13670   0.40890   0.97270   0.01267  Uiso   1.00
H19    H     0.27480   0.53440   0.94140   0.01267  Uiso   1.00
H20    H     0.58210   0.36130   0.09630   0.01267  Uiso   1.00
H21    H     0.43520   0.24080   0.12280   0.01267  Uiso   1.00
H22    H     0.44840   0.59730   0.22590   0.01267  Uiso   1.00
H23    H     0.33250   0.73040   0.12880   0.01267  Uiso   1.00
H24    H     0.93160   0.62240   0.17560   0.01267  Uiso   1.00
H25    H     0.51830   0.09110   0.52730   0.01267  Uiso   1.00
H26    H     0.75060   0.96560   0.55860   0.01267  Uiso   1.00
H27    H     0.03970   0.13870   0.40370   0.01267  Uiso   1.00
H28    H     0.79880   0.25920   0.37720   0.01267  Uiso   1.00
C1     C     0.88471   0.95128   0.82850   0.01267  Uiso   1.00
C2     C     0.94770   0.03242   0.76358   0.01267  Uiso   1.00
C3     C     0.83656   0.10318   0.71730   0.01267  Uiso   1.00
C4     C     0.88471   0.18259   0.65839   0.01267  Uiso   1.00
C5     C     0.04587   0.19067   0.64359   0.01267  Uiso   1.00
C6     C     0.10341   0.27638   0.58040   0.01267  Uiso   1.00
C7     C     0.16049   0.11816   0.68706   0.01267  Uiso   1.00
C8     C     0.11222   0.03972   0.74724   0.01267  Uiso   1.00
C9     C     0.77094   0.60142   0.00310   0.01267  Uiso   1.00
C10    C     0.68805   0.52560   0.02250   0.01267  Uiso   1.00
C11    C     0.54910   0.53860   0.98820   0.01267  Uiso   1.00
C12    C     0.50665   0.62790   0.93100   0.01267  Uiso   1.00
C13    C     0.59620   0.69990   0.91510   0.01267  Uiso   1.00
C14    C     0.66449   0.54872   0.67150   0.01267  Uiso   1.00
C15    C     0.74370   0.46758   0.73642   0.01267  Uiso   1.00
C16    C     0.65704   0.39682   0.78270   0.01267  Uiso   1.00
C17    C     0.72569   0.31741   0.84161   0.01267  Uiso   1.00
C18    C     0.88013   0.30933   0.85641   0.01267  Uiso   1.00
C19    C     0.96019   0.22362   0.91960   0.01267  Uiso   1.00
C20    C     0.96571   0.38184   0.81294   0.01267  Uiso   1.00
C21    C     0.89918   0.46028   0.75276   0.01267  Uiso   1.00
C22    C     0.37546   0.89858   0.49690   0.01267  Uiso   1.00
C23    C     0.23615   0.97440   0.47750   0.01267  Uiso   1.00
C24    C     0.07590   0.96140   0.51180   0.01267  Uiso   1.00
C25    C     0.06555   0.87210   0.56900   0.01267  Uiso   1.00
C26    C     0.21120   0.80010   0.58490   0.01267  Uiso   1.00
C27    C     0.11529   0.04872   0.17150   0.01267  Uiso   1.00
C28    C     0.05230   0.96758   0.23642   0.01267  Uiso   1.00
C29    C     0.16344   0.89682   0.28270   0.01267  Uiso   1.00
C30    C     0.11529   0.81741   0.34161   0.01267  Uiso   1.00
C31    C     0.95413   0.80933   0.35641   0.01267  Uiso   1.00
C32    C     0.89659   0.72362   0.41960   0.01267  Uiso   1.00
C33    C     0.83951   0.88184   0.31294   0.01267  Uiso   1.00
C34    C     0.88778   0.96028   0.25276   0.01267  Uiso   1.00
C35    C     0.22906   0.39858   0.99690   0.01267  Uiso   1.00
C36    C     0.31195   0.47440   0.97750   0.01267  Uiso   1.00
C37    C     0.45090   0.46140   0.01180   0.01267  Uiso   1.00
C38    C     0.49335   0.37210   0.06900   0.01267  Uiso   1.00
C39    C     0.40380   0.30010   0.08490   0.01267  Uiso   1.00
C40    C     0.33551   0.45128   0.32850   0.01267  Uiso   1.00
C41    C     0.25630   0.53242   0.26358   0.01267  Uiso   1.00
C42    C     0.34296   0.60318   0.21730   0.01267  Uiso   1.00
C43    C     0.27431   0.68259   0.15839   0.01267  Uiso   1.00
C44    C     0.11987   0.69067   0.14359   0.01267  Uiso   1.00
C45    C     0.03981   0.77638   0.08040   0.01267  Uiso   1.00
C46    C     0.03429   0.61816   0.18706   0.01267  Uiso   1.00
C47    C     0.10082   0.53972   0.24724   0.01267  Uiso   1.00
C48    C     0.62454   0.10142   0.50310   0.01267  Uiso   1.00
C49    C     0.76385   0.02560   0.52250   0.01267  Uiso   1.00
C50    C     0.92410   0.03860   0.48820   0.01267  Uiso   1.00
C51    C     0.93445   0.12790   0.43100   0.01267  Uiso   1.00
C52    C     0.78880   0.19990   0.41510   0.01267  Uiso   1.00
S1     S     0.27238   0.94884   0.79630   0.01267  Uiso   1.00
S2     S     0.01752   0.55116   0.70370   0.01267  Uiso   1.00
S3     S     0.72762   0.05116   0.20370   0.01267  Uiso   1.00
S4     S     0.98248   0.44884   0.29630   0.01267  Uiso   1.00
N1     N     0.72568   0.68936   0.95108   0.01267  Uiso   1.00
N2     N     0.36612   0.81064   0.54892   0.01267  Uiso   1.00
N3     N     0.27432   0.31064   0.04892   0.01267  Uiso   1.00
N4     N     0.63388   0.18936   0.45108   0.01267  Uiso   1.00
O1     O     0.91035   0.93723   0.91047   0.01267  Uiso   1.00
O2     O     0.81131   0.89745   0.80493   0.01267  Uiso   1.00
O3     O     0.99651   0.34768   0.54910   0.01267  Uiso   1.00
O4     O     0.25984   0.26813   0.56519   0.01267  Uiso   1.00
O5     O     0.43228   0.96300   0.74244   0.01267  Uiso   1.00
O6     O     0.23237   0.98116   0.89350   0.01267  Uiso   1.00
O7     O     0.26365   0.84360   0.78890   0.01267  Uiso   1.00
O8     O     0.75805   0.56277   0.58953   0.01267  Uiso   1.00
O9     O     0.51369   0.60255   0.69507   0.01267  Uiso   1.00
O10    O     0.89329   0.15232   0.95090   0.01267  Uiso   1.00
O11    O     0.09316   0.23187   0.93481   0.01267  Uiso   1.00
O12    O     0.13772   0.53700   0.75756   0.01267  Uiso   1.00
O13    O     0.10703   0.51884   0.60650   0.01267  Uiso   1.00
O14    O     0.89615   0.65640   0.71110   0.01267  Uiso   1.00
O15    O     0.08965   0.06277   0.08953   0.01267  Uiso   1.00
O16    O     0.18869   0.10255   0.19507   0.01267  Uiso   1.00
O17    O     0.00349   0.65232   0.45090   0.01267  Uiso   1.00
O18    O     0.74016   0.73187   0.43481   0.01267  Uiso   1.00
O19    O     0.56772   0.03700   0.25756   0.01267  Uiso   1.00
O20    O     0.76763   0.01884   0.10650   0.01267  Uiso   1.00
O21    O     0.73635   0.15640   0.21110   0.01267  Uiso   1.00
O22    O     0.24195   0.43723   0.41047   0.01267  Uiso   1.00
O23    O     0.48631   0.39745   0.30493   0.01267  Uiso   1.00
O24    O     0.10671   0.84768   0.04910   0.01267  Uiso   1.00
O25    O     0.90684   0.76813   0.06519   0.01267  Uiso   1.00
O26    O     0.86228   0.46300   0.24244   0.01267  Uiso   1.00
O27    O     0.89297   0.48116   0.39350   0.01267  Uiso   1.00
O28    O     0.10385   0.34360   0.28890   0.01267  Uiso   1.00
