data_image0
_cell_length_a       17.9702
_cell_length_b       25.078
_cell_length_c       27.0363
_cell_angle_alpha    90
_cell_angle_beta     90
_cell_angle_gamma    90

_symmetry_space_group_name_H-M    "P 1"
_symmetry_int_tables_number       1

loop_
  _symmetry_equiv_pos_as_xyz
  'x, y, z'

loop_
  _atom_site_label
  _atom_site_occupancy
  _atom_site_fract_x
  _atom_site_fract_y
  _atom_site_fract_z
  _atom_site_thermal_displace_type
  _atom_site_B_iso_or_equiv
  _atom_site_type_symbol
  C1       1.0000 0.01150  0.24680  0.55250  Biso   1.000  C
  C2       1.0000 0.04560  0.19090  0.54610  Biso   1.000  C
  C3       1.0000 0.16100  0.36820  0.62120  Biso   1.000  C
  C4       1.0000 0.13810  0.32910  0.66290  Biso   1.000  C
  C5       1.0000 0.81690  0.20710  0.46300  Biso   1.000  C
  C6       1.0000 0.76570  0.21490  0.50690  Biso   1.000  C
  O1       1.0000 0.05360  0.28360  0.56301  Biso   1.000  O
  O2       1.0000 0.11430  0.18610  0.55080  Biso   1.000  O
  O3       1.0000 0.94150  0.24860  0.54851  Biso   1.000  O
  O4       1.0000 0.00140  0.15398  0.53567  Biso   1.000  O
  O5       1.0000 0.17860  0.35118  0.58077  Biso   1.000  O
  O6       1.0000 0.13990  0.28180  0.65386  Biso   1.000  O
  O7       1.0000 0.15930  0.41780  0.63406  Biso   1.000  O
  O8       1.0000 0.11840  0.35101  0.70317  Biso   1.000  O
  O9       1.0000 0.79620  0.22160  0.42183  Biso   1.000  O
  O10      1.0000 0.70260  0.23160  0.49969  Biso   1.000  O
  O11      1.0000 0.88010  0.18550  0.47246  Biso   1.000  O
  O12      1.0000 0.79330  0.20240  0.54898  Biso   1.000  O
  Cr1      1.0000 0.89708  0.17688  0.54415  Biso   1.000  Cr
  Mn1      1.0000 0.17393  0.25831  0.57954  Biso   1.000  Mn
  C7       1.0000 0.01150  0.74680  0.05250  Biso   1.000  C
  C8       1.0000 0.04560  0.69090  0.04610  Biso   1.000  C
  C9       1.0000 0.16100  0.86820  0.12120  Biso   1.000  C
  C10      1.0000 0.13810  0.82910  0.16290  Biso   1.000  C
  C11      1.0000 0.81690  0.70710  0.96300  Biso   1.000  C
  C12      1.0000 0.76570  0.71490  0.00690  Biso   1.000  C
  O13      1.0000 0.05360  0.78360  0.06301  Biso   1.000  O
  O14      1.0000 0.11430  0.68610  0.05080  Biso   1.000  O
  O15      1.0000 0.94150  0.74860  0.04851  Biso   1.000  O
  O16      1.0000 0.00140  0.65398  0.03567  Biso   1.000  O
  O17      1.0000 0.17860  0.85118  0.08077  Biso   1.000  O
  O18      1.0000 0.13990  0.78180  0.15386  Biso   1.000  O
  O19      1.0000 0.15930  0.91780  0.13406  Biso   1.000  O
  O20      1.0000 0.11840  0.85101  0.20317  Biso   1.000  O
  O21      1.0000 0.79620  0.72160  0.92183  Biso   1.000  O
  O22      1.0000 0.70260  0.73160  0.99969  Biso   1.000  O
  O23      1.0000 0.88010  0.68550  0.97246  Biso   1.000  O
  O24      1.0000 0.79330  0.70240  0.04898  Biso   1.000  O
  Cr2      1.0000 0.89708  0.67688  0.04415  Biso   1.000  Cr
  Mn2      1.0000 0.17393  0.75831  0.07954  Biso   1.000  Mn
  C13      1.0000 0.51150  0.24680  0.05250  Biso   1.000  C
  C14      1.0000 0.54560  0.19090  0.04610  Biso   1.000  C
  C15      1.0000 0.66100  0.36820  0.12120  Biso   1.000  C
  C16      1.0000 0.63810  0.32910  0.16290  Biso   1.000  C
  C17      1.0000 0.31690  0.20710  0.96300  Biso   1.000  C
  C18      1.0000 0.26570  0.21490  0.00690  Biso   1.000  C
  O25      1.0000 0.55360  0.28360  0.06301  Biso   1.000  O
  O26      1.0000 0.61430  0.18610  0.05080  Biso   1.000  O
  O27      1.0000 0.44150  0.24860  0.04851  Biso   1.000  O
  O28      1.0000 0.50140  0.15398  0.03567  Biso   1.000  O
  O29      1.0000 0.67860  0.35118  0.08077  Biso   1.000  O
  O30      1.0000 0.63990  0.28180  0.15386  Biso   1.000  O
  O31      1.0000 0.65930  0.41780  0.13406  Biso   1.000  O
  O32      1.0000 0.61840  0.35101  0.20317  Biso   1.000  O
  O33      1.0000 0.29620  0.22160  0.92183  Biso   1.000  O
  O34      1.0000 0.20260  0.23160  0.99969  Biso   1.000  O
  O35      1.0000 0.38010  0.18550  0.97246  Biso   1.000  O
  O36      1.0000 0.29330  0.20240  0.04898  Biso   1.000  O
  Cr3      1.0000 0.39708  0.17688  0.04415  Biso   1.000  Cr
  Mn3      1.0000 0.67393  0.25831  0.07954  Biso   1.000  Mn
  C19      1.0000 0.51150  0.74680  0.55250  Biso   1.000  C
  C20      1.0000 0.54560  0.69090  0.54610  Biso   1.000  C
  C21      1.0000 0.66100  0.86820  0.62120  Biso   1.000  C
  C22      1.0000 0.63810  0.82910  0.66290  Biso   1.000  C
  C23      1.0000 0.31690  0.70710  0.46300  Biso   1.000  C
  C24      1.0000 0.26570  0.71490  0.50690  Biso   1.000  C
  O37      1.0000 0.55360  0.78360  0.56301  Biso   1.000  O
  O38      1.0000 0.61430  0.68610  0.55080  Biso   1.000  O
  O39      1.0000 0.44150  0.74860  0.54851  Biso   1.000  O
  O40      1.0000 0.50140  0.65398  0.53567  Biso   1.000  O
  O41      1.0000 0.67860  0.85118  0.58077  Biso   1.000  O
  O42      1.0000 0.63990  0.78180  0.65386  Biso   1.000  O
  O43      1.0000 0.65930  0.91780  0.63406  Biso   1.000  O
  O44      1.0000 0.61840  0.85101  0.70317  Biso   1.000  O
  O45      1.0000 0.29620  0.72160  0.42183  Biso   1.000  O
  O46      1.0000 0.20260  0.73160  0.49969  Biso   1.000  O
  O47      1.0000 0.38010  0.68550  0.47246  Biso   1.000  O
  O48      1.0000 0.29330  0.70240  0.54898  Biso   1.000  O
  Cr4      1.0000 0.39708  0.67688  0.54415  Biso   1.000  Cr
  Mn4      1.0000 0.67393  0.75831  0.57954  Biso   1.000  Mn
  C25      1.0000 0.01150  0.75320  0.44750  Biso   1.000  C
  C26      1.0000 0.04560  0.80910  0.45390  Biso   1.000  C
  C27      1.0000 0.16100  0.63180  0.37880  Biso   1.000  C
  C28      1.0000 0.13810  0.67090  0.33710  Biso   1.000  C
  C29      1.0000 0.81690  0.79290  0.53700  Biso   1.000  C
  C30      1.0000 0.76570  0.78510  0.49310  Biso   1.000  C
  O49      1.0000 0.05360  0.71640  0.43699  Biso   1.000  O
  O50      1.0000 0.11430  0.81390  0.44920  Biso   1.000  O
  O51      1.0000 0.94150  0.75140  0.45149  Biso   1.000  O
  O52      1.0000 0.00140  0.84602  0.46433  Biso   1.000  O
  O53      1.0000 0.17860  0.64882  0.41923  Biso   1.000  O
  O54      1.0000 0.13990  0.71820  0.34614  Biso   1.000  O
  O55      1.0000 0.15930  0.58220  0.36594  Biso   1.000  O
  O56      1.0000 0.11840  0.64899  0.29683  Biso   1.000  O
  O57      1.0000 0.79620  0.77840  0.57817  Biso   1.000  O
  O58      1.0000 0.70260  0.76840  0.50031  Biso   1.000  O
  O59      1.0000 0.88010  0.81450  0.52754  Biso   1.000  O
  O60      1.0000 0.79330  0.79760  0.45102  Biso   1.000  O
  Cr5      1.0000 0.89708  0.82312  0.45585  Biso   1.000  Cr
  Mn5      1.0000 0.17393  0.74169  0.42046  Biso   1.000  Mn
  C31      1.0000 0.01150  0.25320  0.94750  Biso   1.000  C
  C32      1.0000 0.04560  0.30910  0.95390  Biso   1.000  C
  C33      1.0000 0.16100  0.13180  0.87880  Biso   1.000  C
  C34      1.0000 0.13810  0.17090  0.83710  Biso   1.000  C
  C35      1.0000 0.81690  0.29290  0.03700  Biso   1.000  C
  C36      1.0000 0.76570  0.28510  0.99310  Biso   1.000  C
  O61      1.0000 0.05360  0.21640  0.93699  Biso   1.000  O
  O62      1.0000 0.11430  0.31390  0.94920  Biso   1.000  O
  O63      1.0000 0.94150  0.25140  0.95149  Biso   1.000  O
  O64      1.0000 0.00140  0.34602  0.96433  Biso   1.000  O
  O65      1.0000 0.17860  0.14882  0.91923  Biso   1.000  O
  O66      1.0000 0.13990  0.21820  0.84614  Biso   1.000  O
  O67      1.0000 0.15930  0.08220  0.86594  Biso   1.000  O
  O68      1.0000 0.11840  0.14899  0.79683  Biso   1.000  O
  O69      1.0000 0.79620  0.27840  0.07817  Biso   1.000  O
  O70      1.0000 0.70260  0.26840  0.00031  Biso   1.000  O
  O71      1.0000 0.88010  0.31450  0.02754  Biso   1.000  O
  O72      1.0000 0.79330  0.29760  0.95102  Biso   1.000  O
  Cr6      1.0000 0.89708  0.32312  0.95585  Biso   1.000  Cr
  Mn6      1.0000 0.17393  0.24169  0.92046  Biso   1.000  Mn
  C37      1.0000 0.51150  0.75320  0.94750  Biso   1.000  C
  C38      1.0000 0.54560  0.80910  0.95390  Biso   1.000  C
  C39      1.0000 0.66100  0.63180  0.87880  Biso   1.000  C
  C40      1.0000 0.63810  0.67090  0.83710  Biso   1.000  C
  C41      1.0000 0.31690  0.79290  0.03700  Biso   1.000  C
  C42      1.0000 0.26570  0.78510  0.99310  Biso   1.000  C
  O73      1.0000 0.55360  0.71640  0.93699  Biso   1.000  O
  O74      1.0000 0.61430  0.81390  0.94920  Biso   1.000  O
  O75      1.0000 0.44150  0.75140  0.95149  Biso   1.000  O
  O76      1.0000 0.50140  0.84602  0.96433  Biso   1.000  O
  O77      1.0000 0.67860  0.64882  0.91923  Biso   1.000  O
  O78      1.0000 0.63990  0.71820  0.84614  Biso   1.000  O
  O79      1.0000 0.65930  0.58220  0.86594  Biso   1.000  O
  O80      1.0000 0.61840  0.64899  0.79683  Biso   1.000  O
  O81      1.0000 0.29620  0.77840  0.07817  Biso   1.000  O
  O82      1.0000 0.20260  0.76840  0.00031  Biso   1.000  O
  O83      1.0000 0.38010  0.81450  0.02754  Biso   1.000  O
  O84      1.0000 0.29330  0.79760  0.95102  Biso   1.000  O
  Cr7      1.0000 0.39708  0.82312  0.95585  Biso   1.000  Cr
  Mn7      1.0000 0.67393  0.74169  0.92046  Biso   1.000  Mn
  C43      1.0000 0.51150  0.25320  0.44750  Biso   1.000  C
  C44      1.0000 0.54560  0.30910  0.45390  Biso   1.000  C
  C45      1.0000 0.66100  0.13180  0.37880  Biso   1.000  C
  C46      1.0000 0.63810  0.17090  0.33710  Biso   1.000  C
  C47      1.0000 0.31690  0.29290  0.53700  Biso   1.000  C
  C48      1.0000 0.26570  0.28510  0.49310  Biso   1.000  C
  O85      1.0000 0.55360  0.21640  0.43699  Biso   1.000  O
  O86      1.0000 0.61430  0.31390  0.44920  Biso   1.000  O
  O87      1.0000 0.44150  0.25140  0.45149  Biso   1.000  O
  O88      1.0000 0.50140  0.34602  0.46433  Biso   1.000  O
  O89      1.0000 0.67860  0.14882  0.41923  Biso   1.000  O
  O90      1.0000 0.63990  0.21820  0.34614  Biso   1.000  O
  O91      1.0000 0.65930  0.08220  0.36594  Biso   1.000  O
  O92      1.0000 0.61840  0.14899  0.29683  Biso   1.000  O
  O93      1.0000 0.29620  0.27840  0.57817  Biso   1.000  O
  O94      1.0000 0.20260  0.26840  0.50031  Biso   1.000  O
  O95      1.0000 0.38010  0.31450  0.52754  Biso   1.000  O
  O96      1.0000 0.29330  0.29760  0.45102  Biso   1.000  O
  Cr8      1.0000 0.39708  0.32312  0.45585  Biso   1.000  Cr
  Mn8      1.0000 0.67393  0.24169  0.42046  Biso   1.000  Mn
  C49      1.0000 0.76150  0.99680  0.69750  Biso   1.000  C
  C50      1.0000 0.79560  0.94090  0.70390  Biso   1.000  C
  C51      1.0000 0.91100  0.11820  0.62880  Biso   1.000  C
  C52      1.0000 0.88810  0.07910  0.58710  Biso   1.000  C
  C53      1.0000 0.56690  0.95710  0.78700  Biso   1.000  C
  C54      1.0000 0.51570  0.96490  0.74310  Biso   1.000  C
  O97      1.0000 0.80360  0.03360  0.68699  Biso   1.000  O
  O98      1.0000 0.86430  0.93610  0.69920  Biso   1.000  O
  O99      1.0000 0.69150  0.99860  0.70149  Biso   1.000  O
  O100     1.0000 0.75140  0.90398  0.71433  Biso   1.000  O
  O101     1.0000 0.92860  0.10118  0.66923  Biso   1.000  O
  O102     1.0000 0.88990  0.03180  0.59614  Biso   1.000  O
  O103     1.0000 0.90930  0.16780  0.61594  Biso   1.000  O
  O104     1.0000 0.86840  0.10101  0.54683  Biso   1.000  O
  O105     1.0000 0.54620  0.97160  0.82817  Biso   1.000  O
  O106     1.0000 0.45260  0.98160  0.75031  Biso   1.000  O
  O107     1.0000 0.63010  0.93550  0.77754  Biso   1.000  O
  O108     1.0000 0.54330  0.95240  0.70102  Biso   1.000  O
  Cr9      1.0000 0.64708  0.92688  0.70585  Biso   1.000  Cr
  Mn9      1.0000 0.92393  0.00831  0.67046  Biso   1.000  Mn
  C55      1.0000 0.76150  0.49680  0.19750  Biso   1.000  C
  C56      1.0000 0.79560  0.44090  0.20390  Biso   1.000  C
  C57      1.0000 0.91100  0.61820  0.12880  Biso   1.000  C
  C58      1.0000 0.88810  0.57910  0.08710  Biso   1.000  C
  C59      1.0000 0.56690  0.45710  0.28700  Biso   1.000  C
  C60      1.0000 0.51570  0.46490  0.24310  Biso   1.000  C
  O109     1.0000 0.80360  0.53360  0.18699  Biso   1.000  O
  O110     1.0000 0.86430  0.43610  0.19920  Biso   1.000  O
  O111     1.0000 0.69150  0.49860  0.20149  Biso   1.000  O
  O112     1.0000 0.75140  0.40398  0.21433  Biso   1.000  O
  O113     1.0000 0.92860  0.60118  0.16923  Biso   1.000  O
  O114     1.0000 0.88990  0.53180  0.09614  Biso   1.000  O
  O115     1.0000 0.90930  0.66780  0.11594  Biso   1.000  O
  O116     1.0000 0.86840  0.60101  0.04683  Biso   1.000  O
  O117     1.0000 0.54620  0.47160  0.32817  Biso   1.000  O
  O118     1.0000 0.45260  0.48160  0.25031  Biso   1.000  O
  O119     1.0000 0.63010  0.43550  0.27754  Biso   1.000  O
  O120     1.0000 0.54330  0.45240  0.20102  Biso   1.000  O
  Cr10     1.0000 0.64708  0.42688  0.20585  Biso   1.000  Cr
  Mn10     1.0000 0.92393  0.50831  0.17046  Biso   1.000  Mn
  C61      1.0000 0.26150  0.99680  0.19750  Biso   1.000  C
  C62      1.0000 0.29560  0.94090  0.20390  Biso   1.000  C
  C63      1.0000 0.41100  0.11820  0.12880  Biso   1.000  C
  C64      1.0000 0.38810  0.07910  0.08710  Biso   1.000  C
  C65      1.0000 0.06690  0.95710  0.28700  Biso   1.000  C
  C66      1.0000 0.01570  0.96490  0.24310  Biso   1.000  C
  O121     1.0000 0.30360  0.03360  0.18699  Biso   1.000  O
  O122     1.0000 0.36430  0.93610  0.19920  Biso   1.000  O
  O123     1.0000 0.19150  0.99860  0.20149  Biso   1.000  O
  O124     1.0000 0.25140  0.90398  0.21433  Biso   1.000  O
  O125     1.0000 0.42860  0.10118  0.16923  Biso   1.000  O
  O126     1.0000 0.38990  0.03180  0.09614  Biso   1.000  O
  O127     1.0000 0.40930  0.16780  0.11594  Biso   1.000  O
  O128     1.0000 0.36840  0.10101  0.04683  Biso   1.000  O
  O129     1.0000 0.04620  0.97160  0.32817  Biso   1.000  O
  O130     1.0000 0.95260  0.98160  0.25031  Biso   1.000  O
  O131     1.0000 0.13010  0.93550  0.27754  Biso   1.000  O
  O132     1.0000 0.04330  0.95240  0.20102  Biso   1.000  O
  Cr11     1.0000 0.14708  0.92688  0.20585  Biso   1.000  Cr
  Mn11     1.0000 0.42393  0.00831  0.17046  Biso   1.000  Mn
  C67      1.0000 0.26150  0.49680  0.69750  Biso   1.000  C
  C68      1.0000 0.29560  0.44090  0.70390  Biso   1.000  C
  C69      1.0000 0.41100  0.61820  0.62880  Biso   1.000  C
  C70      1.0000 0.38810  0.57910  0.58710  Biso   1.000  C
  C71      1.0000 0.06690  0.45710  0.78700  Biso   1.000  C
  C72      1.0000 0.01570  0.46490  0.74310  Biso   1.000  C
  O133     1.0000 0.30360  0.53360  0.68699  Biso   1.000  O
  O134     1.0000 0.36430  0.43610  0.69920  Biso   1.000  O
  O135     1.0000 0.19150  0.49860  0.70149  Biso   1.000  O
  O136     1.0000 0.25140  0.40398  0.71433  Biso   1.000  O
  O137     1.0000 0.42860  0.60118  0.66923  Biso   1.000  O
  O138     1.0000 0.38990  0.53180  0.59614  Biso   1.000  O
  O139     1.0000 0.40930  0.66780  0.61594  Biso   1.000  O
  O140     1.0000 0.36840  0.60101  0.54683  Biso   1.000  O
  O141     1.0000 0.04620  0.47160  0.82817  Biso   1.000  O
  O142     1.0000 0.95260  0.48160  0.75031  Biso   1.000  O
  O143     1.0000 0.13010  0.43550  0.77754  Biso   1.000  O
  O144     1.0000 0.04330  0.45240  0.70102  Biso   1.000  O
  Cr12     1.0000 0.14708  0.42688  0.70585  Biso   1.000  Cr
  Mn12     1.0000 0.42393  0.50831  0.67046  Biso   1.000  Mn
  C73      1.0000 0.76150  0.50320  0.80250  Biso   1.000  C
  C74      1.0000 0.79560  0.55910  0.79610  Biso   1.000  C
  C75      1.0000 0.91100  0.38180  0.87120  Biso   1.000  C
  C76      1.0000 0.88810  0.42090  0.91290  Biso   1.000  C
  C77      1.0000 0.56690  0.54290  0.71300  Biso   1.000  C
  C78      1.0000 0.51570  0.53510  0.75690  Biso   1.000  C
  O145     1.0000 0.80360  0.46640  0.81301  Biso   1.000  O
  O146     1.0000 0.86430  0.56390  0.80080  Biso   1.000  O
  O147     1.0000 0.69150  0.50140  0.79851  Biso   1.000  O
  O148     1.0000 0.75140  0.59602  0.78567  Biso   1.000  O
  O149     1.0000 0.92860  0.39882  0.83077  Biso   1.000  O
  O150     1.0000 0.88990  0.46820  0.90386  Biso   1.000  O
  O151     1.0000 0.90930  0.33220  0.88406  Biso   1.000  O
  O152     1.0000 0.86840  0.39899  0.95317  Biso   1.000  O
  O153     1.0000 0.54620  0.52840  0.67183  Biso   1.000  O
  O154     1.0000 0.45260  0.51840  0.74969  Biso   1.000  O
  O155     1.0000 0.63010  0.56450  0.72246  Biso   1.000  O
  O156     1.0000 0.54330  0.54760  0.79898  Biso   1.000  O
  Cr13     1.0000 0.64708  0.57312  0.79415  Biso   1.000  Cr
  Mn13     1.0000 0.92393  0.49169  0.82954  Biso   1.000  Mn
  C79      1.0000 0.76150  0.00320  0.30250  Biso   1.000  C
  C80      1.0000 0.79560  0.05910  0.29610  Biso   1.000  C
  C81      1.0000 0.91100  0.88180  0.37120  Biso   1.000  C
  C82      1.0000 0.88810  0.92090  0.41290  Biso   1.000  C
  C83      1.0000 0.56690  0.04290  0.21300  Biso   1.000  C
  C84      1.0000 0.51570  0.03510  0.25690  Biso   1.000  C
  O157     1.0000 0.80360  0.96640  0.31301  Biso   1.000  O
  O158     1.0000 0.86430  0.06390  0.30080  Biso   1.000  O
  O159     1.0000 0.69150  0.00140  0.29851  Biso   1.000  O
  O160     1.0000 0.75140  0.09602  0.28567  Biso   1.000  O
  O161     1.0000 0.92860  0.89882  0.33077  Biso   1.000  O
  O162     1.0000 0.88990  0.96820  0.40386  Biso   1.000  O
  O163     1.0000 0.90930  0.83220  0.38406  Biso   1.000  O
  O164     1.0000 0.86840  0.89899  0.45317  Biso   1.000  O
  O165     1.0000 0.54620  0.02840  0.17183  Biso   1.000  O
  O166     1.0000 0.45260  0.01840  0.24969  Biso   1.000  O
  O167     1.0000 0.63010  0.06450  0.22246  Biso   1.000  O
  O168     1.0000 0.54330  0.04760  0.29898  Biso   1.000  O
  Cr14     1.0000 0.64708  0.07312  0.29415  Biso   1.000  Cr
  Mn14     1.0000 0.92393  0.99169  0.32954  Biso   1.000  Mn
  C85      1.0000 0.26150  0.50320  0.30250  Biso   1.000  C
  C86      1.0000 0.29560  0.55910  0.29610  Biso   1.000  C
  C87      1.0000 0.41100  0.38180  0.37120  Biso   1.000  C
  C88      1.0000 0.38810  0.42090  0.41290  Biso   1.000  C
  C89      1.0000 0.06690  0.54290  0.21300  Biso   1.000  C
  C90      1.0000 0.01570  0.53510  0.25690  Biso   1.000  C
  O169     1.0000 0.30360  0.46640  0.31301  Biso   1.000  O
  O170     1.0000 0.36430  0.56390  0.30080  Biso   1.000  O
  O171     1.0000 0.19150  0.50140  0.29851  Biso   1.000  O
  O172     1.0000 0.25140  0.59602  0.28567  Biso   1.000  O
  O173     1.0000 0.42860  0.39882  0.33077  Biso   1.000  O
  O174     1.0000 0.38990  0.46820  0.40386  Biso   1.000  O
  O175     1.0000 0.40930  0.33220  0.38406  Biso   1.000  O
  O176     1.0000 0.36840  0.39899  0.45317  Biso   1.000  O
  O177     1.0000 0.04620  0.52840  0.17183  Biso   1.000  O
  O178     1.0000 0.95260  0.51840  0.24969  Biso   1.000  O
  O179     1.0000 0.13010  0.56450  0.22246  Biso   1.000  O
  O180     1.0000 0.04330  0.54760  0.29898  Biso   1.000  O
  Cr15     1.0000 0.14708  0.57312  0.29415  Biso   1.000  Cr
  Mn15     1.0000 0.42393  0.49169  0.32954  Biso   1.000  Mn
  C91      1.0000 0.26150  0.00320  0.80250  Biso   1.000  C
  C92      1.0000 0.29560  0.05910  0.79610  Biso   1.000  C
  C93      1.0000 0.41100  0.88180  0.87120  Biso   1.000  C
  C94      1.0000 0.38810  0.92090  0.91290  Biso   1.000  C
  C95      1.0000 0.06690  0.04290  0.71300  Biso   1.000  C
  C96      1.0000 0.01570  0.03510  0.75690  Biso   1.000  C
  O181     1.0000 0.30360  0.96640  0.81301  Biso   1.000  O
  O182     1.0000 0.36430  0.06390  0.80080  Biso   1.000  O
  O183     1.0000 0.19150  0.00140  0.79851  Biso   1.000  O
  O184     1.0000 0.25140  0.09602  0.78567  Biso   1.000  O
  O185     1.0000 0.42860  0.89882  0.83077  Biso   1.000  O
  O186     1.0000 0.38990  0.96820  0.90386  Biso   1.000  O
  O187     1.0000 0.40930  0.83220  0.88406  Biso   1.000  O
  O188     1.0000 0.36840  0.89899  0.95317  Biso   1.000  O
  O189     1.0000 0.04620  0.02840  0.67183  Biso   1.000  O
  O190     1.0000 0.95260  0.01840  0.74969  Biso   1.000  O
  O191     1.0000 0.13010  0.06450  0.72246  Biso   1.000  O
  O192     1.0000 0.04330  0.04760  0.79898  Biso   1.000  O
  Cr16     1.0000 0.14708  0.07312  0.79415  Biso   1.000  Cr
  Mn16     1.0000 0.42393  0.99169  0.82954  Biso   1.000  Mn
