data_VIPXUO_clean
_audit_creation_date              2014-07-02
_audit_creation_method            'Materials Studio'
_symmetry_space_group_name_H-M    'P1'
_symmetry_Int_Tables_number       1
_symmetry_cell_setting            triclinic
loop_
_symmetry_equiv_pos_as_xyz
  x,y,z
_cell_length_a                    8.6864
_cell_length_b                    14.2414
_cell_length_c                    16.8850
_cell_angle_alpha                 90.0000
_cell_angle_beta                  100.0460
_cell_angle_gamma                 90.0000
loop_
_atom_site_label
_atom_site_type_symbol
_atom_site_fract_x
_atom_site_fract_y
_atom_site_fract_z
_atom_site_U_iso_or_equiv
_atom_site_adp_type
_atom_site_occupancy
Co1    Co    0.71365   0.24031   0.76685   0.01267  Uiso   1.00
Co2    Co    0.78635   0.74031   0.73315   0.01267  Uiso   1.00
Co3    Co    0.28635   0.75969   0.23315   0.01267  Uiso   1.00
Co4    Co    0.21365   0.25969   0.26685   0.01267  Uiso   1.00
H1     H     0.44620   0.14350   0.55070   0.01267  Uiso   1.00
H2     H     0.90950   0.57700   0.51710   0.01267  Uiso   1.00
H3     H     0.74150   0.45220   0.48050   0.01267  Uiso   1.00
H4     H     0.81630   0.43150   0.40420   0.01267  Uiso   1.00
H5     H     0.17370   0.56930   0.26380   0.01267  Uiso   1.00
H6     H     0.06920   0.48140   0.35300   0.01267  Uiso   1.00
H7     H     0.95630   0.72050   0.45370   0.01267  Uiso   1.00
H8     H     0.06510   0.80090   0.35960   0.01267  Uiso   1.00
H9     H     0.59140   0.60630   0.48190   0.01267  Uiso   1.00
H10    H     0.42460   0.70770   0.40540   0.01267  Uiso   1.00
H11    H     0.53840   0.61160   0.20660   0.01267  Uiso   1.00
H12    H     0.71000   0.50710   0.28040   0.01267  Uiso   1.00
H13    H     0.05380   0.64350   0.94930   0.01267  Uiso   1.00
H14    H     0.59050   0.07700   0.98290   0.01267  Uiso   1.00
H15    H     0.75850   0.95220   0.01950   0.01267  Uiso   1.00
H16    H     0.68370   0.93150   0.09580   0.01267  Uiso   1.00
H17    H     0.32630   0.06930   0.23620   0.01267  Uiso   1.00
H18    H     0.43080   0.98140   0.14700   0.01267  Uiso   1.00
H19    H     0.54370   0.22050   0.04630   0.01267  Uiso   1.00
H20    H     0.43490   0.30090   0.14040   0.01267  Uiso   1.00
H21    H     0.90860   0.10630   0.01810   0.01267  Uiso   1.00
H22    H     0.07540   0.20770   0.09460   0.01267  Uiso   1.00
H23    H     0.96160   0.11160   0.29340   0.01267  Uiso   1.00
H24    H     0.79000   0.00710   0.21960   0.01267  Uiso   1.00
H25    H     0.55380   0.85650   0.44930   0.01267  Uiso   1.00
H26    H     0.09050   0.42300   0.48290   0.01267  Uiso   1.00
H27    H     0.25850   0.54780   0.51950   0.01267  Uiso   1.00
H28    H     0.18370   0.56850   0.59580   0.01267  Uiso   1.00
H29    H     0.82630   0.43070   0.73620   0.01267  Uiso   1.00
H30    H     0.93080   0.51860   0.64700   0.01267  Uiso   1.00
H31    H     0.04370   0.27950   0.54630   0.01267  Uiso   1.00
H32    H     0.93490   0.19910   0.64040   0.01267  Uiso   1.00
H33    H     0.40860   0.39370   0.51810   0.01267  Uiso   1.00
H34    H     0.57540   0.29230   0.59460   0.01267  Uiso   1.00
H35    H     0.46160   0.38840   0.79340   0.01267  Uiso   1.00
H36    H     0.29000   0.49290   0.71960   0.01267  Uiso   1.00
H37    H     0.94620   0.35650   0.05070   0.01267  Uiso   1.00
H38    H     0.40950   0.92300   0.01710   0.01267  Uiso   1.00
H39    H     0.24150   0.04780   0.98050   0.01267  Uiso   1.00
H40    H     0.31630   0.06850   0.90420   0.01267  Uiso   1.00
H41    H     0.67370   0.93070   0.76380   0.01267  Uiso   1.00
H42    H     0.56920   0.01860   0.85300   0.01267  Uiso   1.00
H43    H     0.45630   0.77950   0.95370   0.01267  Uiso   1.00
H44    H     0.56510   0.69910   0.85960   0.01267  Uiso   1.00
H45    H     0.09140   0.89370   0.98190   0.01267  Uiso   1.00
H46    H     0.92460   0.79230   0.90540   0.01267  Uiso   1.00
H47    H     0.03840   0.88840   0.70660   0.01267  Uiso   1.00
H48    H     0.21000   0.99290   0.78040   0.01267  Uiso   1.00
C1     C     0.26380   0.12490   0.41388   0.01267  Uiso   1.00
C2     C     0.37990   0.05560   0.45798   0.01267  Uiso   1.00
C3     C     0.58990   0.03200   0.57238   0.01267  Uiso   1.00
C4     C     0.68560   0.07300   0.64812   0.01267  Uiso   1.00
C5     C     0.46860   0.08560   0.52999   0.01267  Uiso   1.00
C6     C     0.93870   0.53320   0.47750   0.01267  Uiso   1.00
C7     C     0.78890   0.48110   0.43862   0.01267  Uiso   1.00
C8     C     0.13110   0.60030   0.30344   0.01267  Uiso   1.00
C9     C     0.06840   0.54660   0.35671   0.01267  Uiso   1.00
C10    C     0.00370   0.59050   0.41635   0.01267  Uiso   1.00
C11    C     0.00170   0.68770   0.41608   0.01267  Uiso   1.00
C12    C     0.06800   0.73560   0.35917   0.01267  Uiso   1.00
C13    C     0.67240   0.54540   0.38985   0.01267  Uiso   1.00
C14    C     0.58340   0.60605   0.42622   0.01267  Uiso   1.00
C15    C     0.48230   0.66648   0.37945   0.01267  Uiso   1.00
C16    C     0.54830   0.61060   0.26230   0.01267  Uiso   1.00
C17    C     0.65260   0.54793   0.30695   0.01267  Uiso   1.00
C18    C     0.23620   0.62490   0.08612   0.01267  Uiso   1.00
C19    C     0.12010   0.55560   0.04202   0.01267  Uiso   1.00
C20    C     0.91010   0.53200   0.92762   0.01267  Uiso   1.00
C21    C     0.81440   0.57300   0.85188   0.01267  Uiso   1.00
C22    C     0.03140   0.58560   0.97001   0.01267  Uiso   1.00
C23    C     0.56130   0.03320   0.02250   0.01267  Uiso   1.00
C24    C     0.71110   0.98110   0.06138   0.01267  Uiso   1.00
C25    C     0.36890   0.10030   0.19656   0.01267  Uiso   1.00
C26    C     0.43160   0.04660   0.14329   0.01267  Uiso   1.00
C27    C     0.49630   0.09050   0.08365   0.01267  Uiso   1.00
C28    C     0.49830   0.18770   0.08392   0.01267  Uiso   1.00
C29    C     0.43200   0.23560   0.14083   0.01267  Uiso   1.00
C30    C     0.82760   0.04540   0.11015   0.01267  Uiso   1.00
C31    C     0.91660   0.10605   0.07378   0.01267  Uiso   1.00
C32    C     0.01770   0.16648   0.12055   0.01267  Uiso   1.00
C33    C     0.95170   0.11060   0.23770   0.01267  Uiso   1.00
C34    C     0.84740   0.04793   0.19305   0.01267  Uiso   1.00
C35    C     0.73620   0.87510   0.58612   0.01267  Uiso   1.00
C36    C     0.62010   0.94440   0.54202   0.01267  Uiso   1.00
C37    C     0.41010   0.96800   0.42762   0.01267  Uiso   1.00
C38    C     0.31440   0.92700   0.35188   0.01267  Uiso   1.00
C39    C     0.53140   0.91440   0.47001   0.01267  Uiso   1.00
C40    C     0.06130   0.46680   0.52250   0.01267  Uiso   1.00
C41    C     0.21110   0.51890   0.56138   0.01267  Uiso   1.00
C42    C     0.86890   0.39970   0.69656   0.01267  Uiso   1.00
C43    C     0.93160   0.45340   0.64329   0.01267  Uiso   1.00
C44    C     0.99630   0.40950   0.58365   0.01267  Uiso   1.00
C45    C     0.99830   0.31230   0.58392   0.01267  Uiso   1.00
C46    C     0.93200   0.26440   0.64083   0.01267  Uiso   1.00
C47    C     0.32760   0.45460   0.61015   0.01267  Uiso   1.00
C48    C     0.41660   0.39395   0.57378   0.01267  Uiso   1.00
C49    C     0.51770   0.33352   0.62055   0.01267  Uiso   1.00
C50    C     0.45170   0.38940   0.73770   0.01267  Uiso   1.00
C51    C     0.34740   0.45207   0.69305   0.01267  Uiso   1.00
C52    C     0.76380   0.37510   0.91388   0.01267  Uiso   1.00
C53    C     0.87990   0.44440   0.95798   0.01267  Uiso   1.00
C54    C     0.08990   0.46800   0.07238   0.01267  Uiso   1.00
C55    C     0.18560   0.42700   0.14812   0.01267  Uiso   1.00
C56    C     0.96860   0.41440   0.02999   0.01267  Uiso   1.00
C57    C     0.43870   0.96680   0.97750   0.01267  Uiso   1.00
C58    C     0.28890   0.01890   0.93862   0.01267  Uiso   1.00
C59    C     0.63110   0.89970   0.80344   0.01267  Uiso   1.00
C60    C     0.56840   0.95340   0.85671   0.01267  Uiso   1.00
C61    C     0.50370   0.90950   0.91635   0.01267  Uiso   1.00
C62    C     0.50170   0.81230   0.91608   0.01267  Uiso   1.00
C63    C     0.56800   0.76440   0.85917   0.01267  Uiso   1.00
C64    C     0.17240   0.95460   0.88985   0.01267  Uiso   1.00
C65    C     0.08340   0.89395   0.92622   0.01267  Uiso   1.00
C66    C     0.98230   0.83352   0.87945   0.01267  Uiso   1.00
C67    C     0.04830   0.88940   0.76230   0.01267  Uiso   1.00
C68    C     0.15260   0.95207   0.80695   0.01267  Uiso   1.00
N1     N     0.13580   0.69335   0.30382   0.01267  Uiso   1.00
N2     N     0.46160   0.66973   0.29886   0.01267  Uiso   1.00
N3     N     0.36420   0.19335   0.19618   0.01267  Uiso   1.00
N4     N     0.03840   0.16973   0.20114   0.01267  Uiso   1.00
N5     N     0.86420   0.30665   0.69618   0.01267  Uiso   1.00
N6     N     0.53840   0.33027   0.70114   0.01267  Uiso   1.00
N7     N     0.63580   0.80665   0.80382   0.01267  Uiso   1.00
N8     N     0.96160   0.83027   0.79886   0.01267  Uiso   1.00
O1     O     0.30590   0.16228   0.35402   0.01267  Uiso   1.00
O2     O     0.14310   0.14588   0.44206   0.01267  Uiso   1.00
O3     O     0.82060   0.04230   0.66926   0.01267  Uiso   1.00
O4     O     0.62160   0.13614   0.68266   0.01267  Uiso   1.00
O5     O     0.19410   0.66228   0.14598   0.01267  Uiso   1.00
O6     O     0.35690   0.64588   0.05794   0.01267  Uiso   1.00
O7     O     0.67940   0.54230   0.83074   0.01267  Uiso   1.00
O8     O     0.87840   0.63614   0.81734   0.01267  Uiso   1.00
O9     O     0.69410   0.83772   0.64598   0.01267  Uiso   1.00
O10    O     0.85690   0.85412   0.55794   0.01267  Uiso   1.00
O11    O     0.17940   0.95770   0.33074   0.01267  Uiso   1.00
O12    O     0.37840   0.86386   0.31734   0.01267  Uiso   1.00
O13    O     0.80590   0.33772   0.85402   0.01267  Uiso   1.00
O14    O     0.64310   0.35412   0.94206   0.01267  Uiso   1.00
O15    O     0.32060   0.45770   0.16926   0.01267  Uiso   1.00
O16    O     0.12160   0.36386   0.18266   0.01267  Uiso   1.00
