data_image0
_cell_length_a       11.755
_cell_length_b       11.755
_cell_length_c       11.752
_cell_angle_alpha    90
_cell_angle_beta     90
_cell_angle_gamma    120

_symmetry_space_group_name_H-M    "P 1"
_symmetry_int_tables_number       1

loop_
  _symmetry_equiv_pos_as_xyz
  'x, y, z'

loop_
  _atom_site_label
  _atom_site_occupancy
  _atom_site_fract_x
  _atom_site_fract_y
  _atom_site_fract_z
  _atom_site_thermal_displace_type
  _atom_site_B_iso_or_equiv
  _atom_site_type_symbol
  O1       1.0000 0.49860  0.64120  0.04330  Biso   1.000  O
  O2       1.0000 0.50700  0.57260  0.86870  Biso   1.000  O
  C1       1.0000 0.50260  0.56210  0.97480  Biso   1.000  C
  O3       1.0000 0.35880  0.85740  0.04330  Biso   1.000  O
  O4       1.0000 0.42740  0.93440  0.86870  Biso   1.000  O
  C2       1.0000 0.43790  0.94050  0.97480  Biso   1.000  C
  O5       1.0000 0.14260  0.50140  0.04330  Biso   1.000  O
  O6       1.0000 0.06560  0.49300  0.86870  Biso   1.000  O
  C3       1.0000 0.05950  0.49740  0.97480  Biso   1.000  C
  O7       1.0000 0.50140  0.35880  0.54330  Biso   1.000  O
  O8       1.0000 0.49300  0.42740  0.36870  Biso   1.000  O
  C4       1.0000 0.49740  0.43790  0.47480  Biso   1.000  C
  O9       1.0000 0.64120  0.14260  0.54330  Biso   1.000  O
  O10      1.0000 0.57260  0.06560  0.36870  Biso   1.000  O
  C5       1.0000 0.56210  0.05950  0.47480  Biso   1.000  C
  O11      1.0000 0.85740  0.49860  0.54330  Biso   1.000  O
  O12      1.0000 0.93440  0.50700  0.36870  Biso   1.000  O
  C6       1.0000 0.94050  0.50260  0.47480  Biso   1.000  C
  O13      1.0000 0.50140  0.35880  0.95670  Biso   1.000  O
  O14      1.0000 0.49300  0.42740  0.13130  Biso   1.000  O
  C7       1.0000 0.49740  0.43790  0.02520  Biso   1.000  C
  O15      1.0000 0.64120  0.14260  0.95670  Biso   1.000  O
  O16      1.0000 0.57260  0.06560  0.13130  Biso   1.000  O
  C8       1.0000 0.56210  0.05950  0.02520  Biso   1.000  C
  O17      1.0000 0.85740  0.49860  0.95670  Biso   1.000  O
  O18      1.0000 0.93440  0.50700  0.13130  Biso   1.000  O
  C9       1.0000 0.94050  0.50260  0.02520  Biso   1.000  C
  O19      1.0000 0.49860  0.64120  0.45670  Biso   1.000  O
  O20      1.0000 0.50700  0.57260  0.63130  Biso   1.000  O
  C10      1.0000 0.50260  0.56210  0.52520  Biso   1.000  C
  O21      1.0000 0.35880  0.85740  0.45670  Biso   1.000  O
  O22      1.0000 0.42740  0.93440  0.63130  Biso   1.000  O
  C11      1.0000 0.43790  0.94050  0.52520  Biso   1.000  C
  O23      1.0000 0.14260  0.50140  0.45670  Biso   1.000  O
  O24      1.0000 0.06560  0.49300  0.63130  Biso   1.000  O
  C12      1.0000 0.05950  0.49740  0.52520  Biso   1.000  C
  Np1      1.0000 0.49405  0.60138  0.25000  Biso   1.000  Np
  O25      1.0000 0.31030  0.50550  0.25000  Biso   1.000  O
  Np2      1.0000 0.39862  0.89267  0.25000  Biso   1.000  Np
  O26      1.0000 0.49450  0.80480  0.25000  Biso   1.000  O
  Np3      1.0000 0.10733  0.50595  0.25000  Biso   1.000  Np
  O27      1.0000 0.19520  0.68970  0.25000  Biso   1.000  O
  Np4      1.0000 0.50595  0.39862  0.75000  Biso   1.000  Np
  O28      1.0000 0.68970  0.49450  0.75000  Biso   1.000  O
  Np5      1.0000 0.60138  0.10733  0.75000  Biso   1.000  Np
  O29      1.0000 0.50550  0.19520  0.75000  Biso   1.000  O
  Np6      1.0000 0.89267  0.49405  0.75000  Biso   1.000  Np
  O30      1.0000 0.80480  0.31030  0.75000  Biso   1.000  O
  Cs1      1.0000 0.66667  0.33333  0.25000  Biso   1.000  Cs
  Cs2      1.0000 0.33333  0.66667  0.75000  Biso   1.000  Cs
