data_image0
_cell_length_a       18.707
_cell_length_b       10.182
_cell_length_c       20.353
_cell_angle_alpha    90
_cell_angle_beta     90
_cell_angle_gamma    90

_symmetry_space_group_name_H-M    "P 1"
_symmetry_int_tables_number       1

loop_
  _symmetry_equiv_pos_as_xyz
  'x, y, z'

loop_
  _atom_site_label
  _atom_site_occupancy
  _atom_site_fract_x
  _atom_site_fract_y
  _atom_site_fract_z
  _atom_site_thermal_displace_type
  _atom_site_B_iso_or_equiv
  _atom_site_type_symbol
  C1       1.0000 0.57841  0.62240  0.43932  Biso   1.000  C
  C2       1.0000 0.61453  0.74040  0.41151  Biso   1.000  C
  C3       1.0000 0.58594  0.86450  0.42217  Biso   1.000  C
  H1       1.0000 0.54610  0.87430  0.44900  Biso   1.000  H
  C4       1.0000 0.61630  0.97270  0.39322  Biso   1.000  C
  C5       1.0000 0.67682  0.95990  0.35374  Biso   1.000  C
  H2       1.0000 0.69750  0.03370  0.33460  Biso   1.000  H
  C6       1.0000 0.70610  0.83580  0.34317  Biso   1.000  C
  C7       1.0000 0.67462  0.72630  0.37109  Biso   1.000  C
  H3       1.0000 0.69340  0.64320  0.36300  Biso   1.000  H
  C8       1.0000 0.58766  0.10810  0.40525  Biso   1.000  C
  C9       1.0000 0.77333  0.88850  0.24599  Biso   1.000  C
  C10      1.0000 0.91571  0.96270  0.12178  Biso   1.000  C
  H4       1.0000 0.92410  0.02720  0.09040  Biso   1.000  H
  C11      1.0000 0.85544  0.97030  0.16169  Biso   1.000  C
  H5       1.0000 0.82340  0.03930  0.15650  Biso   1.000  H
  C12      1.0000 0.84305  0.87560  0.20905  Biso   1.000  C
  C13      1.0000 0.89126  0.77200  0.21630  Biso   1.000  C
  H6       1.0000 0.88360  0.70780  0.24800  Biso   1.000  H
  C14      1.0000 0.95082  0.76570  0.17576  Biso   1.000  C
  H7       1.0000 0.98300  0.69670  0.18050  Biso   1.000  H
  N1       1.0000 0.76784  0.82270  0.30326  Biso   1.000  N
  H8       1.0000 0.80210  0.77230  0.31570  Biso   1.000  H
  N2       1.0000 0.96302  0.86000  0.12865  Biso   1.000  N
  Ni1      1.0000 0.45082  0.66328  0.55143  Biso   1.000  Ni
  O1       1.0000 0.60166  0.51163  0.42456  Biso   1.000  O
  O2       1.0000 0.52552  0.63889  0.47548  Biso   1.000  O
  O3       1.0000 0.53322  0.11926  0.44064  Biso   1.000  O
  O4       1.0000 0.61750  0.20601  0.38105  Biso   1.000  O
  O5       1.0000 0.72645  0.95470  0.22332  Biso   1.000  O
  C15      1.0000 0.42159  0.37760  0.56068  Biso   1.000  C
  C16      1.0000 0.38547  0.25960  0.58849  Biso   1.000  C
  C17      1.0000 0.41406  0.13550  0.57783  Biso   1.000  C
  H9       1.0000 0.45390  0.12570  0.55100  Biso   1.000  H
  C18      1.0000 0.38370  0.02730  0.60678  Biso   1.000  C
  C19      1.0000 0.32318  0.04010  0.64626  Biso   1.000  C
  H10      1.0000 0.30250  0.96630  0.66540  Biso   1.000  H
  C20      1.0000 0.29390  0.16420  0.65683  Biso   1.000  C
  C21      1.0000 0.32538  0.27370  0.62891  Biso   1.000  C
  H11      1.0000 0.30660  0.35680  0.63700  Biso   1.000  H
  C22      1.0000 0.41234  0.89190  0.59475  Biso   1.000  C
  C23      1.0000 0.22667  0.11150  0.75401  Biso   1.000  C
  C24      1.0000 0.08429  0.03730  0.87822  Biso   1.000  C
  H12      1.0000 0.07590  0.97280  0.90960  Biso   1.000  H
  C25      1.0000 0.14456  0.02970  0.83831  Biso   1.000  C
  H13      1.0000 0.17660  0.96070  0.84350  Biso   1.000  H
  C26      1.0000 0.15695  0.12440  0.79095  Biso   1.000  C
  C27      1.0000 0.10874  0.22800  0.78370  Biso   1.000  C
  H14      1.0000 0.11640  0.29220  0.75200  Biso   1.000  H
  C28      1.0000 0.04918  0.23430  0.82424  Biso   1.000  C
  H15      1.0000 0.01700  0.30330  0.81950  Biso   1.000  H
  N3       1.0000 0.23216  0.17730  0.69674  Biso   1.000  N
  H16      1.0000 0.19790  0.22770  0.68430  Biso   1.000  H
  N4       1.0000 0.03698  0.14000  0.87135  Biso   1.000  N
  Ni2      1.0000 0.54918  0.33672  0.44857  Biso   1.000  Ni
  O6       1.0000 0.39834  0.48837  0.57544  Biso   1.000  O
  O7       1.0000 0.47448  0.36111  0.52452  Biso   1.000  O
  O8       1.0000 0.46678  0.88074  0.55936  Biso   1.000  O
  O9       1.0000 0.38250  0.79399  0.61895  Biso   1.000  O
  O10      1.0000 0.27355  0.04530  0.77668  Biso   1.000  O
  C29      1.0000 0.92159  0.87760  0.93932  Biso   1.000  C
  C30      1.0000 0.88547  0.75960  0.91151  Biso   1.000  C
  C31      1.0000 0.91406  0.63550  0.92217  Biso   1.000  C
  H17      1.0000 0.95390  0.62570  0.94900  Biso   1.000  H
  C32      1.0000 0.88370  0.52730  0.89322  Biso   1.000  C
  C33      1.0000 0.82318  0.54010  0.85374  Biso   1.000  C
  H18      1.0000 0.80250  0.46630  0.83460  Biso   1.000  H
  C34      1.0000 0.79390  0.66420  0.84317  Biso   1.000  C
  C35      1.0000 0.82538  0.77370  0.87109  Biso   1.000  C
  H19      1.0000 0.80660  0.85680  0.86300  Biso   1.000  H
  C36      1.0000 0.91234  0.39190  0.90525  Biso   1.000  C
  C37      1.0000 0.72667  0.61150  0.74599  Biso   1.000  C
  C38      1.0000 0.58429  0.53730  0.62178  Biso   1.000  C
  H20      1.0000 0.57590  0.47280  0.59040  Biso   1.000  H
  C39      1.0000 0.64456  0.52970  0.66169  Biso   1.000  C
  H21      1.0000 0.67660  0.46070  0.65650  Biso   1.000  H
  C40      1.0000 0.65695  0.62440  0.70905  Biso   1.000  C
  C41      1.0000 0.60874  0.72800  0.71630  Biso   1.000  C
  H22      1.0000 0.61640  0.79220  0.74800  Biso   1.000  H
  C42      1.0000 0.54918  0.73430  0.67576  Biso   1.000  C
  H23      1.0000 0.51700  0.80330  0.68050  Biso   1.000  H
  N5       1.0000 0.73216  0.67730  0.80326  Biso   1.000  N
  H24      1.0000 0.69790  0.72770  0.81570  Biso   1.000  H
  N6       1.0000 0.53698  0.64000  0.62865  Biso   1.000  N
  Ni3      1.0000 0.04918  0.83672  0.05143  Biso   1.000  Ni
  O11      1.0000 0.89834  0.98837  0.92456  Biso   1.000  O
  O12      1.0000 0.97448  0.86111  0.97548  Biso   1.000  O
  O13      1.0000 0.96678  0.38074  0.94064  Biso   1.000  O
  O14      1.0000 0.88250  0.29399  0.88105  Biso   1.000  O
  O15      1.0000 0.77355  0.54530  0.72332  Biso   1.000  O
  C43      1.0000 0.07841  0.12240  0.06068  Biso   1.000  C
  C44      1.0000 0.11453  0.24040  0.08849  Biso   1.000  C
  C45      1.0000 0.08594  0.36450  0.07783  Biso   1.000  C
  H25      1.0000 0.04610  0.37430  0.05100  Biso   1.000  H
  C46      1.0000 0.11630  0.47270  0.10678  Biso   1.000  C
  C47      1.0000 0.17682  0.45990  0.14626  Biso   1.000  C
  H26      1.0000 0.19750  0.53370  0.16540  Biso   1.000  H
  C48      1.0000 0.20610  0.33580  0.15683  Biso   1.000  C
  C49      1.0000 0.17462  0.22630  0.12891  Biso   1.000  C
  H27      1.0000 0.19340  0.14320  0.13700  Biso   1.000  H
  C50      1.0000 0.08766  0.60810  0.09475  Biso   1.000  C
  C51      1.0000 0.27333  0.38850  0.25401  Biso   1.000  C
  C52      1.0000 0.41571  0.46270  0.37822  Biso   1.000  C
  H28      1.0000 0.42410  0.52720  0.40960  Biso   1.000  H
  C53      1.0000 0.35544  0.47030  0.33831  Biso   1.000  C
  H29      1.0000 0.32340  0.53930  0.34350  Biso   1.000  H
  C54      1.0000 0.34305  0.37560  0.29095  Biso   1.000  C
  C55      1.0000 0.39126  0.27200  0.28370  Biso   1.000  C
  H30      1.0000 0.38360  0.20780  0.25200  Biso   1.000  H
  C56      1.0000 0.45082  0.26570  0.32424  Biso   1.000  C
  H31      1.0000 0.48300  0.19670  0.31950  Biso   1.000  H
  N7       1.0000 0.26784  0.32270  0.19674  Biso   1.000  N
  H32      1.0000 0.30210  0.27230  0.18430  Biso   1.000  H
  N8       1.0000 0.46302  0.36000  0.37135  Biso   1.000  N
  Ni4      1.0000 0.95082  0.16328  0.94857  Biso   1.000  Ni
  O16      1.0000 0.10166  0.01163  0.07544  Biso   1.000  O
  O17      1.0000 0.02552  0.13889  0.02452  Biso   1.000  O
  O18      1.0000 0.03322  0.61926  0.05936  Biso   1.000  O
  O19      1.0000 0.11750  0.70601  0.11895  Biso   1.000  O
  O20      1.0000 0.22645  0.45470  0.27668  Biso   1.000  O
  C57      1.0000 0.42159  0.62240  0.06068  Biso   1.000  C
  C58      1.0000 0.38547  0.74040  0.08849  Biso   1.000  C
  C59      1.0000 0.41406  0.86450  0.07783  Biso   1.000  C
  H33      1.0000 0.45390  0.87430  0.05100  Biso   1.000  H
  C60      1.0000 0.38370  0.97270  0.10678  Biso   1.000  C
  C61      1.0000 0.32318  0.95990  0.14626  Biso   1.000  C
  H34      1.0000 0.30250  0.03370  0.16540  Biso   1.000  H
  C62      1.0000 0.29390  0.83580  0.15683  Biso   1.000  C
  C63      1.0000 0.32538  0.72630  0.12891  Biso   1.000  C
  H35      1.0000 0.30660  0.64320  0.13700  Biso   1.000  H
  C64      1.0000 0.41234  0.10810  0.09475  Biso   1.000  C
  C65      1.0000 0.22667  0.88850  0.25401  Biso   1.000  C
  C66      1.0000 0.08429  0.96270  0.37822  Biso   1.000  C
  H36      1.0000 0.07590  0.02720  0.40960  Biso   1.000  H
  C67      1.0000 0.14456  0.97030  0.33831  Biso   1.000  C
  H37      1.0000 0.17660  0.03930  0.34350  Biso   1.000  H
  C68      1.0000 0.15695  0.87560  0.29095  Biso   1.000  C
  C69      1.0000 0.10874  0.77200  0.28370  Biso   1.000  C
  H38      1.0000 0.11640  0.70780  0.25200  Biso   1.000  H
  C70      1.0000 0.04918  0.76570  0.32424  Biso   1.000  C
  H39      1.0000 0.01700  0.69670  0.31950  Biso   1.000  H
  N9       1.0000 0.23216  0.82270  0.19674  Biso   1.000  N
  H40      1.0000 0.19790  0.77230  0.18430  Biso   1.000  H
  N10      1.0000 0.03698  0.86000  0.37135  Biso   1.000  N
  Ni5      1.0000 0.54918  0.66328  0.94857  Biso   1.000  Ni
  O21      1.0000 0.39834  0.51163  0.07544  Biso   1.000  O
  O22      1.0000 0.47448  0.63889  0.02452  Biso   1.000  O
  O23      1.0000 0.46678  0.11926  0.05936  Biso   1.000  O
  O24      1.0000 0.38250  0.20601  0.11895  Biso   1.000  O
  O25      1.0000 0.27355  0.95470  0.27668  Biso   1.000  O
  C71      1.0000 0.57841  0.37760  0.93932  Biso   1.000  C
  C72      1.0000 0.61453  0.25960  0.91151  Biso   1.000  C
  C73      1.0000 0.58594  0.13550  0.92217  Biso   1.000  C
  H41      1.0000 0.54610  0.12570  0.94900  Biso   1.000  H
  C74      1.0000 0.61630  0.02730  0.89322  Biso   1.000  C
  C75      1.0000 0.67682  0.04010  0.85374  Biso   1.000  C
  H42      1.0000 0.69750  0.96630  0.83460  Biso   1.000  H
  C76      1.0000 0.70610  0.16420  0.84317  Biso   1.000  C
  C77      1.0000 0.67462  0.27370  0.87109  Biso   1.000  C
  H43      1.0000 0.69340  0.35680  0.86300  Biso   1.000  H
  C78      1.0000 0.58766  0.89190  0.90525  Biso   1.000  C
  C79      1.0000 0.77333  0.11150  0.74599  Biso   1.000  C
  C80      1.0000 0.91571  0.03730  0.62178  Biso   1.000  C
  H44      1.0000 0.92410  0.97280  0.59040  Biso   1.000  H
  C81      1.0000 0.85544  0.02970  0.66169  Biso   1.000  C
  H45      1.0000 0.82340  0.96070  0.65650  Biso   1.000  H
  C82      1.0000 0.84305  0.12440  0.70905  Biso   1.000  C
  C83      1.0000 0.89126  0.22800  0.71630  Biso   1.000  C
  H46      1.0000 0.88360  0.29220  0.74800  Biso   1.000  H
  C84      1.0000 0.95082  0.23430  0.67576  Biso   1.000  C
  H47      1.0000 0.98300  0.30330  0.68050  Biso   1.000  H
  N11      1.0000 0.76784  0.17730  0.80326  Biso   1.000  N
  H48      1.0000 0.80210  0.22770  0.81570  Biso   1.000  H
  N12      1.0000 0.96302  0.14000  0.62865  Biso   1.000  N
  Ni6      1.0000 0.45082  0.33672  0.05143  Biso   1.000  Ni
  O26      1.0000 0.60166  0.48837  0.92456  Biso   1.000  O
  O27      1.0000 0.52552  0.36111  0.97548  Biso   1.000  O
  O28      1.0000 0.53322  0.88074  0.94064  Biso   1.000  O
  O29      1.0000 0.61750  0.79399  0.88105  Biso   1.000  O
  O30      1.0000 0.72645  0.04530  0.72332  Biso   1.000  O
  C85      1.0000 0.07841  0.87760  0.56068  Biso   1.000  C
  C86      1.0000 0.11453  0.75960  0.58849  Biso   1.000  C
  C87      1.0000 0.08594  0.63550  0.57783  Biso   1.000  C
  H49      1.0000 0.04610  0.62570  0.55100  Biso   1.000  H
  C88      1.0000 0.11630  0.52730  0.60678  Biso   1.000  C
  C89      1.0000 0.17682  0.54010  0.64626  Biso   1.000  C
  H50      1.0000 0.19750  0.46630  0.66540  Biso   1.000  H
  C90      1.0000 0.20610  0.66420  0.65683  Biso   1.000  C
  C91      1.0000 0.17462  0.77370  0.62891  Biso   1.000  C
  H51      1.0000 0.19340  0.85680  0.63700  Biso   1.000  H
  C92      1.0000 0.08766  0.39190  0.59475  Biso   1.000  C
  C93      1.0000 0.27333  0.61150  0.75401  Biso   1.000  C
  C94      1.0000 0.41571  0.53730  0.87822  Biso   1.000  C
  H52      1.0000 0.42410  0.47280  0.90960  Biso   1.000  H
  C95      1.0000 0.35544  0.52970  0.83831  Biso   1.000  C
  H53      1.0000 0.32340  0.46070  0.84350  Biso   1.000  H
  C96      1.0000 0.34305  0.62440  0.79095  Biso   1.000  C
  C97      1.0000 0.39126  0.72800  0.78370  Biso   1.000  C
  H54      1.0000 0.38360  0.79220  0.75200  Biso   1.000  H
  C98      1.0000 0.45082  0.73430  0.82424  Biso   1.000  C
  H55      1.0000 0.48300  0.80330  0.81950  Biso   1.000  H
  N13      1.0000 0.26784  0.67730  0.69674  Biso   1.000  N
  H56      1.0000 0.30210  0.72770  0.68430  Biso   1.000  H
  N14      1.0000 0.46302  0.64000  0.87135  Biso   1.000  N
  Ni7      1.0000 0.95082  0.83672  0.44857  Biso   1.000  Ni
  O31      1.0000 0.10166  0.98837  0.57544  Biso   1.000  O
  O32      1.0000 0.02552  0.86111  0.52452  Biso   1.000  O
  O33      1.0000 0.03322  0.38074  0.55936  Biso   1.000  O
  O34      1.0000 0.11750  0.29399  0.61895  Biso   1.000  O
  O35      1.0000 0.22645  0.54530  0.77668  Biso   1.000  O
  C99      1.0000 0.92159  0.12240  0.43932  Biso   1.000  C
  C100     1.0000 0.88547  0.24040  0.41151  Biso   1.000  C
  C101     1.0000 0.91406  0.36450  0.42217  Biso   1.000  C
  H57      1.0000 0.95390  0.37430  0.44900  Biso   1.000  H
  C102     1.0000 0.88370  0.47270  0.39322  Biso   1.000  C
  C103     1.0000 0.82318  0.45990  0.35374  Biso   1.000  C
  H58      1.0000 0.80250  0.53370  0.33460  Biso   1.000  H
  C104     1.0000 0.79390  0.33580  0.34317  Biso   1.000  C
  C105     1.0000 0.82538  0.22630  0.37109  Biso   1.000  C
  H59      1.0000 0.80660  0.14320  0.36300  Biso   1.000  H
  C106     1.0000 0.91234  0.60810  0.40525  Biso   1.000  C
  C107     1.0000 0.72667  0.38850  0.24599  Biso   1.000  C
  C108     1.0000 0.58429  0.46270  0.12178  Biso   1.000  C
  H60      1.0000 0.57590  0.52720  0.09040  Biso   1.000  H
  C109     1.0000 0.64456  0.47030  0.16169  Biso   1.000  C
  H61      1.0000 0.67660  0.53930  0.15650  Biso   1.000  H
  C110     1.0000 0.65695  0.37560  0.20905  Biso   1.000  C
  C111     1.0000 0.60874  0.27200  0.21630  Biso   1.000  C
  H62      1.0000 0.61640  0.20780  0.24800  Biso   1.000  H
  C112     1.0000 0.54918  0.26570  0.17576  Biso   1.000  C
  H63      1.0000 0.51700  0.19670  0.18050  Biso   1.000  H
  N15      1.0000 0.73216  0.32270  0.30326  Biso   1.000  N
  H64      1.0000 0.69790  0.27230  0.31570  Biso   1.000  H
  N16      1.0000 0.53698  0.36000  0.12865  Biso   1.000  N
  Ni8      1.0000 0.04918  0.16328  0.55143  Biso   1.000  Ni
  O36      1.0000 0.89834  0.01163  0.42456  Biso   1.000  O
  O37      1.0000 0.97448  0.13889  0.47548  Biso   1.000  O
  O38      1.0000 0.96678  0.61926  0.44064  Biso   1.000  O
  O39      1.0000 0.88250  0.70601  0.38105  Biso   1.000  O
  O40      1.0000 0.77355  0.45470  0.22332  Biso   1.000  O
