data_image0
_cell_length_a       5.9778
_cell_length_b       16.6747
_cell_length_c       8.466
_cell_angle_alpha    90
_cell_angle_beta     90.384
_cell_angle_gamma    90

_symmetry_space_group_name_H-M    "P 1"
_symmetry_int_tables_number       1

loop_
  _symmetry_equiv_pos_as_xyz
  'x, y, z'

loop_
  _atom_site_label
  _atom_site_occupancy
  _atom_site_fract_x
  _atom_site_fract_y
  _atom_site_fract_z
  _atom_site_thermal_displace_type
  _atom_site_B_iso_or_equiv
  _atom_site_type_symbol
  Mn1      1.0000 0.51530  0.17646  0.50446  Biso   1.000  Mn
  P1       1.0000 0.00710  0.24515  0.37750  Biso   1.000  P
  O1       1.0000 0.82340  0.24400  0.50080  Biso   1.000  O
  O2       1.0000 0.72370  0.06490  0.53820  Biso   1.000  O
  O3       1.0000 0.71930  0.93090  0.51500  Biso   1.000  O
  O4       1.0000 0.00480  0.16050  0.28740  Biso   1.000  O
  O5       1.0000 0.23730  0.25570  0.45070  Biso   1.000  O
  O6       1.0000 0.95850  0.30680  0.25020  Biso   1.000  O
  C1       1.0000 0.62880  0.99900  0.51600  Biso   1.000  C
  H1       1.0000 0.04000  0.12700  0.33300  Biso   1.000  H
  Mn2      1.0000 0.98470  0.67646  0.99554  Biso   1.000  Mn
  P2       1.0000 0.49290  0.74515  0.12250  Biso   1.000  P
  O7       1.0000 0.67660  0.74400  0.99920  Biso   1.000  O
  O8       1.0000 0.77630  0.56490  0.96180  Biso   1.000  O
  O9       1.0000 0.78070  0.43090  0.98500  Biso   1.000  O
  O10      1.0000 0.49520  0.66050  0.21260  Biso   1.000  O
  O11      1.0000 0.26270  0.75570  0.04930  Biso   1.000  O
  O12      1.0000 0.54150  0.80680  0.24980  Biso   1.000  O
  C2       1.0000 0.87120  0.49900  0.98400  Biso   1.000  C
  H2       1.0000 0.46000  0.62700  0.16700  Biso   1.000  H
  Mn3      1.0000 0.48470  0.82354  0.49554  Biso   1.000  Mn
  P3       1.0000 0.99290  0.75485  0.62250  Biso   1.000  P
  O13      1.0000 0.17660  0.75600  0.49920  Biso   1.000  O
  O14      1.0000 0.27630  0.93510  0.46180  Biso   1.000  O
  O15      1.0000 0.28070  0.06910  0.48500  Biso   1.000  O
  O16      1.0000 0.99520  0.83950  0.71260  Biso   1.000  O
  O17      1.0000 0.76270  0.74430  0.54930  Biso   1.000  O
  O18      1.0000 0.04150  0.69320  0.74980  Biso   1.000  O
  C3       1.0000 0.37120  0.00100  0.48400  Biso   1.000  C
  H3       1.0000 0.96000  0.87300  0.66700  Biso   1.000  H
  Mn4      1.0000 0.01530  0.32354  0.00446  Biso   1.000  Mn
  P4       1.0000 0.50710  0.25485  0.87750  Biso   1.000  P
  O19      1.0000 0.32340  0.25600  0.00080  Biso   1.000  O
  O20      1.0000 0.22370  0.43510  0.03820  Biso   1.000  O
  O21      1.0000 0.21930  0.56910  0.01500  Biso   1.000  O
  O22      1.0000 0.50480  0.33950  0.78740  Biso   1.000  O
  O23      1.0000 0.73730  0.24430  0.95070  Biso   1.000  O
  O24      1.0000 0.45850  0.19320  0.75020  Biso   1.000  O
  C4       1.0000 0.12880  0.50100  0.01600  Biso   1.000  C
  H4       1.0000 0.54000  0.37300  0.83300  Biso   1.000  H
