data_VIRPOC_clean
_audit_creation_date              2014-07-02
_audit_creation_method            'Materials Studio'
_symmetry_space_group_name_H-M    'P1'
_symmetry_Int_Tables_number       1
_symmetry_cell_setting            triclinic
loop_
_symmetry_equiv_pos_as_xyz
  x,y,z
_cell_length_a                    17.8263
_cell_length_b                    17.8263
_cell_length_c                    17.8263
_cell_angle_alpha                 60.0000
_cell_angle_beta                  60.0000
_cell_angle_gamma                 60.0000
loop_
_atom_site_label
_atom_site_type_symbol
_atom_site_fract_x
_atom_site_fract_y
_atom_site_fract_z
_atom_site_U_iso_or_equiv
_atom_site_adp_type
_atom_site_occupancy
Ni1    Ni    0.13551   0.75000   0.86449   0.01267  Uiso   1.00
Ni2    Ni    0.25000   0.63551   0.25000   0.01267  Uiso   1.00
Ni3    Ni    0.36449   0.25000   0.63551   0.01267  Uiso   1.00
Ni4    Ni    0.75000   0.86449   0.75000   0.01267  Uiso   1.00
Ni5    Ni    0.13551   0.86449   0.25000   0.01267  Uiso   1.00
Ni6    Ni    0.25000   0.25000   0.86449   0.01267  Uiso   1.00
Ni7    Ni    0.36449   0.63551   0.75000   0.01267  Uiso   1.00
Ni8    Ni    0.75000   0.75000   0.63551   0.01267  Uiso   1.00
Ni9    Ni    0.13551   0.25000   0.75000   0.01267  Uiso   1.00
Ni10   Ni    0.25000   0.86449   0.63551   0.01267  Uiso   1.00
Ni11   Ni    0.36449   0.75000   0.25000   0.01267  Uiso   1.00
Ni12   Ni    0.75000   0.63551   0.86449   0.01267  Uiso   1.00
Ni13   Ni    0.86449   0.25000   0.13551   0.01267  Uiso   1.00
Ni14   Ni    0.75000   0.36449   0.75000   0.01267  Uiso   1.00
Ni15   Ni    0.63551   0.75000   0.36449   0.01267  Uiso   1.00
Ni16   Ni    0.25000   0.13551   0.25000   0.01267  Uiso   1.00
Ni17   Ni    0.86449   0.13551   0.75000   0.01267  Uiso   1.00
Ni18   Ni    0.75000   0.75000   0.13551   0.01267  Uiso   1.00
Ni19   Ni    0.63551   0.36449   0.25000   0.01267  Uiso   1.00
Ni20   Ni    0.25000   0.25000   0.36449   0.01267  Uiso   1.00
Ni21   Ni    0.86449   0.75000   0.25000   0.01267  Uiso   1.00
Ni22   Ni    0.75000   0.13551   0.36449   0.01267  Uiso   1.00
Ni23   Ni    0.63551   0.25000   0.75000   0.01267  Uiso   1.00
Ni24   Ni    0.25000   0.36449   0.13551   0.01267  Uiso   1.00
H1     H     0.12180   0.56880   0.05040   0.01267  Uiso   1.00
H2     H     0.06880   0.62180   0.25900   0.01267  Uiso   1.00
H3     H     0.55040   0.25900   0.62180   0.01267  Uiso   1.00
H4     H     0.75900   0.05040   0.56880   0.01267  Uiso   1.00
H5     H     0.12180   0.05040   0.25900   0.01267  Uiso   1.00
H6     H     0.06880   0.25900   0.05040   0.01267  Uiso   1.00
H7     H     0.55040   0.62180   0.56880   0.01267  Uiso   1.00
H8     H     0.75900   0.56880   0.62180   0.01267  Uiso   1.00
H9     H     0.12180   0.25900   0.56880   0.01267  Uiso   1.00
H10    H     0.06880   0.05040   0.62180   0.01267  Uiso   1.00
H11    H     0.55040   0.56880   0.25900   0.01267  Uiso   1.00
H12    H     0.75900   0.62180   0.05040   0.01267  Uiso   1.00
H13    H     0.43120   0.87820   0.44960   0.01267  Uiso   1.00
H14    H     0.37820   0.93120   0.24100   0.01267  Uiso   1.00
H15    H     0.74100   0.44960   0.87820   0.01267  Uiso   1.00
H16    H     0.94960   0.24100   0.93120   0.01267  Uiso   1.00
H17    H     0.94960   0.87820   0.24100   0.01267  Uiso   1.00
H18    H     0.74100   0.93120   0.44960   0.01267  Uiso   1.00
H19    H     0.37820   0.44960   0.93120   0.01267  Uiso   1.00
H20    H     0.43120   0.24100   0.87820   0.01267  Uiso   1.00
H21    H     0.74100   0.87820   0.93120   0.01267  Uiso   1.00
H22    H     0.94960   0.93120   0.87820   0.01267  Uiso   1.00
H23    H     0.43120   0.44960   0.24100   0.01267  Uiso   1.00
H24    H     0.37820   0.24100   0.44960   0.01267  Uiso   1.00
H25    H     0.87820   0.43120   0.94960   0.01267  Uiso   1.00
H26    H     0.93120   0.37820   0.74100   0.01267  Uiso   1.00
H27    H     0.44960   0.74100   0.37820   0.01267  Uiso   1.00
H28    H     0.24100   0.94960   0.43120   0.01267  Uiso   1.00
H29    H     0.87820   0.94960   0.74100   0.01267  Uiso   1.00
H30    H     0.93120   0.74100   0.94960   0.01267  Uiso   1.00
H31    H     0.44960   0.37820   0.43120   0.01267  Uiso   1.00
H32    H     0.24100   0.43120   0.37820   0.01267  Uiso   1.00
H33    H     0.87820   0.74100   0.43120   0.01267  Uiso   1.00
H34    H     0.93120   0.94960   0.37820   0.01267  Uiso   1.00
H35    H     0.44960   0.43120   0.74100   0.01267  Uiso   1.00
H36    H     0.24100   0.37820   0.94960   0.01267  Uiso   1.00
H37    H     0.56880   0.12180   0.55040   0.01267  Uiso   1.00
H38    H     0.62180   0.06880   0.75900   0.01267  Uiso   1.00
H39    H     0.25900   0.55040   0.12180   0.01267  Uiso   1.00
H40    H     0.05040   0.75900   0.06880   0.01267  Uiso   1.00
H41    H     0.05040   0.12180   0.75900   0.01267  Uiso   1.00
H42    H     0.25900   0.06880   0.55040   0.01267  Uiso   1.00
H43    H     0.62180   0.55040   0.06880   0.01267  Uiso   1.00
H44    H     0.56880   0.75900   0.12180   0.01267  Uiso   1.00
H45    H     0.25900   0.12180   0.06880   0.01267  Uiso   1.00
H46    H     0.05040   0.06880   0.12180   0.01267  Uiso   1.00
H47    H     0.56880   0.55040   0.75900   0.01267  Uiso   1.00
H48    H     0.62180   0.75900   0.55040   0.01267  Uiso   1.00
C1     C     0.18058   0.55750   0.00730   0.01267  Uiso   1.00
C2     C     0.05750   0.68058   0.25462   0.01267  Uiso   1.00
C3     C     0.50730   0.25462   0.68058   0.01267  Uiso   1.00
C4     C     0.75462   0.00730   0.55750   0.01267  Uiso   1.00
C5     C     0.18058   0.00730   0.25462   0.01267  Uiso   1.00
C6     C     0.05750   0.25462   0.00730   0.01267  Uiso   1.00
C7     C     0.50730   0.68058   0.55750   0.01267  Uiso   1.00
C8     C     0.75462   0.55750   0.68058   0.01267  Uiso   1.00
C9     C     0.18058   0.25462   0.55750   0.01267  Uiso   1.00
C10    C     0.05750   0.00730   0.68058   0.01267  Uiso   1.00
C11    C     0.50730   0.55750   0.25462   0.01267  Uiso   1.00
C12    C     0.75462   0.68058   0.00730   0.01267  Uiso   1.00
C13    C     0.44250   0.81942   0.49270   0.01267  Uiso   1.00
C14    C     0.31942   0.94250   0.24538   0.01267  Uiso   1.00
C15    C     0.74538   0.49270   0.81942   0.01267  Uiso   1.00
C16    C     0.99270   0.24538   0.94250   0.01267  Uiso   1.00
C17    C     0.99270   0.81942   0.24538   0.01267  Uiso   1.00
C18    C     0.74538   0.94250   0.49270   0.01267  Uiso   1.00
C19    C     0.31942   0.49270   0.94250   0.01267  Uiso   1.00
C20    C     0.44250   0.24538   0.81942   0.01267  Uiso   1.00
C21    C     0.74538   0.81942   0.94250   0.01267  Uiso   1.00
C22    C     0.99270   0.94250   0.81942   0.01267  Uiso   1.00
C23    C     0.44250   0.49270   0.24538   0.01267  Uiso   1.00
C24    C     0.31942   0.24538   0.49270   0.01267  Uiso   1.00
C25    C     0.81942   0.44250   0.99270   0.01267  Uiso   1.00
C26    C     0.94250   0.31942   0.74538   0.01267  Uiso   1.00
C27    C     0.49270   0.74538   0.31942   0.01267  Uiso   1.00
C28    C     0.24538   0.99270   0.44250   0.01267  Uiso   1.00
C29    C     0.81942   0.99270   0.74538   0.01267  Uiso   1.00
C30    C     0.94250   0.74538   0.99270   0.01267  Uiso   1.00
C31    C     0.49270   0.31942   0.44250   0.01267  Uiso   1.00
C32    C     0.24538   0.44250   0.31942   0.01267  Uiso   1.00
C33    C     0.81942   0.74538   0.44250   0.01267  Uiso   1.00
C34    C     0.94250   0.99270   0.31942   0.01267  Uiso   1.00
C35    C     0.49270   0.44250   0.74538   0.01267  Uiso   1.00
C36    C     0.24538   0.31942   0.99270   0.01267  Uiso   1.00
C37    C     0.55750   0.18058   0.50730   0.01267  Uiso   1.00
C38    C     0.68058   0.05750   0.75462   0.01267  Uiso   1.00
C39    C     0.25462   0.50730   0.18058   0.01267  Uiso   1.00
C40    C     0.00730   0.75462   0.05750   0.01267  Uiso   1.00
C41    C     0.00730   0.18058   0.75462   0.01267  Uiso   1.00
C42    C     0.25462   0.05750   0.50730   0.01267  Uiso   1.00
C43    C     0.68058   0.50730   0.05750   0.01267  Uiso   1.00
C44    C     0.55750   0.75462   0.18058   0.01267  Uiso   1.00
C45    C     0.25462   0.18058   0.05750   0.01267  Uiso   1.00
C46    C     0.00730   0.05750   0.18058   0.01267  Uiso   1.00
C47    C     0.55750   0.50730   0.75462   0.01267  Uiso   1.00
C48    C     0.68058   0.75462   0.50730   0.01267  Uiso   1.00
N1     N     0.20539   0.61759   0.92479   0.01267  Uiso   1.00
N2     N     0.11759   0.70539   0.25223   0.01267  Uiso   1.00
N3     N     0.42479   0.25223   0.70539   0.01267  Uiso   1.00
N4     N     0.75223   0.92479   0.61759   0.01267  Uiso   1.00
N5     N     0.20539   0.92479   0.25223   0.01267  Uiso   1.00
N6     N     0.11759   0.25223   0.92479   0.01267  Uiso   1.00
N7     N     0.42479   0.70539   0.61759   0.01267  Uiso   1.00
N8     N     0.75223   0.61759   0.70539   0.01267  Uiso   1.00
N9     N     0.20539   0.25223   0.61759   0.01267  Uiso   1.00
N10    N     0.11759   0.92479   0.70539   0.01267  Uiso   1.00
N11    N     0.42479   0.61759   0.25223   0.01267  Uiso   1.00
N12    N     0.75223   0.70539   0.92479   0.01267  Uiso   1.00
N13    N     0.38241   0.79461   0.57521   0.01267  Uiso   1.00
N14    N     0.29461   0.88241   0.24777   0.01267  Uiso   1.00
N15    N     0.74777   0.57521   0.79461   0.01267  Uiso   1.00
N16    N     0.07521   0.24777   0.88241   0.01267  Uiso   1.00
N17    N     0.07521   0.79461   0.24777   0.01267  Uiso   1.00
N18    N     0.74777   0.88241   0.57521   0.01267  Uiso   1.00
N19    N     0.29461   0.57521   0.88241   0.01267  Uiso   1.00
N20    N     0.38241   0.24777   0.79461   0.01267  Uiso   1.00
N21    N     0.74777   0.79461   0.88241   0.01267  Uiso   1.00
N22    N     0.07521   0.88241   0.79461   0.01267  Uiso   1.00
N23    N     0.38241   0.57521   0.24777   0.01267  Uiso   1.00
N24    N     0.29461   0.24777   0.57521   0.01267  Uiso   1.00
N25    N     0.79461   0.38241   0.07521   0.01267  Uiso   1.00
N26    N     0.88241   0.29461   0.74777   0.01267  Uiso   1.00
N27    N     0.57521   0.74777   0.29461   0.01267  Uiso   1.00
N28    N     0.24777   0.07521   0.38241   0.01267  Uiso   1.00
N29    N     0.79461   0.07521   0.74777   0.01267  Uiso   1.00
N30    N     0.88241   0.74777   0.07521   0.01267  Uiso   1.00
N31    N     0.57521   0.29461   0.38241   0.01267  Uiso   1.00
N32    N     0.24777   0.38241   0.29461   0.01267  Uiso   1.00
N33    N     0.79461   0.74777   0.38241   0.01267  Uiso   1.00
N34    N     0.88241   0.07521   0.29461   0.01267  Uiso   1.00
N35    N     0.57521   0.38241   0.74777   0.01267  Uiso   1.00
N36    N     0.24777   0.29461   0.07521   0.01267  Uiso   1.00
N37    N     0.61759   0.20539   0.42479   0.01267  Uiso   1.00
N38    N     0.70539   0.11759   0.75223   0.01267  Uiso   1.00
N39    N     0.25223   0.42479   0.20539   0.01267  Uiso   1.00
N40    N     0.92479   0.75223   0.11759   0.01267  Uiso   1.00
N41    N     0.92479   0.20539   0.75223   0.01267  Uiso   1.00
N42    N     0.25223   0.11759   0.42479   0.01267  Uiso   1.00
N43    N     0.70539   0.42479   0.11759   0.01267  Uiso   1.00
N44    N     0.61759   0.75223   0.20539   0.01267  Uiso   1.00
N45    N     0.25223   0.20539   0.11759   0.01267  Uiso   1.00
N46    N     0.92479   0.11759   0.20539   0.01267  Uiso   1.00
N47    N     0.61759   0.42479   0.75223   0.01267  Uiso   1.00
N48    N     0.70539   0.75223   0.42479   0.01267  Uiso   1.00
N49    N     0.25000   0.47858   0.02142   0.01267  Uiso   1.00
N50    N     0.97858   0.75000   0.25000   0.01267  Uiso   1.00
N51    N     0.52142   0.25000   0.75000   0.01267  Uiso   1.00
N52    N     0.75000   0.02142   0.47858   0.01267  Uiso   1.00
N53    N     0.25000   0.02142   0.25000   0.01267  Uiso   1.00
N54    N     0.97858   0.25000   0.02142   0.01267  Uiso   1.00
N55    N     0.52142   0.75000   0.47858   0.01267  Uiso   1.00
N56    N     0.75000   0.47858   0.75000   0.01267  Uiso   1.00
N57    N     0.25000   0.25000   0.47858   0.01267  Uiso   1.00
N58    N     0.97858   0.02142   0.75000   0.01267  Uiso   1.00
N59    N     0.52142   0.47858   0.25000   0.01267  Uiso   1.00
N60    N     0.75000   0.75000   0.02142   0.01267  Uiso   1.00
N61    N     0.75000   0.52142   0.97858   0.01267  Uiso   1.00
N62    N     0.02142   0.25000   0.75000   0.01267  Uiso   1.00
N63    N     0.47858   0.75000   0.25000   0.01267  Uiso   1.00
N64    N     0.25000   0.97858   0.52142   0.01267  Uiso   1.00
N65    N     0.75000   0.97858   0.75000   0.01267  Uiso   1.00
N66    N     0.02142   0.75000   0.97858   0.01267  Uiso   1.00
N67    N     0.47858   0.25000   0.52142   0.01267  Uiso   1.00
N68    N     0.25000   0.52142   0.25000   0.01267  Uiso   1.00
N69    N     0.75000   0.75000   0.52142   0.01267  Uiso   1.00
N70    N     0.02142   0.97858   0.25000   0.01267  Uiso   1.00
N71    N     0.47858   0.52142   0.75000   0.01267  Uiso   1.00
N72    N     0.25000   0.25000   0.97858   0.01267  Uiso   1.00
O1     O     0.25000   0.75000   0.75000   0.01267  Uiso   1.00
O2     O     0.25000   0.75000   0.25000   0.01267  Uiso   1.00
O3     O     0.25000   0.25000   0.75000   0.01267  Uiso   1.00
O4     O     0.75000   0.75000   0.75000   0.01267  Uiso   1.00
O5     O     0.75000   0.25000   0.25000   0.01267  Uiso   1.00
O6     O     0.75000   0.25000   0.75000   0.01267  Uiso   1.00
O7     O     0.75000   0.75000   0.25000   0.01267  Uiso   1.00
O8     O     0.25000   0.25000   0.25000   0.01267  Uiso   1.00
