data_image0
_cell_length_a       5.4573
_cell_length_b       8.965
_cell_length_c       15.253
_cell_angle_alpha    90
_cell_angle_beta     98.924
_cell_angle_gamma    90

_symmetry_space_group_name_H-M    "P 1"
_symmetry_int_tables_number       1

loop_
  _symmetry_equiv_pos_as_xyz
  'x, y, z'

loop_
  _atom_site_label
  _atom_site_occupancy
  _atom_site_fract_x
  _atom_site_fract_y
  _atom_site_fract_z
  _atom_site_thermal_displace_type
  _atom_site_B_iso_or_equiv
  _atom_site_type_symbol
  Mn1      1.0000 0.10100  0.48380  0.81816  Biso   1.000  Mn
  P1       1.0000 0.60970  0.25960  0.81943  Biso   1.000  P
  O1       1.0000 0.22490  0.39860  0.95660  Biso   1.000  O
  O2       1.0000 0.85240  0.30160  0.78990  Biso   1.000  O
  O3       1.0000 0.54630  0.09560  0.80120  Biso   1.000  O
  O4       1.0000 0.12480  0.39430  0.09270  Biso   1.000  O
  O5       1.0000 0.39750  0.36020  0.77950  Biso   1.000  O
  O6       1.0000 0.65480  0.27840  0.92520  Biso   1.000  O
  C1       1.0000 0.10100  0.44020  0.01420  Biso   1.000  C
  H1       1.0000 0.54000  0.29000  0.93300  Biso   1.000  H
  Mn2      1.0000 0.39900  0.98380  0.68184  Biso   1.000  Mn
  P2       1.0000 0.89030  0.75960  0.68057  Biso   1.000  P
  O7       1.0000 0.27510  0.89860  0.54340  Biso   1.000  O
  O8       1.0000 0.64760  0.80160  0.71010  Biso   1.000  O
  O9       1.0000 0.95370  0.59560  0.69880  Biso   1.000  O
  O10      1.0000 0.37520  0.89430  0.40730  Biso   1.000  O
  O11      1.0000 0.10250  0.86020  0.72050  Biso   1.000  O
  O12      1.0000 0.84520  0.77840  0.57480  Biso   1.000  O
  C2       1.0000 0.39900  0.94020  0.48580  Biso   1.000  C
  H2       1.0000 0.96000  0.79000  0.56700  Biso   1.000  H
  Mn3      1.0000 0.89900  0.51620  0.18184  Biso   1.000  Mn
  P3       1.0000 0.39030  0.74040  0.18057  Biso   1.000  P
  O13      1.0000 0.77510  0.60140  0.04340  Biso   1.000  O
  O14      1.0000 0.14760  0.69840  0.21010  Biso   1.000  O
  O15      1.0000 0.45370  0.90440  0.19880  Biso   1.000  O
  O16      1.0000 0.87520  0.60570  0.90730  Biso   1.000  O
  O17      1.0000 0.60250  0.63980  0.22050  Biso   1.000  O
  O18      1.0000 0.34520  0.72160  0.07480  Biso   1.000  O
  C3       1.0000 0.89900  0.55980  0.98580  Biso   1.000  C
  H3       1.0000 0.46000  0.71000  0.06700  Biso   1.000  H
  Mn4      1.0000 0.60100  0.01620  0.31816  Biso   1.000  Mn
  P4       1.0000 0.10970  0.24040  0.31943  Biso   1.000  P
  O19      1.0000 0.72490  0.10140  0.45660  Biso   1.000  O
  O20      1.0000 0.35240  0.19840  0.28990  Biso   1.000  O
  O21      1.0000 0.04630  0.40440  0.30120  Biso   1.000  O
  O22      1.0000 0.62480  0.10570  0.59270  Biso   1.000  O
  O23      1.0000 0.89750  0.13980  0.27950  Biso   1.000  O
  O24      1.0000 0.15480  0.22160  0.42520  Biso   1.000  O
  C4       1.0000 0.60100  0.05980  0.51420  Biso   1.000  C
  H4       1.0000 0.04000  0.21000  0.43300  Biso   1.000  H
