data_image0
_cell_length_a       7.83
_cell_length_b       8.041
_cell_length_c       9.652
_cell_angle_alpha    76.29
_cell_angle_beta     78.47
_cell_angle_gamma    86.36

_symmetry_space_group_name_H-M    "P 1"
_symmetry_int_tables_number       1

loop_
  _symmetry_equiv_pos_as_xyz
  'x, y, z'

loop_
  _atom_site_label
  _atom_site_occupancy
  _atom_site_fract_x
  _atom_site_fract_y
  _atom_site_fract_z
  _atom_site_thermal_displace_type
  _atom_site_B_iso_or_equiv
  _atom_site_type_symbol
  Mn1      1.0000 0.19076  0.31033  0.61460  Biso   1.000  Mn
  Mn2      1.0000 0.84283  0.03389  0.74818  Biso   1.000  Mn
  P1       1.0000 0.07780  0.73290  0.59030  Biso   1.000  P
  O1       1.0000 0.41570  0.36010  0.70390  Biso   1.000  O
  O2       1.0000 0.34440  0.06160  0.64930  Biso   1.000  O
  O3       1.0000 0.03110  0.15850  0.83820  Biso   1.000  O
  O4       1.0000 0.07440  0.54050  0.63500  Biso   1.000  O
  O5       1.0000 0.18620  0.09850  0.01640  Biso   1.000  O
  O6       1.0000 0.59040  0.94690  0.71690  Biso   1.000  O
  O7       1.0000 0.65380  0.23900  0.78300  Biso   1.000  O
  O8       1.0000 0.27480  0.78590  0.56500  Biso   1.000  O
  O9       1.0000 0.97170  0.81070  0.70990  Biso   1.000  O
  O10      1.0000 0.01660  0.80150  0.44580  Biso   1.000  O
  C1       1.0000 0.51960  0.23800  0.73080  Biso   1.000  C
  C2       1.0000 0.48170  0.06700  0.69510  Biso   1.000  C
  C3       1.0000 0.06390  0.07350  0.95890  Biso   1.000  C
  H1       1.0000 0.28400  0.87400  0.58500  Biso   1.000  H
  Mn3      1.0000 0.80924  0.68967  0.38540  Biso   1.000  Mn
  Mn4      1.0000 0.15717  0.96611  0.25182  Biso   1.000  Mn
  P2       1.0000 0.92220  0.26710  0.40970  Biso   1.000  P
  O11      1.0000 0.58430  0.63990  0.29610  Biso   1.000  O
  O12      1.0000 0.65560  0.93840  0.35070  Biso   1.000  O
  O13      1.0000 0.96890  0.84150  0.16180  Biso   1.000  O
  O14      1.0000 0.92560  0.45950  0.36500  Biso   1.000  O
  O15      1.0000 0.81380  0.90150  0.98360  Biso   1.000  O
  O16      1.0000 0.40960  0.05310  0.28310  Biso   1.000  O
  O17      1.0000 0.34620  0.76100  0.21700  Biso   1.000  O
  O18      1.0000 0.72520  0.21410  0.43500  Biso   1.000  O
  O19      1.0000 0.02830  0.18930  0.29010  Biso   1.000  O
  O20      1.0000 0.98340  0.19850  0.55420  Biso   1.000  O
  C4       1.0000 0.48040  0.76200  0.26920  Biso   1.000  C
  C5       1.0000 0.51830  0.93300  0.30490  Biso   1.000  C
  C6       1.0000 0.93610  0.92650  0.04110  Biso   1.000  C
  H2       1.0000 0.71600  0.12600  0.41500  Biso   1.000  H
