data_VIRVEY_clean
_audit_creation_date              2014-07-02
_audit_creation_method            'Materials Studio'
_symmetry_space_group_name_H-M    'P1'
_symmetry_Int_Tables_number       1
_symmetry_cell_setting            triclinic
loop_
_symmetry_equiv_pos_as_xyz
  x,y,z
_cell_length_a                    12.7660
_cell_length_b                    23.3400
_cell_length_c                    14.9030
_cell_angle_alpha                 90.0000
_cell_angle_beta                  90.0000
_cell_angle_gamma                 90.0000
loop_
_atom_site_label
_atom_site_type_symbol
_atom_site_fract_x
_atom_site_fract_y
_atom_site_fract_z
_atom_site_U_iso_or_equiv
_atom_site_adp_type
_atom_site_occupancy
Zn1    Zn    0.84944   0.09863   0.48828   0.01267  Uiso   1.00
Zn2    Zn    0.74746   0.98468   0.60580   0.01267  Uiso   1.00
Zn3    Zn    0.15056   0.90137   0.98828   0.01267  Uiso   1.00
Zn4    Zn    0.25254   0.01532   0.10580   0.01267  Uiso   1.00
Zn5    Zn    0.65056   0.59863   0.48828   0.01267  Uiso   1.00
Zn6    Zn    0.75254   0.48468   0.60580   0.01267  Uiso   1.00
Zn7    Zn    0.34944   0.40137   0.98828   0.01267  Uiso   1.00
Zn8    Zn    0.24746   0.51532   0.10580   0.01267  Uiso   1.00
H1     H     0.93210   0.16940   0.73360   0.01267  Uiso   1.00
H2     H     0.97840   0.01180   0.83120   0.01267  Uiso   1.00
H3     H     0.10140   0.15090   0.95160   0.01267  Uiso   1.00
H4     H     0.12300   0.35490   0.95600   0.01267  Uiso   1.00
H5     H     0.00280   0.50060   0.86040   0.01267  Uiso   1.00
H6     H     0.92170   0.34970   0.75610   0.01267  Uiso   1.00
H7     H     0.06790   0.83060   0.23360   0.01267  Uiso   1.00
H8     H     0.02160   0.98820   0.33120   0.01267  Uiso   1.00
H9     H     0.89860   0.84910   0.45160   0.01267  Uiso   1.00
H10    H     0.87700   0.64510   0.45600   0.01267  Uiso   1.00
H11    H     0.99720   0.49940   0.36040   0.01267  Uiso   1.00
H12    H     0.07830   0.65030   0.25610   0.01267  Uiso   1.00
H13    H     0.56790   0.66940   0.73360   0.01267  Uiso   1.00
H14    H     0.52160   0.51180   0.83120   0.01267  Uiso   1.00
H15    H     0.39860   0.65090   0.95160   0.01267  Uiso   1.00
H16    H     0.37700   0.85490   0.95600   0.01267  Uiso   1.00
H17    H     0.49720   0.00060   0.86040   0.01267  Uiso   1.00
H18    H     0.57830   0.84970   0.75610   0.01267  Uiso   1.00
H19    H     0.43210   0.33060   0.23360   0.01267  Uiso   1.00
H20    H     0.47840   0.48820   0.33120   0.01267  Uiso   1.00
H21    H     0.60140   0.34910   0.45160   0.01267  Uiso   1.00
H22    H     0.62300   0.14510   0.45600   0.01267  Uiso   1.00
H23    H     0.50280   0.99940   0.36040   0.01267  Uiso   1.00
H24    H     0.42170   0.15030   0.25610   0.01267  Uiso   1.00
Pt1    Pt    0.02666   0.25589   0.85073   0.01267  Uiso   1.00
Pt2    Pt    0.97334   0.74411   0.35073   0.01267  Uiso   1.00
Pt3    Pt    0.47334   0.75589   0.85073   0.01267  Uiso   1.00
Pt4    Pt    0.52666   0.24411   0.35073   0.01267  Uiso   1.00
C1     C     0.96310   0.14540   0.77600   0.01267  Uiso   1.00
C2     C     0.94890   0.08700   0.76780   0.01267  Uiso   1.00
C3     C     0.99040   0.05100   0.83310   0.01267  Uiso   1.00
C4     C     0.05010   0.07520   0.90130   0.01267  Uiso   1.00
C5     C     0.06260   0.13440   0.90570   0.01267  Uiso   1.00
C6     C     0.89400   0.06500   0.68520   0.01267  Uiso   1.00
C7     C     0.10540   0.03680   0.96800   0.01267  Uiso   1.00
C8     C     0.08050   0.37400   0.91510   0.01267  Uiso   1.00
C9     C     0.07430   0.43310   0.91770   0.01267  Uiso   1.00
C10    C     0.00930   0.46110   0.85860   0.01267  Uiso   1.00
C11    C     0.95420   0.42890   0.79620   0.01267  Uiso   1.00
C12    C     0.96130   0.37060   0.79640   0.01267  Uiso   1.00
C13    C     0.13390   0.46720   0.98480   0.01267  Uiso   1.00
C14    C     0.88390   0.45800   0.72730   0.01267  Uiso   1.00
C15    C     0.03690   0.85460   0.27600   0.01267  Uiso   1.00
C16    C     0.05110   0.91300   0.26780   0.01267  Uiso   1.00
C17    C     0.00960   0.94900   0.33310   0.01267  Uiso   1.00
C18    C     0.94990   0.92480   0.40130   0.01267  Uiso   1.00
C19    C     0.93740   0.86560   0.40570   0.01267  Uiso   1.00
C20    C     0.10600   0.93500   0.18520   0.01267  Uiso   1.00
C21    C     0.89460   0.96320   0.46800   0.01267  Uiso   1.00
C22    C     0.91950   0.62600   0.41510   0.01267  Uiso   1.00
C23    C     0.92570   0.56690   0.41770   0.01267  Uiso   1.00
C24    C     0.99070   0.53890   0.35860   0.01267  Uiso   1.00
C25    C     0.04580   0.57110   0.29620   0.01267  Uiso   1.00
C26    C     0.03870   0.62940   0.29640   0.01267  Uiso   1.00
C27    C     0.86610   0.53280   0.48480   0.01267  Uiso   1.00
C28    C     0.11610   0.54200   0.22730   0.01267  Uiso   1.00
C29    C     0.53690   0.64540   0.77600   0.01267  Uiso   1.00
C30    C     0.55110   0.58700   0.76780   0.01267  Uiso   1.00
C31    C     0.50960   0.55100   0.83310   0.01267  Uiso   1.00
C32    C     0.44990   0.57520   0.90130   0.01267  Uiso   1.00
C33    C     0.43740   0.63440   0.90570   0.01267  Uiso   1.00
C34    C     0.60600   0.56500   0.68520   0.01267  Uiso   1.00
C35    C     0.39460   0.53680   0.96800   0.01267  Uiso   1.00
C36    C     0.41950   0.87400   0.91510   0.01267  Uiso   1.00
C37    C     0.42570   0.93310   0.91770   0.01267  Uiso   1.00
C38    C     0.49070   0.96110   0.85860   0.01267  Uiso   1.00
C39    C     0.54580   0.92890   0.79620   0.01267  Uiso   1.00
C40    C     0.53870   0.87060   0.79640   0.01267  Uiso   1.00
C41    C     0.36610   0.96720   0.98480   0.01267  Uiso   1.00
C42    C     0.61610   0.95800   0.72730   0.01267  Uiso   1.00
C43    C     0.46310   0.35460   0.27600   0.01267  Uiso   1.00
C44    C     0.44890   0.41300   0.26780   0.01267  Uiso   1.00
C45    C     0.49040   0.44900   0.33310   0.01267  Uiso   1.00
C46    C     0.55010   0.42480   0.40130   0.01267  Uiso   1.00
C47    C     0.56260   0.36560   0.40570   0.01267  Uiso   1.00
C48    C     0.39400   0.43500   0.18520   0.01267  Uiso   1.00
C49    C     0.60540   0.46320   0.46800   0.01267  Uiso   1.00
C50    C     0.58050   0.12600   0.41510   0.01267  Uiso   1.00
C51    C     0.57430   0.06690   0.41770   0.01267  Uiso   1.00
C52    C     0.50930   0.03890   0.35860   0.01267  Uiso   1.00
C53    C     0.45420   0.07110   0.29620   0.01267  Uiso   1.00
C54    C     0.46130   0.12940   0.29640   0.01267  Uiso   1.00
C55    C     0.63390   0.03280   0.48480   0.01267  Uiso   1.00
C56    C     0.38390   0.04200   0.22730   0.01267  Uiso   1.00
N1     N     0.01930   0.16872   0.84290   0.01267  Uiso   1.00
N2     N     0.02430   0.34225   0.85370   0.01267  Uiso   1.00
N3     N     0.98070   0.83128   0.34290   0.01267  Uiso   1.00
N4     N     0.97570   0.65775   0.35370   0.01267  Uiso   1.00
N5     N     0.48070   0.66872   0.84290   0.01267  Uiso   1.00
N6     N     0.47570   0.84225   0.85370   0.01267  Uiso   1.00
N7     N     0.51930   0.33128   0.34290   0.01267  Uiso   1.00
N8     N     0.52430   0.15775   0.35370   0.01267  Uiso   1.00
Cl1    Cl    0.05780   0.26113   0.69838   0.01267  Uiso   1.00
Cl2    Cl    0.99403   0.25120   0.00227   0.01267  Uiso   1.00
Cl3    Cl    0.94220   0.73887   0.19838   0.01267  Uiso   1.00
Cl4    Cl    0.00597   0.74880   0.50227   0.01267  Uiso   1.00
Cl5    Cl    0.44220   0.76113   0.69838   0.01267  Uiso   1.00
Cl6    Cl    0.50597   0.75120   0.00227   0.01267  Uiso   1.00
Cl7    Cl    0.55780   0.23887   0.19838   0.01267  Uiso   1.00
Cl8    Cl    0.49403   0.24880   0.50227   0.01267  Uiso   1.00
O1     O     0.89370   0.09793   0.61850   0.01267  Uiso   1.00
O2     O     0.85090   0.01622   0.69190   0.01267  Uiso   1.00
O3     O     0.09280   0.98390   0.95780   0.01267  Uiso   1.00
O4     O     0.16090   0.06181   0.02540   0.01267  Uiso   1.00
O5     O     0.20770   0.44230   0.02990   0.01267  Uiso   1.00
O6     O     0.11220   0.51790   0.99760   0.01267  Uiso   1.00
O7     O     0.89130   0.51040   0.71520   0.01267  Uiso   1.00
O8     O     0.82290   0.42530   0.68290   0.01267  Uiso   1.00
O9     O     0.10630   0.90207   0.11850   0.01267  Uiso   1.00
O10    O     0.14910   0.98378   0.19190   0.01267  Uiso   1.00
O11    O     0.90720   0.01610   0.45780   0.01267  Uiso   1.00
O12    O     0.83910   0.93819   0.52540   0.01267  Uiso   1.00
O13    O     0.79230   0.55770   0.52990   0.01267  Uiso   1.00
O14    O     0.88780   0.48210   0.49760   0.01267  Uiso   1.00
O15    O     0.10870   0.48960   0.21520   0.01267  Uiso   1.00
O16    O     0.17710   0.57470   0.18290   0.01267  Uiso   1.00
O17    O     0.60630   0.59793   0.61850   0.01267  Uiso   1.00
O18    O     0.64910   0.51622   0.69190   0.01267  Uiso   1.00
O19    O     0.40720   0.48390   0.95780   0.01267  Uiso   1.00
O20    O     0.33910   0.56181   0.02540   0.01267  Uiso   1.00
O21    O     0.29230   0.94230   0.02990   0.01267  Uiso   1.00
O22    O     0.38780   0.01790   0.99760   0.01267  Uiso   1.00
O23    O     0.60870   0.01040   0.71520   0.01267  Uiso   1.00
O24    O     0.67710   0.92530   0.68290   0.01267  Uiso   1.00
O25    O     0.39370   0.40207   0.11850   0.01267  Uiso   1.00
O26    O     0.35090   0.48378   0.19190   0.01267  Uiso   1.00
O27    O     0.59280   0.51610   0.45780   0.01267  Uiso   1.00
O28    O     0.66090   0.43819   0.52540   0.01267  Uiso   1.00
O29    O     0.70770   0.05770   0.52990   0.01267  Uiso   1.00
O30    O     0.61220   0.98210   0.49760   0.01267  Uiso   1.00
O31    O     0.39130   0.98960   0.21520   0.01267  Uiso   1.00
O32    O     0.32290   0.07470   0.18290   0.01267  Uiso   1.00
