data_image0
_cell_length_a       14.3807
_cell_length_b       14.3807
_cell_length_c       14.3552
_cell_angle_alpha    90
_cell_angle_beta     90
_cell_angle_gamma    120

_symmetry_space_group_name_H-M    "P 1"
_symmetry_int_tables_number       1

loop_
  _symmetry_equiv_pos_as_xyz
  'x, y, z'

loop_
  _atom_site_label
  _atom_site_occupancy
  _atom_site_fract_x
  _atom_site_fract_y
  _atom_site_fract_z
  _atom_site_thermal_displace_type
  _atom_site_B_iso_or_equiv
  _atom_site_type_symbol
  Zn1      1.0000 0.58507  0.25785  0.83541  Biso   1.000  Zn
  P1       1.0000 0.53270  0.22012  0.61950  Biso   1.000  P
  P2       1.0000 0.36435  0.20870  0.75924  Biso   1.000  P
  O1       1.0000 0.46490  0.10360  0.59320  Biso   1.000  O
  O2       1.0000 0.60280  0.23720  0.70360  Biso   1.000  O
  O3       1.0000 0.44810  0.25160  0.83680  Biso   1.000  O
  O4       1.0000 0.28360  0.24280  0.77190  Biso   1.000  O
  O5       1.0000 0.31340  0.08830  0.74710  Biso   1.000  O
  C1       1.0000 0.43990  0.27090  0.65070  Biso   1.000  C
  O6       1.0000 0.36720  0.24790  0.57390  Biso   1.000  O
  H1       1.0000 0.30600  0.22390  0.59380  Biso   1.000  H
  C2       1.0000 0.50680  0.39210  0.65820  Biso   1.000  C
  H2       1.0000 0.56100  0.40920  0.70570  Biso   1.000  H
  H3       1.0000 0.54400  0.41950  0.59950  Biso   1.000  H
  N1       1.0000 0.45020  0.44900  0.68010  Biso   1.000  N
  C3       1.0000 0.46860  0.51090  0.75580  Biso   1.000  C
  H4       1.0000 0.51650  0.52040  0.80330  Biso   1.000  H
  C4       1.0000 0.37520  0.45220  0.62660  Biso   1.000  C
  H5       1.0000 0.34690  0.41540  0.57110  Biso   1.000  H
  C5       1.0000 0.34890  0.52100  0.67050  Biso   1.000  C
  H6       1.0000 0.30000  0.54070  0.64940  Biso   1.000  H
  N2       1.0000 0.40870  0.55570  0.75250  Biso   1.000  N
  O7       1.0000 0.59550  0.28570  0.53720  Biso   1.000  O
  Zn2      1.0000 0.74215  0.32722  0.50208  Biso   1.000  Zn
  P3       1.0000 0.77988  0.31258  0.28617  Biso   1.000  P
  P4       1.0000 0.79130  0.15565  0.42591  Biso   1.000  P
  O8       1.0000 0.89640  0.36130  0.25987  Biso   1.000  O
  O9       1.0000 0.76280  0.36560  0.37027  Biso   1.000  O
  O10      1.0000 0.74840  0.19650  0.50347  Biso   1.000  O
  O11      1.0000 0.75720  0.04080  0.43857  Biso   1.000  O
  O12      1.0000 0.91170  0.22510  0.41377  Biso   1.000  O
  C6       1.0000 0.72910  0.16900  0.31737  Biso   1.000  C
  O13      1.0000 0.75210  0.11930  0.24057  Biso   1.000  O
  H7       1.0000 0.77610  0.08210  0.26047  Biso   1.000  H
  C7       1.0000 0.60790  0.11470  0.32487  Biso   1.000  C
  H8       1.0000 0.59080  0.15180  0.37237  Biso   1.000  H
  H9       1.0000 0.58050  0.12450  0.26617  Biso   1.000  H
  N3       1.0000 0.55100  0.00120  0.34677  Biso   1.000  N
  C8       1.0000 0.48910  0.95770  0.42247  Biso   1.000  C
  H10      1.0000 0.47960  0.99610  0.46997  Biso   1.000  H
  C9       1.0000 0.54780  0.92300  0.29327  Biso   1.000  C
  H11      1.0000 0.58460  0.93150  0.23777  Biso   1.000  H
  C10      1.0000 0.47900  0.82790  0.33717  Biso   1.000  C
  H12      1.0000 0.45930  0.75930  0.31607  Biso   1.000  H
  N4       1.0000 0.44430  0.85300  0.41917  Biso   1.000  N
  O14      1.0000 0.71430  0.30980  0.20387  Biso   1.000  O
  Zn3      1.0000 0.67278  0.41493  0.16874  Biso   1.000  Zn
  P5       1.0000 0.68742  0.46730  0.95283  Biso   1.000  P
  P6       1.0000 0.84435  0.63565  0.09257  Biso   1.000  P
  O15      1.0000 0.63870  0.53510  0.92653  Biso   1.000  O
  O16      1.0000 0.63440  0.39720  0.03693  Biso   1.000  O
  O17      1.0000 0.80350  0.55190  0.17013  Biso   1.000  O
  O18      1.0000 0.95920  0.71640  0.10523  Biso   1.000  O
  O19      1.0000 0.77490  0.68660  0.08043  Biso   1.000  O
  C11      1.0000 0.83100  0.56010  0.98403  Biso   1.000  C
  O20      1.0000 0.88070  0.63280  0.90723  Biso   1.000  O
  H13      1.0000 0.91790  0.69400  0.92713  Biso   1.000  H
  C12      1.0000 0.88530  0.49320  0.99153  Biso   1.000  C
  H14      1.0000 0.84820  0.43900  0.03903  Biso   1.000  H
  H15      1.0000 0.87550  0.45600  0.93283  Biso   1.000  H
  N5       1.0000 0.99880  0.54980  0.01343  Biso   1.000  N
  C13      1.0000 0.04230  0.53140  0.08913  Biso   1.000  C
  H16      1.0000 0.00390  0.48350  0.13663  Biso   1.000  H
  C14      1.0000 0.07700  0.62480  0.95993  Biso   1.000  C
  H17      1.0000 0.06850  0.65310  0.90443  Biso   1.000  H
  C15      1.0000 0.17210  0.65110  0.00383  Biso   1.000  C
  H18      1.0000 0.24070  0.70000  0.98273  Biso   1.000  H
  N6       1.0000 0.14700  0.59130  0.08583  Biso   1.000  N
  O21      1.0000 0.69020  0.40450  0.87053  Biso   1.000  O
  Zn4      1.0000 0.25785  0.58507  0.16459  Biso   1.000  Zn
  P7       1.0000 0.22012  0.53270  0.38050  Biso   1.000  P
  P8       1.0000 0.20870  0.36435  0.24076  Biso   1.000  P
  O22      1.0000 0.10360  0.46490  0.40680  Biso   1.000  O
  O23      1.0000 0.23720  0.60280  0.29640  Biso   1.000  O
  O24      1.0000 0.25160  0.44810  0.16320  Biso   1.000  O
  O25      1.0000 0.24280  0.28360  0.22810  Biso   1.000  O
  O26      1.0000 0.08830  0.31340  0.25290  Biso   1.000  O
  C16      1.0000 0.27090  0.43990  0.34930  Biso   1.000  C
  O27      1.0000 0.24790  0.36720  0.42610  Biso   1.000  O
  H19      1.0000 0.22390  0.30600  0.40620  Biso   1.000  H
  C17      1.0000 0.39210  0.50680  0.34180  Biso   1.000  C
  H20      1.0000 0.40920  0.56100  0.29430  Biso   1.000  H
  H21      1.0000 0.41950  0.54400  0.40050  Biso   1.000  H
  N7       1.0000 0.44900  0.45020  0.31990  Biso   1.000  N
  C18      1.0000 0.51090  0.46860  0.24420  Biso   1.000  C
  H22      1.0000 0.52040  0.51650  0.19670  Biso   1.000  H
  C19      1.0000 0.45220  0.37520  0.37340  Biso   1.000  C
  H23      1.0000 0.41540  0.34690  0.42890  Biso   1.000  H
  C20      1.0000 0.52100  0.34890  0.32950  Biso   1.000  C
  H24      1.0000 0.54070  0.30000  0.35060  Biso   1.000  H
  N8       1.0000 0.55570  0.40870  0.24750  Biso   1.000  N
  O28      1.0000 0.28570  0.59550  0.46280  Biso   1.000  O
  Zn5      1.0000 0.32722  0.74215  0.49792  Biso   1.000  Zn
  P9       1.0000 0.31258  0.77988  0.71383  Biso   1.000  P
  P10      1.0000 0.15565  0.79130  0.57409  Biso   1.000  P
  O29      1.0000 0.36130  0.89640  0.74013  Biso   1.000  O
  O30      1.0000 0.36560  0.76280  0.62973  Biso   1.000  O
  O31      1.0000 0.19650  0.74840  0.49653  Biso   1.000  O
  O32      1.0000 0.04080  0.75720  0.56143  Biso   1.000  O
  O33      1.0000 0.22510  0.91170  0.58623  Biso   1.000  O
  C21      1.0000 0.16900  0.72910  0.68263  Biso   1.000  C
  O34      1.0000 0.11930  0.75210  0.75943  Biso   1.000  O
  H25      1.0000 0.08210  0.77610  0.73953  Biso   1.000  H
  C22      1.0000 0.11470  0.60790  0.67513  Biso   1.000  C
  H26      1.0000 0.15180  0.59080  0.62763  Biso   1.000  H
  H27      1.0000 0.12450  0.58050  0.73383  Biso   1.000  H
  N9       1.0000 0.00120  0.55100  0.65323  Biso   1.000  N
  C23      1.0000 0.95770  0.48910  0.57753  Biso   1.000  C
  H28      1.0000 0.99610  0.47960  0.53003  Biso   1.000  H
  C24      1.0000 0.92300  0.54780  0.70673  Biso   1.000  C
  H29      1.0000 0.93150  0.58460  0.76223  Biso   1.000  H
  C25      1.0000 0.82790  0.47900  0.66283  Biso   1.000  C
  H30      1.0000 0.75930  0.45930  0.68393  Biso   1.000  H
  N10      1.0000 0.85300  0.44430  0.58083  Biso   1.000  N
  O35      1.0000 0.30980  0.71430  0.79613  Biso   1.000  O
  Zn6      1.0000 0.41493  0.67278  0.83126  Biso   1.000  Zn
  P11      1.0000 0.46730  0.68742  0.04717  Biso   1.000  P
  P12      1.0000 0.63565  0.84435  0.90743  Biso   1.000  P
  O36      1.0000 0.53510  0.63870  0.07347  Biso   1.000  O
  O37      1.0000 0.39720  0.63440  0.96307  Biso   1.000  O
  O38      1.0000 0.55190  0.80350  0.82987  Biso   1.000  O
  O39      1.0000 0.71640  0.95920  0.89477  Biso   1.000  O
  O40      1.0000 0.68660  0.77490  0.91957  Biso   1.000  O
  C26      1.0000 0.56010  0.83100  0.01597  Biso   1.000  C
  O41      1.0000 0.63280  0.88070  0.09277  Biso   1.000  O
  H31      1.0000 0.69400  0.91790  0.07287  Biso   1.000  H
  C27      1.0000 0.49320  0.88530  0.00847  Biso   1.000  C
  H32      1.0000 0.43900  0.84820  0.96097  Biso   1.000  H
  H33      1.0000 0.45600  0.87550  0.06717  Biso   1.000  H
  N11      1.0000 0.54980  0.99880  0.98657  Biso   1.000  N
  C28      1.0000 0.53140  0.04230  0.91087  Biso   1.000  C
  H34      1.0000 0.48350  0.00390  0.86337  Biso   1.000  H
  C29      1.0000 0.62480  0.07700  0.04007  Biso   1.000  C
  H35      1.0000 0.65310  0.06850  0.09557  Biso   1.000  H
  C30      1.0000 0.65110  0.17210  0.99617  Biso   1.000  C
  H36      1.0000 0.70000  0.24070  0.01727  Biso   1.000  H
  N12      1.0000 0.59130  0.14700  0.91417  Biso   1.000  N
  O42      1.0000 0.40450  0.69020  0.12947  Biso   1.000  O
  Zn7      1.0000 0.34366  0.00000  0.66667  Biso   1.000  Zn
  Zn8      1.0000 0.00000  0.34366  0.33333  Biso   1.000  Zn
  Zn9      1.0000 0.65634  0.65634  0.00000  Biso   1.000  Zn
