data_VITKUG_charged
_audit_creation_date              2015-10-16
_audit_creation_method            'Materials Studio'
_symmetry_space_group_name_H-M    'P1'
_symmetry_Int_Tables_number       1
_symmetry_cell_setting            triclinic
loop_
_symmetry_equiv_pos_as_xyz
  x,y,z
_cell_length_a                    10.5944
_cell_length_b                    11.5934
_cell_length_c                    15.8220
_cell_angle_alpha                 106.1300
_cell_angle_beta                  90.0000
_cell_angle_gamma                 90.0000
loop_
_atom_site_label
_atom_site_type_symbol
_atom_site_fract_x
_atom_site_fract_y
_atom_site_fract_z
_atom_site_U_iso_or_equiv
_atom_site_adp_type
_atom_site_occupancy
Cu1    Cu    0.63677   0.98520   0.49921   0.01267  Uiso   1.00
Cu2    Cu    0.63677   0.01480   0.00079   0.01267  Uiso   1.00
Cu3    Cu    0.50242   0.14067   0.68562   0.01267  Uiso   1.00
Cu4    Cu    0.49758   0.85933   0.31438   0.01267  Uiso   1.00
Cu5    Cu    0.49758   0.14067   0.18562   0.01267  Uiso   1.00
Cu6    Cu    0.36323   0.01480   0.50079   0.01267  Uiso   1.00
Cu7    Cu    0.50242   0.85933   0.81438   0.01267  Uiso   1.00
Cu8    Cu    0.36323   0.98520   0.99921   0.01267  Uiso   1.00
H1     H     0.99550   0.05410   0.12060   0.01267  Uiso   1.00
H2     H     0.50500   0.06130   0.40060   0.01267  Uiso   1.00
H3     H     0.52030   0.50100   0.35190   0.01267  Uiso   1.00
H4     H     0.49500   0.06130   0.90060   0.01267  Uiso   1.00
H5     H     0.00450   0.05410   0.62060   0.01267  Uiso   1.00
H6     H     0.99550   0.94590   0.37940   0.01267  Uiso   1.00
H7     H     0.00450   0.94590   0.87940   0.01267  Uiso   1.00
H8     H     0.49500   0.93870   0.59940   0.01267  Uiso   1.00
H9     H     0.47970   0.49900   0.64810   0.01267  Uiso   1.00
H10    H     0.50500   0.93870   0.09940   0.01267  Uiso   1.00
H11    H     0.47970   0.50100   0.85190   0.01267  Uiso   1.00
H12    H     0.52030   0.49900   0.14810   0.01267  Uiso   1.00
C1     C     0.00320   0.03270   0.67290   0.01267  Uiso   1.00
C2     C     0.23640   0.95620   0.83410   0.01267  Uiso   1.00
C3     C     0.11830   0.01760   0.71080   0.01267  Uiso   1.00
C4     C     0.49410   0.38970   0.52000   0.01267  Uiso   1.00
C5     C     0.76360   0.04380   0.16590   0.01267  Uiso   1.00
C6     C     0.11100   0.98300   0.28950   0.01267  Uiso   1.00
C7     C     0.88170   0.01760   0.21080   0.01267  Uiso   1.00
C8     C     0.88170   0.98240   0.28920   0.01267  Uiso   1.00
C9     C     0.23080   0.96130   0.33330   0.01267  Uiso   1.00
C10    C     0.51720   0.72170   0.14070   0.01267  Uiso   1.00
C11    C     0.50590   0.61030   0.48000   0.01267  Uiso   1.00
C12    C     0.51720   0.27830   0.35930   0.01267  Uiso   1.00
C13    C     0.51020   0.49730   0.08650   0.01267  Uiso   1.00
C14    C     0.51020   0.50270   0.41350   0.01267  Uiso   1.00
C15    C     0.48280   0.27830   0.85930   0.01267  Uiso   1.00
C16    C     0.99680   0.03270   0.17290   0.01267  Uiso   1.00
C17    C     0.76920   0.96130   0.83330   0.01267  Uiso   1.00
C18    C     0.11830   0.98240   0.78920   0.01267  Uiso   1.00
C19    C     0.49560   0.60750   0.56740   0.01267  Uiso   1.00
C20    C     0.47670   0.72460   0.95210   0.01267  Uiso   1.00
C21    C     0.23080   0.03870   0.16670   0.01267  Uiso   1.00
C22    C     0.99680   0.96730   0.32710   0.01267  Uiso   1.00
C23    C     0.11100   0.01700   0.21050   0.01267  Uiso   1.00
C24    C     0.52330   0.72460   0.45210   0.01267  Uiso   1.00
C25    C     0.48980   0.49730   0.58650   0.01267  Uiso   1.00
C26    C     0.48280   0.72170   0.64070   0.01267  Uiso   1.00
C27    C     0.23640   0.04380   0.66590   0.01267  Uiso   1.00
C28    C     0.88900   0.98300   0.78950   0.01267  Uiso   1.00
C29    C     0.50440   0.39250   0.43260   0.01267  Uiso   1.00
C30    C     0.52330   0.27540   0.04790   0.01267  Uiso   1.00
C31    C     0.76360   0.95620   0.33410   0.01267  Uiso   1.00
C32    C     0.76920   0.03870   0.66670   0.01267  Uiso   1.00
C33    C     0.49560   0.39250   0.93260   0.01267  Uiso   1.00
C34    C     0.50590   0.38970   0.02000   0.01267  Uiso   1.00
C35    C     0.50440   0.60750   0.06740   0.01267  Uiso   1.00
C36    C     0.47670   0.27540   0.54790   0.01267  Uiso   1.00
C37    C     0.00320   0.96730   0.82710   0.01267  Uiso   1.00
C38    C     0.49410   0.61030   0.98000   0.01267  Uiso   1.00
C39    C     0.48980   0.50270   0.91350   0.01267  Uiso   1.00
C40    C     0.88900   0.01700   0.71050   0.01267  Uiso   1.00
O1     O     0.31950   0.89180   0.78930   0.01267  Uiso   1.00
O2     O     0.31950   0.10820   0.71070   0.01267  Uiso   1.00
O3     O     0.51250   0.28420   0.78270   0.01267  Uiso   1.00
O4     O     0.49840   0.00580   0.58290   0.01267  Uiso   1.00
O5     O     0.23390   0.99950   0.91720   0.01267  Uiso   1.00
O6     O     0.44050   0.25200   0.09750   0.01267  Uiso   1.00
O7     O     0.23320   0.01050   0.41520   0.01267  Uiso   1.00
O8     O     0.55950   0.74800   0.90250   0.01267  Uiso   1.00
O9     O     0.48750   0.71580   0.21730   0.01267  Uiso   1.00
O10    O     0.62280   0.78270   0.47450   0.01267  Uiso   1.00
O11    O     0.62280   0.21730   0.02550   0.01267  Uiso   1.00
O12    O     0.50160   0.99420   0.41710   0.01267  Uiso   1.00
O13    O     0.51250   0.71580   0.71730   0.01267  Uiso   1.00
O14    O     0.49840   0.99420   0.91710   0.01267  Uiso   1.00
O15    O     0.48750   0.28420   0.28270   0.01267  Uiso   1.00
O16    O     0.76610   0.00050   0.08280   0.01267  Uiso   1.00
O17    O     0.68630   0.10420   0.71200   0.01267  Uiso   1.00
O18    O     0.76610   0.99950   0.41720   0.01267  Uiso   1.00
O19    O     0.55950   0.25200   0.59750   0.01267  Uiso   1.00
O20    O     0.37720   0.78270   0.97450   0.01267  Uiso   1.00
O21    O     0.23390   0.00050   0.58280   0.01267  Uiso   1.00
O22    O     0.68050   0.10820   0.21070   0.01267  Uiso   1.00
O23    O     0.31370   0.89580   0.28800   0.01267  Uiso   1.00
O24    O     0.50160   0.00580   0.08290   0.01267  Uiso   1.00
O25    O     0.44050   0.74800   0.40250   0.01267  Uiso   1.00
O26    O     0.68050   0.89180   0.28930   0.01267  Uiso   1.00
O27    O     0.76680   0.01050   0.91520   0.01267  Uiso   1.00
O28    O     0.44220   0.18820   0.87760   0.01267  Uiso   1.00
O29    O     0.55780   0.18820   0.37760   0.01267  Uiso   1.00
O30    O     0.55780   0.81180   0.12240   0.01267  Uiso   1.00
O31    O     0.76680   0.98950   0.58480   0.01267  Uiso   1.00
O32    O     0.68630   0.89580   0.78800   0.01267  Uiso   1.00
O33    O     0.37720   0.21730   0.52550   0.01267  Uiso   1.00
O34    O     0.44220   0.81180   0.62240   0.01267  Uiso   1.00
O35    O     0.31370   0.10420   0.21200   0.01267  Uiso   1.00
O36    O     0.23320   0.98950   0.08480   0.01267  Uiso   1.00
H13    H     0.07050   0.65310   0.85660   0.01267  Uiso   1.00
H14    H     0.21600   0.74590   0.01320   0.01267  Uiso   1.00
H15    H     0.06520   0.54810   0.69540   0.01267  Uiso   1.00
H16    H     0.20770   0.54910   0.96310   0.01267  Uiso   1.00
H17    H     0.21050   0.54630   0.70580   0.01267  Uiso   1.00
H18    H     0.06910   0.55530   0.96570   0.01267  Uiso   1.00
H19    H     0.14850   0.30300   0.41820   0.01267  Uiso   1.00
H20    H     0.21340   0.35720   0.64430   0.01267  Uiso   1.00
H21    H     0.07050   0.34690   0.64340   0.01267  Uiso   1.00
H22    H     0.21600   0.25410   0.48680   0.01267  Uiso   1.00
H23    H     0.06520   0.45190   0.80460   0.01267  Uiso   1.00
H24    H     0.06910   0.44470   0.53430   0.01267  Uiso   1.00
H25    H     0.21050   0.45370   0.79420   0.01267  Uiso   1.00
H26    H     0.07440   0.25330   0.47570   0.01267  Uiso   1.00
H27    H     0.21340   0.64280   0.85570   0.01267  Uiso   1.00
H28    H     0.14850   0.69700   0.08180   0.01267  Uiso   1.00
H29    H     0.20770   0.45090   0.53690   0.01267  Uiso   1.00
H30    H     0.07440   0.74670   0.02430   0.01267  Uiso   1.00
C41    C     0.13540   0.50840   0.70410   0.01267  Uiso   1.00
C42    C     0.13540   0.49160   0.79590   0.01267  Uiso   1.00
C43    C     0.14020   0.40650   0.54300   0.01267  Uiso   1.00
C44    C     0.13880   0.38750   0.63290   0.01267  Uiso   1.00
C45    C     0.13880   0.61250   0.86710   0.01267  Uiso   1.00
C46    C     0.14020   0.59350   0.95700   0.01267  Uiso   1.00
N1     N     0.14770   0.70840   0.02750   0.01267  Uiso   1.00
N2     N     0.14770   0.29160   0.47250   0.01267  Uiso   1.00
H31    H     0.93480   0.54810   0.19540   0.01267  Uiso   1.00
H32    H     0.92950   0.65310   0.35660   0.01267  Uiso   1.00
H33    H     0.78950   0.54630   0.20580   0.01267  Uiso   1.00
H34    H     0.78400   0.74590   0.51320   0.01267  Uiso   1.00
H35    H     0.78950   0.45370   0.29420   0.01267  Uiso   1.00
H36    H     0.78660   0.35720   0.14430   0.01267  Uiso   1.00
H37    H     0.78400   0.25410   0.98680   0.01267  Uiso   1.00
H38    H     0.93480   0.45190   0.30460   0.01267  Uiso   1.00
H39    H     0.92560   0.74670   0.52430   0.01267  Uiso   1.00
H40    H     0.93090   0.55530   0.46570   0.01267  Uiso   1.00
H41    H     0.85150   0.30300   0.91820   0.01267  Uiso   1.00
H42    H     0.85150   0.69700   0.58180   0.01267  Uiso   1.00
H43    H     0.78660   0.64280   0.35570   0.01267  Uiso   1.00
H44    H     0.92560   0.25330   0.97570   0.01267  Uiso   1.00
H45    H     0.79230   0.45090   0.03690   0.01267  Uiso   1.00
H46    H     0.79230   0.54910   0.46310   0.01267  Uiso   1.00
H47    H     0.93090   0.44470   0.03430   0.01267  Uiso   1.00
H48    H     0.92950   0.34690   0.14340   0.01267  Uiso   1.00
C47    C     0.86120   0.61250   0.36710   0.01267  Uiso   1.00
C48    C     0.85980   0.59350   0.45700   0.01267  Uiso   1.00
C49    C     0.86460   0.50840   0.20410   0.01267  Uiso   1.00
C50    C     0.86120   0.38750   0.13290   0.01267  Uiso   1.00
C51    C     0.86460   0.49160   0.29590   0.01267  Uiso   1.00
C52    C     0.85980   0.40650   0.04300   0.01267  Uiso   1.00
N3     N     0.85230   0.70840   0.52750   0.01267  Uiso   1.00
N4     N     0.85230   0.29160   0.97250   0.01267  Uiso   1.00
