data_image0
_cell_length_a       12.143
_cell_length_b       24.875
_cell_length_c       19.669
_cell_angle_alpha    90
_cell_angle_beta     102.9
_cell_angle_gamma    90

_symmetry_space_group_name_H-M    "P 1"
_symmetry_int_tables_number       1

loop_
  _symmetry_equiv_pos_as_xyz
  'x, y, z'

loop_
  _atom_site_label
  _atom_site_occupancy
  _atom_site_fract_x
  _atom_site_fract_y
  _atom_site_fract_z
  _atom_site_thermal_displace_type
  _atom_site_B_iso_or_equiv
  _atom_site_type_symbol
  Nd1      1.0000 0.92056  0.44954  0.05523  Biso   1.000  Nd
  O1       1.0000 0.02500  0.39930  0.98380  Biso   1.000  O
  O2       1.0000 0.74180  0.45320  0.10300  Biso   1.000  O
  O3       1.0000 0.90280  0.46860  0.17570  Biso   1.000  O
  O4       1.0000 0.76310  0.45430  0.94960  Biso   1.000  O
  O5       1.0000 0.09170  0.50130  0.07030  Biso   1.000  O
  O6       1.0000 0.86400  0.54350  0.05710  Biso   1.000  O
  C1       1.0000 0.11230  0.41200  0.96450  Biso   1.000  C
  C2       1.0000 0.79720  0.46730  0.16210  Biso   1.000  C
  C3       1.0000 0.20630  0.37080  0.97870  Biso   1.000  C
  C4       1.0000 0.73640  0.48180  0.21850  Biso   1.000  C
  C5       1.0000 0.18270  0.31720  0.98640  Biso   1.000  C
  C6       1.0000 0.32460  0.38980  0.99760  Biso   1.000  C
  C7       1.0000 0.61930  0.48210  0.20520  Biso   1.000  C
  C8       1.0000 0.79940  0.49310  0.28530  Biso   1.000  C
  C9       1.0000 0.27300  0.28180  0.01150  Biso   1.000  C
  H1       1.0000 0.10860  0.30470  0.97530  Biso   1.000  H
  C10      1.0000 0.41580  0.35620  0.02370  Biso   1.000  C
  H2       1.0000 0.33880  0.42610  0.99180  Biso   1.000  H
  H3       1.0000 0.57790  0.47320  0.16090  Biso   1.000  H
  C11      1.0000 0.56230  0.49550  0.25740  Biso   1.000  C
  H4       1.0000 0.87790  0.49190  0.29480  Biso   1.000  H
  C12      1.0000 0.74380  0.50610  0.33750  Biso   1.000  C
  C13      1.0000 0.39110  0.30190  0.03110  Biso   1.000  C
  C14      1.0000 0.53750  0.37380  0.03250  Biso   1.000  C
  C15      1.0000 0.62650  0.50830  0.32330  Biso   1.000  C
  C16      1.0000 0.80870  0.51860  0.41010  Biso   1.000  C
  H5       1.0000 0.44940  0.27800  0.04860  Biso   1.000  H
  O7       1.0000 0.53490  0.42060  0.03750  Biso   1.000  O
  O8       1.0000 0.61050  0.34110  0.04630  Biso   1.000  O
  H6       1.0000 0.59040  0.51840  0.35830  Biso   1.000  H
  Nd2      1.0000 0.07944  0.44954  0.44477  Biso   1.000  Nd
  O9       1.0000 0.97500  0.39930  0.51620  Biso   1.000  O
  O10      1.0000 0.25820  0.45320  0.39700  Biso   1.000  O
  O11      1.0000 0.09720  0.46860  0.32430  Biso   1.000  O
  O12      1.0000 0.23690  0.45430  0.55040  Biso   1.000  O
  O13      1.0000 0.90830  0.50130  0.42970  Biso   1.000  O
  O14      1.0000 0.13600  0.54350  0.44290  Biso   1.000  O
  C17      1.0000 0.88770  0.41200  0.53550  Biso   1.000  C
  C18      1.0000 0.20280  0.46730  0.33790  Biso   1.000  C
  C19      1.0000 0.79370  0.37080  0.52130  Biso   1.000  C
  C20      1.0000 0.26360  0.48180  0.28150  Biso   1.000  C
  C21      1.0000 0.81730  0.31720  0.51360  Biso   1.000  C
  C22      1.0000 0.67540  0.38980  0.50240  Biso   1.000  C
  C23      1.0000 0.38070  0.48210  0.29480  Biso   1.000  C
  C24      1.0000 0.20060  0.49310  0.21470  Biso   1.000  C
  C25      1.0000 0.72700  0.28180  0.48850  Biso   1.000  C
  H7       1.0000 0.89140  0.30470  0.52470  Biso   1.000  H
  C26      1.0000 0.58420  0.35620  0.47630  Biso   1.000  C
  H8       1.0000 0.66120  0.42610  0.50820  Biso   1.000  H
  H9       1.0000 0.42210  0.47320  0.33910  Biso   1.000  H
  C27      1.0000 0.43770  0.49550  0.24260  Biso   1.000  C
  H10      1.0000 0.12210  0.49190  0.20520  Biso   1.000  H
  C28      1.0000 0.25620  0.50610  0.16250  Biso   1.000  C
  C29      1.0000 0.60890  0.30190  0.46890  Biso   1.000  C
  C30      1.0000 0.46250  0.37380  0.46750  Biso   1.000  C
  C31      1.0000 0.37350  0.50830  0.17670  Biso   1.000  C
  C32      1.0000 0.19130  0.51860  0.08990  Biso   1.000  C
  H11      1.0000 0.55060  0.27800  0.45140  Biso   1.000  H
  O15      1.0000 0.46510  0.42060  0.46250  Biso   1.000  O
  O16      1.0000 0.38950  0.34110  0.45370  Biso   1.000  O
  H12      1.0000 0.40960  0.51840  0.14170  Biso   1.000  H
  Nd3      1.0000 0.07944  0.55046  0.94477  Biso   1.000  Nd
  O17      1.0000 0.97500  0.60070  0.01620  Biso   1.000  O
  O18      1.0000 0.25820  0.54680  0.89700  Biso   1.000  O
  O19      1.0000 0.09720  0.53140  0.82430  Biso   1.000  O
  O20      1.0000 0.23690  0.54570  0.05040  Biso   1.000  O
  O21      1.0000 0.90830  0.49870  0.92970  Biso   1.000  O
  O22      1.0000 0.13600  0.45650  0.94290  Biso   1.000  O
  C33      1.0000 0.88770  0.58800  0.03550  Biso   1.000  C
  C34      1.0000 0.20280  0.53270  0.83790  Biso   1.000  C
  C35      1.0000 0.79370  0.62920  0.02130  Biso   1.000  C
  C36      1.0000 0.26360  0.51820  0.78150  Biso   1.000  C
  C37      1.0000 0.81730  0.68280  0.01360  Biso   1.000  C
  C38      1.0000 0.67540  0.61020  0.00240  Biso   1.000  C
  C39      1.0000 0.38070  0.51790  0.79480  Biso   1.000  C
  C40      1.0000 0.20060  0.50690  0.71470  Biso   1.000  C
  C41      1.0000 0.72700  0.71820  0.98850  Biso   1.000  C
  H13      1.0000 0.89140  0.69530  0.02470  Biso   1.000  H
  C42      1.0000 0.58420  0.64380  0.97630  Biso   1.000  C
  H14      1.0000 0.66120  0.57390  0.00820  Biso   1.000  H
  H15      1.0000 0.42210  0.52680  0.83910  Biso   1.000  H
  C43      1.0000 0.43770  0.50450  0.74260  Biso   1.000  C
  H16      1.0000 0.12210  0.50810  0.70520  Biso   1.000  H
  C44      1.0000 0.25620  0.49390  0.66250  Biso   1.000  C
  C45      1.0000 0.60890  0.69810  0.96890  Biso   1.000  C
  C46      1.0000 0.46250  0.62620  0.96750  Biso   1.000  C
  C47      1.0000 0.37350  0.49170  0.67670  Biso   1.000  C
  C48      1.0000 0.19130  0.48140  0.58990  Biso   1.000  C
  H17      1.0000 0.55060  0.72200  0.95140  Biso   1.000  H
  O23      1.0000 0.46510  0.57940  0.96250  Biso   1.000  O
  O24      1.0000 0.38950  0.65890  0.95370  Biso   1.000  O
  H18      1.0000 0.40960  0.48160  0.64170  Biso   1.000  H
  Nd4      1.0000 0.92056  0.55046  0.55523  Biso   1.000  Nd
  O25      1.0000 0.02500  0.60070  0.48380  Biso   1.000  O
  O26      1.0000 0.74180  0.54680  0.60300  Biso   1.000  O
  O27      1.0000 0.90280  0.53140  0.67570  Biso   1.000  O
  O28      1.0000 0.76310  0.54570  0.44960  Biso   1.000  O
  O29      1.0000 0.09170  0.49870  0.57030  Biso   1.000  O
  O30      1.0000 0.86400  0.45650  0.55710  Biso   1.000  O
  C49      1.0000 0.11230  0.58800  0.46450  Biso   1.000  C
  C50      1.0000 0.79720  0.53270  0.66210  Biso   1.000  C
  C51      1.0000 0.20630  0.62920  0.47870  Biso   1.000  C
  C52      1.0000 0.73640  0.51820  0.71850  Biso   1.000  C
  C53      1.0000 0.18270  0.68280  0.48640  Biso   1.000  C
  C54      1.0000 0.32460  0.61020  0.49760  Biso   1.000  C
  C55      1.0000 0.61930  0.51790  0.70520  Biso   1.000  C
  C56      1.0000 0.79940  0.50690  0.78530  Biso   1.000  C
  C57      1.0000 0.27300  0.71820  0.51150  Biso   1.000  C
  H19      1.0000 0.10860  0.69530  0.47530  Biso   1.000  H
  C58      1.0000 0.41580  0.64380  0.52370  Biso   1.000  C
  H20      1.0000 0.33880  0.57390  0.49180  Biso   1.000  H
  H21      1.0000 0.57790  0.52680  0.66090  Biso   1.000  H
  C59      1.0000 0.56230  0.50450  0.75740  Biso   1.000  C
  H22      1.0000 0.87790  0.50810  0.79480  Biso   1.000  H
  C60      1.0000 0.74380  0.49390  0.83750  Biso   1.000  C
  C61      1.0000 0.39110  0.69810  0.53110  Biso   1.000  C
  C62      1.0000 0.53750  0.62620  0.53250  Biso   1.000  C
  C63      1.0000 0.62650  0.49170  0.82330  Biso   1.000  C
  C64      1.0000 0.80870  0.48140  0.91010  Biso   1.000  C
  H23      1.0000 0.44940  0.72200  0.54860  Biso   1.000  H
  O31      1.0000 0.53490  0.57940  0.53750  Biso   1.000  O
  O32      1.0000 0.61050  0.65890  0.54630  Biso   1.000  O
  H24      1.0000 0.59040  0.48160  0.85830  Biso   1.000  H
  Nd5      1.0000 0.42056  0.94954  0.05523  Biso   1.000  Nd
  O33      1.0000 0.52500  0.89930  0.98380  Biso   1.000  O
  O34      1.0000 0.24180  0.95320  0.10300  Biso   1.000  O
  O35      1.0000 0.40280  0.96860  0.17570  Biso   1.000  O
  O36      1.0000 0.26310  0.95430  0.94960  Biso   1.000  O
  O37      1.0000 0.59170  0.00130  0.07030  Biso   1.000  O
  O38      1.0000 0.36400  0.04350  0.05710  Biso   1.000  O
  C65      1.0000 0.61230  0.91200  0.96450  Biso   1.000  C
  C66      1.0000 0.29720  0.96730  0.16210  Biso   1.000  C
  C67      1.0000 0.70630  0.87080  0.97870  Biso   1.000  C
  C68      1.0000 0.23640  0.98180  0.21850  Biso   1.000  C
  C69      1.0000 0.68270  0.81720  0.98640  Biso   1.000  C
  C70      1.0000 0.82460  0.88980  0.99760  Biso   1.000  C
  C71      1.0000 0.11930  0.98210  0.20520  Biso   1.000  C
  C72      1.0000 0.29940  0.99310  0.28530  Biso   1.000  C
  C73      1.0000 0.77300  0.78180  0.01150  Biso   1.000  C
  H25      1.0000 0.60860  0.80470  0.97530  Biso   1.000  H
  C74      1.0000 0.91580  0.85620  0.02370  Biso   1.000  C
  H26      1.0000 0.83880  0.92610  0.99180  Biso   1.000  H
  H27      1.0000 0.07790  0.97320  0.16090  Biso   1.000  H
  C75      1.0000 0.06230  0.99550  0.25740  Biso   1.000  C
  H28      1.0000 0.37790  0.99190  0.29480  Biso   1.000  H
  C76      1.0000 0.24380  0.00610  0.33750  Biso   1.000  C
  C77      1.0000 0.89110  0.80190  0.03110  Biso   1.000  C
  C78      1.0000 0.03750  0.87380  0.03250  Biso   1.000  C
  C79      1.0000 0.12650  0.00830  0.32330  Biso   1.000  C
  C80      1.0000 0.30870  0.01860  0.41010  Biso   1.000  C
  H29      1.0000 0.94940  0.77800  0.04860  Biso   1.000  H
  O39      1.0000 0.03490  0.92060  0.03750  Biso   1.000  O
  O40      1.0000 0.11050  0.84110  0.04630  Biso   1.000  O
  H30      1.0000 0.09040  0.01840  0.35830  Biso   1.000  H
  Nd6      1.0000 0.57944  0.94954  0.44477  Biso   1.000  Nd
  O41      1.0000 0.47500  0.89930  0.51620  Biso   1.000  O
  O42      1.0000 0.75820  0.95320  0.39700  Biso   1.000  O
  O43      1.0000 0.59720  0.96860  0.32430  Biso   1.000  O
  O44      1.0000 0.73690  0.95430  0.55040  Biso   1.000  O
  O45      1.0000 0.40830  0.00130  0.42970  Biso   1.000  O
  O46      1.0000 0.63600  0.04350  0.44290  Biso   1.000  O
  C81      1.0000 0.38770  0.91200  0.53550  Biso   1.000  C
  C82      1.0000 0.70280  0.96730  0.33790  Biso   1.000  C
  C83      1.0000 0.29370  0.87080  0.52130  Biso   1.000  C
  C84      1.0000 0.76360  0.98180  0.28150  Biso   1.000  C
  C85      1.0000 0.31730  0.81720  0.51360  Biso   1.000  C
  C86      1.0000 0.17540  0.88980  0.50240  Biso   1.000  C
  C87      1.0000 0.88070  0.98210  0.29480  Biso   1.000  C
  C88      1.0000 0.70060  0.99310  0.21470  Biso   1.000  C
  C89      1.0000 0.22700  0.78180  0.48850  Biso   1.000  C
  H31      1.0000 0.39140  0.80470  0.52470  Biso   1.000  H
  C90      1.0000 0.08420  0.85620  0.47630  Biso   1.000  C
  H32      1.0000 0.16120  0.92610  0.50820  Biso   1.000  H
  H33      1.0000 0.92210  0.97320  0.33910  Biso   1.000  H
  C91      1.0000 0.93770  0.99550  0.24260  Biso   1.000  C
  H34      1.0000 0.62210  0.99190  0.20520  Biso   1.000  H
  C92      1.0000 0.75620  0.00610  0.16250  Biso   1.000  C
  C93      1.0000 0.10890  0.80190  0.46890  Biso   1.000  C
  C94      1.0000 0.96250  0.87380  0.46750  Biso   1.000  C
  C95      1.0000 0.87350  0.00830  0.17670  Biso   1.000  C
  C96      1.0000 0.69130  0.01860  0.08990  Biso   1.000  C
  H35      1.0000 0.05060  0.77800  0.45140  Biso   1.000  H
  O47      1.0000 0.96510  0.92060  0.46250  Biso   1.000  O
  O48      1.0000 0.88950  0.84110  0.45370  Biso   1.000  O
  H36      1.0000 0.90960  0.01840  0.14170  Biso   1.000  H
  Nd7      1.0000 0.57944  0.05046  0.94477  Biso   1.000  Nd
  O49      1.0000 0.47500  0.10070  0.01620  Biso   1.000  O
  O50      1.0000 0.75820  0.04680  0.89700  Biso   1.000  O
  O51      1.0000 0.59720  0.03140  0.82430  Biso   1.000  O
  O52      1.0000 0.73690  0.04570  0.05040  Biso   1.000  O
  O53      1.0000 0.40830  0.99870  0.92970  Biso   1.000  O
  O54      1.0000 0.63600  0.95650  0.94290  Biso   1.000  O
  C97      1.0000 0.38770  0.08800  0.03550  Biso   1.000  C
  C98      1.0000 0.70280  0.03270  0.83790  Biso   1.000  C
  C99      1.0000 0.29370  0.12920  0.02130  Biso   1.000  C
  C100     1.0000 0.76360  0.01820  0.78150  Biso   1.000  C
  C101     1.0000 0.31730  0.18280  0.01360  Biso   1.000  C
  C102     1.0000 0.17540  0.11020  0.00240  Biso   1.000  C
  C103     1.0000 0.88070  0.01790  0.79480  Biso   1.000  C
  C104     1.0000 0.70060  0.00690  0.71470  Biso   1.000  C
  C105     1.0000 0.22700  0.21820  0.98850  Biso   1.000  C
  H37      1.0000 0.39140  0.19530  0.02470  Biso   1.000  H
  C106     1.0000 0.08420  0.14380  0.97630  Biso   1.000  C
  H38      1.0000 0.16120  0.07390  0.00820  Biso   1.000  H
  H39      1.0000 0.92210  0.02680  0.83910  Biso   1.000  H
  C107     1.0000 0.93770  0.00450  0.74260  Biso   1.000  C
  H40      1.0000 0.62210  0.00810  0.70520  Biso   1.000  H
  C108     1.0000 0.75620  0.99390  0.66250  Biso   1.000  C
  C109     1.0000 0.10890  0.19810  0.96890  Biso   1.000  C
  C110     1.0000 0.96250  0.12620  0.96750  Biso   1.000  C
  C111     1.0000 0.87350  0.99170  0.67670  Biso   1.000  C
  C112     1.0000 0.69130  0.98140  0.58990  Biso   1.000  C
  H41      1.0000 0.05060  0.22200  0.95140  Biso   1.000  H
  O55      1.0000 0.96510  0.07940  0.96250  Biso   1.000  O
  O56      1.0000 0.88950  0.15890  0.95370  Biso   1.000  O
  H42      1.0000 0.90960  0.98160  0.64170  Biso   1.000  H
  Nd8      1.0000 0.42056  0.05046  0.55523  Biso   1.000  Nd
  O57      1.0000 0.52500  0.10070  0.48380  Biso   1.000  O
  O58      1.0000 0.24180  0.04680  0.60300  Biso   1.000  O
  O59      1.0000 0.40280  0.03140  0.67570  Biso   1.000  O
  O60      1.0000 0.26310  0.04570  0.44960  Biso   1.000  O
  O61      1.0000 0.59170  0.99870  0.57030  Biso   1.000  O
  O62      1.0000 0.36400  0.95650  0.55710  Biso   1.000  O
  C113     1.0000 0.61230  0.08800  0.46450  Biso   1.000  C
  C114     1.0000 0.29720  0.03270  0.66210  Biso   1.000  C
  C115     1.0000 0.70630  0.12920  0.47870  Biso   1.000  C
  C116     1.0000 0.23640  0.01820  0.71850  Biso   1.000  C
  C117     1.0000 0.68270  0.18280  0.48640  Biso   1.000  C
  C118     1.0000 0.82460  0.11020  0.49760  Biso   1.000  C
  C119     1.0000 0.11930  0.01790  0.70520  Biso   1.000  C
  C120     1.0000 0.29940  0.00690  0.78530  Biso   1.000  C
  C121     1.0000 0.77300  0.21820  0.51150  Biso   1.000  C
  H43      1.0000 0.60860  0.19530  0.47530  Biso   1.000  H
  C122     1.0000 0.91580  0.14380  0.52370  Biso   1.000  C
  H44      1.0000 0.83880  0.07390  0.49180  Biso   1.000  H
  H45      1.0000 0.07790  0.02680  0.66090  Biso   1.000  H
  C123     1.0000 0.06230  0.00450  0.75740  Biso   1.000  C
  H46      1.0000 0.37790  0.00810  0.79480  Biso   1.000  H
  C124     1.0000 0.24380  0.99390  0.83750  Biso   1.000  C
  C125     1.0000 0.89110  0.19810  0.53110  Biso   1.000  C
  C126     1.0000 0.03750  0.12620  0.53250  Biso   1.000  C
  C127     1.0000 0.12650  0.99170  0.82330  Biso   1.000  C
  C128     1.0000 0.30870  0.98140  0.91010  Biso   1.000  C
  H47      1.0000 0.94940  0.22200  0.54860  Biso   1.000  H
  O63      1.0000 0.03490  0.07940  0.53750  Biso   1.000  O
  O64      1.0000 0.11050  0.15890  0.54630  Biso   1.000  O
  H48      1.0000 0.09040  0.98160  0.85830  Biso   1.000  H
