data_image0
_cell_length_a       11.66
_cell_length_b       12.245
_cell_length_c       13.568
_cell_angle_alpha    64.88
_cell_angle_beta     68.25
_cell_angle_gamma    88.14

_symmetry_space_group_name_H-M    "P 1"
_symmetry_int_tables_number       1

loop_
  _symmetry_equiv_pos_as_xyz
  'x, y, z'

loop_
  _atom_site_label
  _atom_site_occupancy
  _atom_site_fract_x
  _atom_site_fract_y
  _atom_site_fract_z
  _atom_site_thermal_displace_type
  _atom_site_B_iso_or_equiv
  _atom_site_type_symbol
  Eu1      1.0000 0.07117  0.17060  0.17231  Biso   1.000  Eu
  O1       1.0000 0.21000  0.19360  0.97990  Biso   1.000  O
  O2       1.0000 0.02810  0.97010  0.18630  Biso   1.000  O
  O3       1.0000 0.93430  0.15730  0.05590  Biso   1.000  O
  O4       1.0000 0.94070  0.87130  0.62860  Biso   1.000  O
  O5       1.0000 0.76600  0.94450  0.79170  Biso   1.000  O
  O6       1.0000 0.00130  0.69960  0.72340  Biso   1.000  O
  O7       1.0000 0.97670  0.33130  0.05490  Biso   1.000  O
  O8       1.0000 0.76280  0.67640  0.90240  Biso   1.000  O
  O9       1.0000 0.95900  0.81110  0.18040  Biso   1.000  O
  O10      1.0000 0.21480  0.04650  0.92490  Biso   1.000  O
  O11      1.0000 0.64340  0.67230  0.80860  Biso   1.000  O
  C1       1.0000 0.99320  0.85600  0.23370  Biso   1.000  C
  C2       1.0000 0.99380  0.77360  0.35180  Biso   1.000  C
  C3       1.0000 0.71080  0.62300  0.86550  Biso   1.000  C
  C4       1.0000 0.26770  0.12640  0.93560  Biso   1.000  C
  C5       1.0000 0.40810  0.13870  0.89330  Biso   1.000  C
  C6       1.0000 0.46710  0.05170  0.85800  Biso   1.000  C
  H1       1.0000 0.42150  0.99590  0.85160  Biso   1.000  H
  C7       1.0000 0.59170  0.04950  0.83320  Biso   1.000  C
  C8       1.0000 0.66000  0.13310  0.84180  Biso   1.000  C
  H2       1.0000 0.74520  0.13200  0.82230  Biso   1.000  H
  C9       1.0000 0.60390  0.21930  0.87910  Biso   1.000  C
  C10      1.0000 0.47540  0.22120  0.90330  Biso   1.000  C
  H3       1.0000 0.43570  0.27880  0.92620  Biso   1.000  H
  C11      1.0000 0.97660  0.77070  0.63640  Biso   1.000  C
  C12      1.0000 0.92110  0.26860  0.02920  Biso   1.000  C
  C13      1.0000 0.65330  0.94810  0.80870  Biso   1.000  C
  C14      1.0000 0.99020  0.81560  0.43300  Biso   1.000  C
  H4       1.0000 0.98930  0.89770  0.41500  Biso   1.000  H
  O12      1.0000 0.58130  0.86960  0.80890  Biso   1.000  O
  C15      1.0000 0.99610  0.65020  0.37980  Biso   1.000  C
  H5       1.0000 0.99680  0.62400  0.32450  Biso   1.000  H
  C16      1.0000 0.99730  0.56520  0.48650  Biso   1.000  C
  C17      1.0000 0.99170  0.60880  0.56790  Biso   1.000  C
  H6       1.0000 0.99050  0.55430  0.64140  Biso   1.000  H
  C18      1.0000 0.98800  0.73080  0.54240  Biso   1.000  C
  C19      1.0000 0.81620  0.44380  0.94010  Biso   1.000  C
  H7       1.0000 0.86340  0.49240  0.95280  Biso   1.000  H
  C20      1.0000 0.83310  0.32310  0.96980  Biso   1.000  C
  C21      1.0000 0.76350  0.25110  0.94880  Biso   1.000  C
  H8       1.0000 0.77460  0.17000  0.96850  Biso   1.000  H
  C22      1.0000 0.67700  0.29960  0.89840  Biso   1.000  C
  C23      1.0000 0.65900  0.42150  0.87120  Biso   1.000  C
  H9       1.0000 0.60030  0.45410  0.83980  Biso   1.000  H
  C24      1.0000 0.72940  0.49320  0.89160  Biso   1.000  C
  Eu2      1.0000 0.92883  0.82940  0.82769  Biso   1.000  Eu
  O13      1.0000 0.79000  0.80640  0.02010  Biso   1.000  O
  O14      1.0000 0.97190  0.02990  0.81370  Biso   1.000  O
  O15      1.0000 0.06570  0.84270  0.94410  Biso   1.000  O
  O16      1.0000 0.05930  0.12870  0.37140  Biso   1.000  O
  O17      1.0000 0.23400  0.05550  0.20830  Biso   1.000  O
  O18      1.0000 0.99870  0.30040  0.27660  Biso   1.000  O
  O19      1.0000 0.02330  0.66870  0.94510  Biso   1.000  O
  O20      1.0000 0.23720  0.32360  0.09760  Biso   1.000  O
  O21      1.0000 0.04100  0.18890  0.81960  Biso   1.000  O
  O22      1.0000 0.78520  0.95350  0.07510  Biso   1.000  O
  O23      1.0000 0.35660  0.32770  0.19140  Biso   1.000  O
  C25      1.0000 0.00680  0.14400  0.76630  Biso   1.000  C
  C26      1.0000 0.00620  0.22640  0.64820  Biso   1.000  C
  C27      1.0000 0.28920  0.37700  0.13450  Biso   1.000  C
  C28      1.0000 0.73230  0.87360  0.06440  Biso   1.000  C
  C29      1.0000 0.59190  0.86130  0.10670  Biso   1.000  C
  C30      1.0000 0.53290  0.94830  0.14200  Biso   1.000  C
  H10      1.0000 0.57850  0.00410  0.14840  Biso   1.000  H
  C31      1.0000 0.40830  0.95050  0.16680  Biso   1.000  C
  C32      1.0000 0.34000  0.86690  0.15820  Biso   1.000  C
  H11      1.0000 0.25480  0.86800  0.17770  Biso   1.000  H
  C33      1.0000 0.39610  0.78070  0.12090  Biso   1.000  C
  C34      1.0000 0.52460  0.77880  0.09670  Biso   1.000  C
  H12      1.0000 0.56430  0.72120  0.07380  Biso   1.000  H
  C35      1.0000 0.02340  0.22930  0.36360  Biso   1.000  C
  C36      1.0000 0.07890  0.73140  0.97080  Biso   1.000  C
  C37      1.0000 0.34670  0.05190  0.19130  Biso   1.000  C
  C38      1.0000 0.00980  0.18440  0.56700  Biso   1.000  C
  H13      1.0000 0.01070  0.10230  0.58500  Biso   1.000  H
  O24      1.0000 0.41870  0.13040  0.19110  Biso   1.000  O
  C39      1.0000 0.00390  0.34980  0.62020  Biso   1.000  C
  H14      1.0000 0.00320  0.37600  0.67550  Biso   1.000  H
  C40      1.0000 0.00270  0.43480  0.51350  Biso   1.000  C
  C41      1.0000 0.00830  0.39120  0.43210  Biso   1.000  C
  H15      1.0000 0.00950  0.44570  0.35860  Biso   1.000  H
  C42      1.0000 0.01200  0.26920  0.45760  Biso   1.000  C
  C43      1.0000 0.18380  0.55620  0.05990  Biso   1.000  C
  H16      1.0000 0.13660  0.50760  0.04720  Biso   1.000  H
  C44      1.0000 0.16690  0.67690  0.03020  Biso   1.000  C
  C45      1.0000 0.23650  0.74890  0.05120  Biso   1.000  C
  H17      1.0000 0.22540  0.83000  0.03150  Biso   1.000  H
  C46      1.0000 0.32300  0.70040  0.10160  Biso   1.000  C
  C47      1.0000 0.34100  0.57850  0.12880  Biso   1.000  C
  H18      1.0000 0.39970  0.54590  0.16020  Biso   1.000  H
  C48      1.0000 0.27060  0.50680  0.10840  Biso   1.000  C
  Eu3      1.0000 0.00000  0.00000  0.00000  Biso   1.000  Eu
