data_image0
_cell_length_a       11.647
_cell_length_b       12.247
_cell_length_c       13.604
_cell_angle_alpha    65.01
_cell_angle_beta     67.88
_cell_angle_gamma    88.32

_symmetry_space_group_name_H-M    "P 1"
_symmetry_int_tables_number       1

loop_
  _symmetry_equiv_pos_as_xyz
  'x, y, z'

loop_
  _atom_site_label
  _atom_site_occupancy
  _atom_site_fract_x
  _atom_site_fract_y
  _atom_site_fract_z
  _atom_site_thermal_displace_type
  _atom_site_B_iso_or_equiv
  _atom_site_type_symbol
  O1       1.0000 0.47510  0.03070  0.31170  Biso   1.000  O
  O2       1.0000 0.54030  0.19000  0.31970  Biso   1.000  O
  O3       1.0000 0.28240  0.95220  0.58040  Biso   1.000  O
  O4       1.0000 0.56730  0.84230  0.44210  Biso   1.000  O
  C1       1.0000 0.49100  0.85570  0.73500  Biso   1.000  C
  Sm1      1.0000 0.57053  0.17117  0.67186  Biso   1.000  Sm
  C2       1.0000 0.76910  0.12750  0.43220  Biso   1.000  C
  C3       1.0000 0.49230  0.77270  0.85240  Biso   1.000  C
  O5       1.0000 0.73970  0.32550  0.59360  Biso   1.000  O
  O6       1.0000 0.70930  0.19200  0.47790  Biso   1.000  O
  O7       1.0000 0.50040  0.30230  0.77600  Biso   1.000  O
  O8       1.0000 0.56000  0.12920  0.87130  Biso   1.000  O
  O9       1.0000 0.47480  0.33190  0.55560  Biso   1.000  O
  O10      1.0000 0.73520  0.05660  0.70510  Biso   1.000  O
  C4       1.0000 0.90820  0.13730  0.39280  Biso   1.000  C
  C5       1.0000 0.48910  0.81480  0.93380  Biso   1.000  C
  C6       1.0000 0.49620  0.65000  0.87950  Biso   1.000  C
  C7       1.0000 0.97600  0.22100  0.40330  Biso   1.000  C
  C8       1.0000 0.96830  0.05140  0.35750  Biso   1.000  C
  C9       1.0000 0.48590  0.73110  0.04220  Biso   1.000  C
  H1       1.0000 0.48910  0.89700  0.91570  Biso   1.000  H
  C10      1.0000 0.49770  0.56450  0.98640  Biso   1.000  C
  H2       1.0000 0.49790  0.62400  0.82390  Biso   1.000  H
  C11      1.0000 0.10280  0.21920  0.37960  Biso   1.000  C
  H3       1.0000 0.93600  0.27830  0.42640  Biso   1.000  H
  H4       1.0000 0.92350  0.99620  0.34960  Biso   1.000  H
  C12      1.0000 0.09280  0.04860  0.33450  Biso   1.000  C
  C13      1.0000 0.49090  0.60900  0.06850  Biso   1.000  C
  C14      1.0000 0.47520  0.77050  0.13640  Biso   1.000  C
  C15      1.0000 0.16080  0.13190  0.34380  Biso   1.000  C
  C16      1.0000 0.17520  0.29810  0.40050  Biso   1.000  C
  C17      1.0000 0.15550  0.94820  0.30880  Biso   1.000  C
  H5       1.0000 0.48980  0.55530  0.14180  Biso   1.000  H
  H6       1.0000 0.24590  0.13030  0.32620  Biso   1.000  H
  C18      1.0000 0.15850  0.41970  0.37450  Biso   1.000  C
  C19      1.0000 0.26050  0.25120  0.45080  Biso   1.000  C
  O11      1.0000 0.08260  0.86890  0.31030  Biso   1.000  O
  C20      1.0000 0.22740  0.48990  0.39690  Biso   1.000  C
  H7       1.0000 0.10090  0.45330  0.34210  Biso   1.000  H
  C21      1.0000 0.33000  0.32230  0.47250  Biso   1.000  C
  H8       1.0000 0.27150  0.17020  0.47050  Biso   1.000  H
  C22      1.0000 0.20830  0.62160  0.37000  Biso   1.000  C
  C23      1.0000 0.31340  0.44330  0.44390  Biso   1.000  C
  C24      1.0000 0.41980  0.26800  0.52990  Biso   1.000  C
  O12      1.0000 0.14200  0.67020  0.31320  Biso   1.000  O
  H9       1.0000 0.36030  0.49230  0.45660  Biso   1.000  H
  O13      1.0000 0.52490  0.96930  0.68830  Biso   1.000  O
  O14      1.0000 0.45970  0.81000  0.68030  Biso   1.000  O
  O15      1.0000 0.71760  0.04780  0.41960  Biso   1.000  O
  O16      1.0000 0.43270  0.15770  0.55790  Biso   1.000  O
  C25      1.0000 0.50900  0.14430  0.26500  Biso   1.000  C
  Sm2      1.0000 0.42948  0.82883  0.32814  Biso   1.000  Sm
  C26      1.0000 0.23090  0.87250  0.56780  Biso   1.000  C
  C27      1.0000 0.50770  0.22730  0.14760  Biso   1.000  C
  O17      1.0000 0.26030  0.67450  0.40640  Biso   1.000  O
  O18      1.0000 0.29070  0.80800  0.52210  Biso   1.000  O
  O19      1.0000 0.49960  0.69770  0.22400  Biso   1.000  O
  O20      1.0000 0.44000  0.87080  0.12870  Biso   1.000  O
  O21      1.0000 0.52520  0.66810  0.44440  Biso   1.000  O
  O22      1.0000 0.26480  0.94340  0.29490  Biso   1.000  O
  C28      1.0000 0.09180  0.86270  0.60720  Biso   1.000  C
  C29      1.0000 0.51090  0.18520  0.06620  Biso   1.000  C
  C30      1.0000 0.50380  0.35000  0.12050  Biso   1.000  C
  C31      1.0000 0.02400  0.77900  0.59670  Biso   1.000  C
  C32      1.0000 0.03170  0.94860  0.64250  Biso   1.000  C
  C33      1.0000 0.51410  0.26890  0.95780  Biso   1.000  C
  H10      1.0000 0.51090  0.10300  0.08430  Biso   1.000  H
  C34      1.0000 0.50230  0.43550  0.01360  Biso   1.000  C
  H11      1.0000 0.50210  0.37600  0.17610  Biso   1.000  H
  C35      1.0000 0.89720  0.78080  0.62040  Biso   1.000  C
  H12      1.0000 0.06400  0.72170  0.57360  Biso   1.000  H
  H13      1.0000 0.07650  0.00380  0.65040  Biso   1.000  H
  C36      1.0000 0.90720  0.95140  0.66550  Biso   1.000  C
  C37      1.0000 0.50910  0.39100  0.93150  Biso   1.000  C
  C38      1.0000 0.52480  0.22950  0.86360  Biso   1.000  C
  C39      1.0000 0.83920  0.86810  0.65620  Biso   1.000  C
  C40      1.0000 0.82480  0.70190  0.59950  Biso   1.000  C
  C41      1.0000 0.84450  0.05180  0.69120  Biso   1.000  C
  H14      1.0000 0.51020  0.44470  0.85820  Biso   1.000  H
  H15      1.0000 0.75410  0.86970  0.67380  Biso   1.000  H
  C42      1.0000 0.84150  0.58030  0.62550  Biso   1.000  C
  C43      1.0000 0.73950  0.74880  0.54920  Biso   1.000  C
  O23      1.0000 0.91740  0.13110  0.68970  Biso   1.000  O
  C44      1.0000 0.77260  0.51010  0.60310  Biso   1.000  C
  H16      1.0000 0.89910  0.54670  0.65790  Biso   1.000  H
  C45      1.0000 0.67000  0.67770  0.52750  Biso   1.000  C
  H17      1.0000 0.72850  0.82980  0.52950  Biso   1.000  H
  C46      1.0000 0.79170  0.37840  0.63000  Biso   1.000  C
  C47      1.0000 0.68660  0.55670  0.55610  Biso   1.000  C
  C48      1.0000 0.58020  0.73200  0.47010  Biso   1.000  C
  O24      1.0000 0.85800  0.32980  0.68680  Biso   1.000  O
  H18      1.0000 0.63970  0.50770  0.54340  Biso   1.000  H
  Sm3      1.0000 0.50000  0.00000  0.50000  Biso   1.000  Sm
