data_image0
_cell_length_a       11.5976
_cell_length_b       12.213
_cell_length_c       13.5187
_cell_angle_alpha    65.039
_cell_angle_beta     68.351
_cell_angle_gamma    87.858

_symmetry_space_group_name_H-M    "P 1"
_symmetry_int_tables_number       1

loop_
  _symmetry_equiv_pos_as_xyz
  'x, y, z'

loop_
  _atom_site_label
  _atom_site_occupancy
  _atom_site_fract_x
  _atom_site_fract_y
  _atom_site_fract_z
  _atom_site_thermal_displace_type
  _atom_site_B_iso_or_equiv
  _atom_site_type_symbol
  O1       1.0000 0.97150  0.52860  0.31200  Biso   1.000  O
  O2       1.0000 0.06470  0.34480  0.44430  Biso   1.000  O
  O3       1.0000 0.78950  0.45340  0.57200  Biso   1.000  O
  O4       1.0000 0.03930  0.68470  0.32170  Biso   1.000  O
  Dy1      1.0000 0.07124  0.66999  0.67256  Biso   1.000  Dy
  C1       1.0000 0.99370  0.35910  0.73350  Biso   1.000  C
  C2       1.0000 0.26530  0.62780  0.43780  Biso   1.000  C
  O5       1.0000 0.23620  0.55720  0.70620  Biso   1.000  O
  O6       1.0000 0.97890  0.82780  0.55480  Biso   1.000  O
  O7       1.0000 0.05800  0.62960  0.86920  Biso   1.000  O
  O8       1.0000 0.99500  0.79990  0.77560  Biso   1.000  O
  O9       1.0000 0.20820  0.69430  0.48300  Biso   1.000  O
  O10      1.0000 0.23380  0.82250  0.60100  Biso   1.000  O
  C3       1.0000 0.99470  0.27480  0.85220  Biso   1.000  C
  C4       1.0000 0.40600  0.63830  0.39390  Biso   1.000  C
  C5       1.0000 0.99740  0.15030  0.87940  Biso   1.000  C
  C6       1.0000 0.99270  0.31660  0.93380  Biso   1.000  C
  C7       1.0000 0.47470  0.72270  0.40300  Biso   1.000  C
  C8       1.0000 0.46550  0.55330  0.35730  Biso   1.000  C
  C9       1.0000 0.99830  0.06570  0.98700  Biso   1.000  C
  H1       1.0000 0.99860  0.12400  0.82370  Biso   1.000  H
  C10      1.0000 0.98840  0.23260  0.04370  Biso   1.000  C
  H2       1.0000 0.99420  0.39930  0.91500  Biso   1.000  H
  C11      1.0000 0.60130  0.71950  0.37830  Biso   1.000  C
  H3       1.0000 0.43530  0.78100  0.42570  Biso   1.000  H
  C12      1.0000 0.59040  0.54980  0.33220  Biso   1.000  C
  H4       1.0000 0.41990  0.49830  0.34990  Biso   1.000  H
  C13      1.0000 0.99420  0.10810  0.06840  Biso   1.000  C
  C14      1.0000 0.97910  0.27060  0.13790  Biso   1.000  C
  C15      1.0000 0.67540  0.80060  0.39740  Biso   1.000  C
  C16      1.0000 0.65900  0.63430  0.34150  Biso   1.000  C
  C17      1.0000 0.65430  0.44940  0.30690  Biso   1.000  C
  H5       1.0000 0.99530  0.05350  0.14110  Biso   1.000  H
  C18      1.0000 0.76260  0.75170  0.44880  Biso   1.000  C
  C19      1.0000 0.65970  0.92150  0.37070  Biso   1.000  C
  H6       1.0000 0.74460  0.63320  0.32270  Biso   1.000  H
  O11      1.0000 0.58360  0.37120  0.30480  Biso   1.000  O
  C20      1.0000 0.83380  0.82220  0.46970  Biso   1.000  C
  H7       1.0000 0.77280  0.67020  0.46930  Biso   1.000  H
  H8       1.0000 0.60190  0.95540  0.33760  Biso   1.000  H
  C21      1.0000 0.72880  0.99280  0.39250  Biso   1.000  C
  C22      1.0000 0.92270  0.76700  0.52830  Biso   1.000  C
  C23      1.0000 0.81730  0.94330  0.44040  Biso   1.000  C
  C24      1.0000 0.71160  0.12230  0.36540  Biso   1.000  C
  H9       1.0000 0.86540  0.99190  0.45260  Biso   1.000  H
  O12      1.0000 0.64160  0.17160  0.31150  Biso   1.000  O
  O13      1.0000 0.02850  0.47140  0.68800  Biso   1.000  O
  O14      1.0000 0.93530  0.65520  0.55570  Biso   1.000  O
  O15      1.0000 0.21050  0.54660  0.42800  Biso   1.000  O
  O16      1.0000 0.96070  0.31530  0.67830  Biso   1.000  O
  Dy2      1.0000 0.92876  0.33001  0.32744  Biso   1.000  Dy
  C25      1.0000 0.00630  0.64090  0.26650  Biso   1.000  C
  C26      1.0000 0.73470  0.37220  0.56220  Biso   1.000  C
  O17      1.0000 0.76380  0.44280  0.29380  Biso   1.000  O
  O18      1.0000 0.02110  0.17220  0.44520  Biso   1.000  O
  O19      1.0000 0.94200  0.37040  0.13080  Biso   1.000  O
  O20      1.0000 0.00500  0.20010  0.22440  Biso   1.000  O
  O21      1.0000 0.79180  0.30570  0.51700  Biso   1.000  O
  O22      1.0000 0.76620  0.17750  0.39900  Biso   1.000  O
  C27      1.0000 0.00530  0.72520  0.14780  Biso   1.000  C
  C28      1.0000 0.59400  0.36170  0.60610  Biso   1.000  C
  C29      1.0000 0.00260  0.84970  0.12060  Biso   1.000  C
  C30      1.0000 0.00730  0.68340  0.06620  Biso   1.000  C
  C31      1.0000 0.52530  0.27730  0.59700  Biso   1.000  C
  C32      1.0000 0.53450  0.44670  0.64270  Biso   1.000  C
  C33      1.0000 0.00170  0.93430  0.01300  Biso   1.000  C
  H10      1.0000 0.00140  0.87600  0.17630  Biso   1.000  H
  C34      1.0000 0.01160  0.76740  0.95630  Biso   1.000  C
  H11      1.0000 0.00580  0.60070  0.08500  Biso   1.000  H
  C35      1.0000 0.39870  0.28050  0.62170  Biso   1.000  C
  H12      1.0000 0.56470  0.21900  0.57430  Biso   1.000  H
  C36      1.0000 0.40960  0.45020  0.66780  Biso   1.000  C
  H13      1.0000 0.58010  0.50170  0.65010  Biso   1.000  H
  C37      1.0000 0.00580  0.89190  0.93160  Biso   1.000  C
  C38      1.0000 0.02090  0.72940  0.86210  Biso   1.000  C
  C39      1.0000 0.32460  0.19940  0.60260  Biso   1.000  C
  C40      1.0000 0.34100  0.36570  0.65850  Biso   1.000  C
  C41      1.0000 0.34570  0.55060  0.69310  Biso   1.000  C
  H14      1.0000 0.00470  0.94650  0.85890  Biso   1.000  H
  C42      1.0000 0.23740  0.24830  0.55120  Biso   1.000  C
  C43      1.0000 0.34030  0.07850  0.62930  Biso   1.000  C
  H15      1.0000 0.25540  0.36680  0.67730  Biso   1.000  H
  O23      1.0000 0.41640  0.62880  0.69520  Biso   1.000  O
  C44      1.0000 0.16620  0.17780  0.53030  Biso   1.000  C
  H16      1.0000 0.22720  0.32980  0.53070  Biso   1.000  H
  H17      1.0000 0.39810  0.04460  0.66240  Biso   1.000  H
  C45      1.0000 0.27120  0.00720  0.60750  Biso   1.000  C
  C46      1.0000 0.07730  0.23300  0.47170  Biso   1.000  C
  C47      1.0000 0.18270  0.05670  0.55960  Biso   1.000  C
  C48      1.0000 0.28840  0.87770  0.63460  Biso   1.000  C
  H18      1.0000 0.13460  0.00810  0.54740  Biso   1.000  H
  O24      1.0000 0.35840  0.82840  0.68850  Biso   1.000  O
  Dy3      1.0000 0.00000  0.50000  0.50000  Biso   1.000  Dy
