data_image0
_cell_length_a       11.609
_cell_length_b       12.227
_cell_length_c       13.554
_cell_angle_alpha    65
_cell_angle_beta     69.14
_cell_angle_gamma    87.75

_symmetry_space_group_name_H-M    "P 1"
_symmetry_int_tables_number       1

loop_
  _symmetry_equiv_pos_as_xyz
  'x, y, z'

loop_
  _atom_site_label
  _atom_site_occupancy
  _atom_site_fract_x
  _atom_site_fract_y
  _atom_site_fract_z
  _atom_site_thermal_displace_type
  _atom_site_B_iso_or_equiv
  _atom_site_type_symbol
  O1       1.0000 0.56190  0.12990  0.86940  Biso   1.000  O
  O2       1.0000 0.49860  0.30060  0.77560  Biso   1.000  O
  C1       1.0000 0.52380  0.22870  0.86370  Biso   1.000  C
  O3       1.0000 0.29080  0.80670  0.51550  Biso   1.000  O
  O4       1.0000 0.28910  0.95370  0.57050  Biso   1.000  O
  C2       1.0000 0.23620  0.87280  0.56050  Biso   1.000  C
  C3       1.0000 0.02640  0.77850  0.59530  Biso   1.000  C
  H1       1.0000 0.06570  0.72110  0.57170  Biso   1.000  H
  C4       1.0000 0.09580  0.86260  0.60430  Biso   1.000  C
  C5       1.0000 0.03750  0.94870  0.64000  Biso   1.000  C
  H2       1.0000 0.08360  0.00450  0.64600  Biso   1.000  H
  O5       1.0000 0.73880  0.05520  0.70880  Biso   1.000  O
  O6       1.0000 0.92020  0.12990  0.69190  Biso   1.000  O
  C6       1.0000 0.84960  0.05210  0.69260  Biso   1.000  C
  C7       1.0000 0.91130  0.95110  0.66650  Biso   1.000  C
  C8       1.0000 0.84270  0.86710  0.65760  Biso   1.000  C
  H3       1.0000 0.75760  0.86880  0.67630  Biso   1.000  H
  C9       1.0000 0.89900  0.78000  0.62110  Biso   1.000  C
  O7       1.0000 0.73310  0.32200  0.60350  Biso   1.000  O
  C10      1.0000 0.78920  0.37770  0.63440  Biso   1.000  C
  C11      1.0000 0.77140  0.50720  0.60860  Biso   1.000  C
  C12      1.0000 0.68260  0.55590  0.56060  Biso   1.000  C
  H4       1.0000 0.63410  0.50740  0.54880  Biso   1.000  H
  C13      1.0000 0.66680  0.67860  0.53040  Biso   1.000  C
  Tb1      1.0000 0.42632  0.83031  0.32690  Biso   1.000  Tb
  O8       1.0000 0.56370  0.84530  0.44410  Biso   1.000  O
  O9       1.0000 0.46810  0.02970  0.31290  Biso   1.000  O
  O10      1.0000 0.52130  0.67150  0.44520  Biso   1.000  O
  O11      1.0000 0.53390  0.18560  0.32330  Biso   1.000  O
  O12      1.0000 0.85950  0.32830  0.69100  Biso   1.000  O
  C14      1.0000 0.50230  0.14120  0.26670  Biso   1.000  C
  C15      1.0000 0.57740  0.73300  0.47140  Biso   1.000  C
  C16      1.0000 0.82540  0.70060  0.60210  Biso   1.000  C
  C17      1.0000 0.50390  0.22570  0.14870  Biso   1.000  C
  C18      1.0000 0.84180  0.57910  0.62900  Biso   1.000  C
  H5       1.0000 0.90080  0.54560  0.66100  Biso   1.000  H
  C19      1.0000 0.50780  0.18540  0.06630  Biso   1.000  C
  H6       1.0000 0.50780  0.10310  0.08440  Biso   1.000  H
  C20      1.0000 0.73800  0.74910  0.55140  Biso   1.000  C
  H7       1.0000 0.72720  0.83050  0.53110  Biso   1.000  H
  C21      1.0000 0.50130  0.34760  0.12200  Biso   1.000  C
  H8       1.0000 0.49950  0.37330  0.17800  Biso   1.000  H
  C22      1.0000 0.50110  0.43370  0.01430  Biso   1.000  C
  C23      1.0000 0.51180  0.26860  0.95680  Biso   1.000  C
  C24      1.0000 0.50870  0.39050  0.93190  Biso   1.000  C
  H9       1.0000 0.51170  0.44550  0.85800  Biso   1.000  H
  O13      1.0000 0.43810  0.87010  0.13060  Biso   1.000  O
  O14      1.0000 0.50140  0.69940  0.22440  Biso   1.000  O
  C25      1.0000 0.47620  0.77130  0.13630  Biso   1.000  C
  O15      1.0000 0.70920  0.19330  0.48450  Biso   1.000  O
  O16      1.0000 0.71090  0.04630  0.42950  Biso   1.000  O
  C26      1.0000 0.76380  0.12720  0.43950  Biso   1.000  C
  C27      1.0000 0.97360  0.22150  0.40470  Biso   1.000  C
  H10      1.0000 0.93430  0.27890  0.42830  Biso   1.000  H
  C28      1.0000 0.90420  0.13740  0.39570  Biso   1.000  C
  C29      1.0000 0.96250  0.05130  0.36000  Biso   1.000  C
  H11      1.0000 0.91640  0.99550  0.35400  Biso   1.000  H
  O17      1.0000 0.26120  0.94480  0.29120  Biso   1.000  O
  O18      1.0000 0.07980  0.87010  0.30810  Biso   1.000  O
  C30      1.0000 0.15040  0.94790  0.30740  Biso   1.000  C
  C31      1.0000 0.08870  0.04890  0.33350  Biso   1.000  C
  C32      1.0000 0.15730  0.13290  0.34240  Biso   1.000  C
  H12      1.0000 0.24240  0.13120  0.32370  Biso   1.000  H
  C33      1.0000 0.10100  0.22000  0.37890  Biso   1.000  C
  O19      1.0000 0.26690  0.67800  0.39650  Biso   1.000  O
  C34      1.0000 0.21080  0.62230  0.36560  Biso   1.000  C
  C35      1.0000 0.22860  0.49280  0.39140  Biso   1.000  C
  C36      1.0000 0.31740  0.44410  0.43940  Biso   1.000  C
  H13      1.0000 0.36590  0.49260  0.45120  Biso   1.000  H
  C37      1.0000 0.33320  0.32140  0.46960  Biso   1.000  C
  Tb2      1.0000 0.57368  0.16969  0.67310  Biso   1.000  Tb
  O20      1.0000 0.43630  0.15470  0.55590  Biso   1.000  O
  O21      1.0000 0.53190  0.97030  0.68710  Biso   1.000  O
  O22      1.0000 0.47870  0.32850  0.55480  Biso   1.000  O
  O23      1.0000 0.46610  0.81440  0.67670  Biso   1.000  O
  O24      1.0000 0.14050  0.67170  0.30900  Biso   1.000  O
  C38      1.0000 0.49770  0.85880  0.73330  Biso   1.000  C
  C39      1.0000 0.42260  0.26700  0.52860  Biso   1.000  C
  C40      1.0000 0.17460  0.29940  0.39790  Biso   1.000  C
  C41      1.0000 0.49610  0.77430  0.85130  Biso   1.000  C
  C42      1.0000 0.15820  0.42090  0.37100  Biso   1.000  C
  H14      1.0000 0.09920  0.45440  0.33900  Biso   1.000  H
  C43      1.0000 0.49220  0.81460  0.93370  Biso   1.000  C
  H15      1.0000 0.49220  0.89690  0.91560  Biso   1.000  H
  C44      1.0000 0.26200  0.25090  0.44860  Biso   1.000  C
  H16      1.0000 0.27280  0.16950  0.46890  Biso   1.000  H
  C45      1.0000 0.49870  0.65240  0.87800  Biso   1.000  C
  H17      1.0000 0.50050  0.62670  0.82200  Biso   1.000  H
  C46      1.0000 0.49890  0.56630  0.98570  Biso   1.000  C
  C47      1.0000 0.48820  0.73140  0.04320  Biso   1.000  C
  C48      1.0000 0.49130  0.60950  0.06810  Biso   1.000  C
  H18      1.0000 0.48830  0.55450  0.14200  Biso   1.000  H
  Tb3      1.0000 0.50000  0.00000  0.50000  Biso   1.000  Tb
