data_VIWHUG_clean
_audit_creation_date              2015-10-16
_audit_creation_method            'Materials Studio'
_symmetry_space_group_name_H-M    'P1'
_symmetry_Int_Tables_number       1
_symmetry_cell_setting            triclinic
loop_
_symmetry_equiv_pos_as_xyz
  x,y,z
_cell_length_a                    8.2640
_cell_length_b                    18.4399
_cell_length_c                    19.1800
_cell_angle_alpha                 110.0630
_cell_angle_beta                  90.0000
_cell_angle_gamma                 102.9490
loop_
_atom_site_label
_atom_site_type_symbol
_atom_site_fract_x
_atom_site_fract_y
_atom_site_fract_z
_atom_site_U_iso_or_equiv
_atom_site_adp_type
_atom_site_occupancy
Zn1    Zn    0.52685   0.58292   0.22752   0.01267  Uiso   1.00
Zn2    Zn    0.27502   0.00000   0.75000   0.01267  Uiso   1.00
Zn3    Zn    0.47315   0.41708   0.77248   0.01267  Uiso   1.00
Zn4    Zn    0.72498   0.00000   0.25000   0.01267  Uiso   1.00
Zn5    Zn    0.05607   0.58292   0.72752   0.01267  Uiso   1.00
Zn6    Zn    0.94393   0.41708   0.27248   0.01267  Uiso   1.00
H1     H     0.43300   0.78980   0.98400   0.01267  Uiso   1.00
H2     H     0.54060   0.15540   0.19180   0.01267  Uiso   1.00
H3     H     0.18700   0.21100   0.45410   0.01267  Uiso   1.00
H4     H     0.02810   0.99900   0.33560   0.01267  Uiso   1.00
H5     H     0.36600   0.16800   0.36690   0.01267  Uiso   1.00
H6     H     0.61480   0.15540   0.69180   0.01267  Uiso   1.00
H7     H     0.45750   0.24400   0.70390   0.01267  Uiso   1.00
H8     H     0.58830   0.42360   0.29540   0.01267  Uiso   1.00
H9     H     0.00890   0.34020   0.78270   0.01267  Uiso   1.00
H10    H     0.56700   0.21020   0.01600   0.01267  Uiso   1.00
H11    H     0.97090   0.99900   0.83560   0.01267  Uiso   1.00
H12    H     0.72990   0.93760   0.44850   0.01267  Uiso   1.00
H13    H     0.38580   0.65580   0.92430   0.01267  Uiso   1.00
H14    H     0.02910   0.00100   0.16440   0.01267  Uiso   1.00
H15    H     0.73000   0.34420   0.57570   0.01267  Uiso   1.00
H16    H     0.97600   0.78900   0.04590   0.01267  Uiso   1.00
H17    H     0.28010   0.08300   0.16050   0.01267  Uiso   1.00
H18    H     0.35680   0.78980   0.48400   0.01267  Uiso   1.00
H19    H     0.45940   0.84460   0.80820   0.01267  Uiso   1.00
H20    H     0.19710   0.91700   0.33950   0.01267  Uiso   1.00
H21    H     0.80200   0.16800   0.86690   0.01267  Uiso   1.00
H22    H     0.63400   0.83200   0.63310   0.01267  Uiso   1.00
H23    H     0.78650   0.24400   0.20390   0.01267  Uiso   1.00
H24    H     0.83530   0.42360   0.79540   0.01267  Uiso   1.00
H25    H     0.86350   0.73860   0.68930   0.01267  Uiso   1.00
H26    H     0.28170   0.17520   0.81220   0.01267  Uiso   1.00
H27    H     0.27000   0.65580   0.42430   0.01267  Uiso   1.00
H28    H     0.27010   0.06240   0.55150   0.01267  Uiso   1.00
H29    H     0.41170   0.57640   0.70460   0.01267  Uiso   1.00
H30    H     0.19800   0.83200   0.13310   0.01267  Uiso   1.00
H31    H     0.20770   0.93760   0.94850   0.01267  Uiso   1.00
H32    H     0.38520   0.84460   0.30820   0.01267  Uiso   1.00
H33    H     0.64320   0.21020   0.51600   0.01267  Uiso   1.00
H34    H     0.82610   0.12820   0.51200   0.01267  Uiso   1.00
H35    H     0.80290   0.08300   0.66050   0.01267  Uiso   1.00
H36    H     0.30210   0.12820   0.01200   0.01267  Uiso   1.00
H37    H     0.12490   0.26140   0.81070   0.01267  Uiso   1.00
H38    H     0.97190   0.00100   0.66440   0.01267  Uiso   1.00
H39    H     0.02400   0.21100   0.95410   0.01267  Uiso   1.00
H40    H     0.99110   0.65980   0.21730   0.01267  Uiso   1.00
H41    H     0.71830   0.82480   0.18780   0.01267  Uiso   1.00
H42    H     0.21350   0.75600   0.79610   0.01267  Uiso   1.00
H43    H     0.16470   0.57640   0.20460   0.01267  Uiso   1.00
H44    H     0.87510   0.73860   0.18930   0.01267  Uiso   1.00
H45    H     0.43960   0.01480   0.45970   0.01267  Uiso   1.00
H46    H     0.69790   0.87180   0.98800   0.01267  Uiso   1.00
H47    H     0.79230   0.06240   0.05150   0.01267  Uiso   1.00
H48    H     0.54250   0.75600   0.29610   0.01267  Uiso   1.00
H49    H     0.81300   0.78900   0.54590   0.01267  Uiso   1.00
H50    H     0.17390   0.87180   0.48800   0.01267  Uiso   1.00
H51    H     0.71990   0.91700   0.83950   0.01267  Uiso   1.00
H52    H     0.33130   0.34020   0.28270   0.01267  Uiso   1.00
H53    H     0.57520   0.01480   0.95970   0.01267  Uiso   1.00
H54    H     0.56040   0.98520   0.54030   0.01267  Uiso   1.00
H55    H     0.66870   0.65980   0.71730   0.01267  Uiso   1.00
H56    H     0.42480   0.98520   0.04030   0.01267  Uiso   1.00
H57    H     0.10650   0.82480   0.68780   0.01267  Uiso   1.00
H58    H     0.13650   0.26140   0.31070   0.01267  Uiso   1.00
H59    H     0.89350   0.17520   0.31220   0.01267  Uiso   1.00
H60    H     0.61420   0.34420   0.07570   0.01267  Uiso   1.00
C1     C     0.66269   0.20958   0.71350   0.01267  Uiso   1.00
C2     C     0.80484   0.31248   0.57200   0.01267  Uiso   1.00
C3     C     0.07200   0.85720   0.98730   0.01267  Uiso   1.00
C4     C     0.24820   0.76760   0.46240   0.01267  Uiso   1.00
C5     C     0.92105   0.70070   0.39950   0.01267  Uiso   1.00
C6     C     0.56953   0.26306   0.72120   0.01267  Uiso   1.00
C7     C     0.75874   0.82708   0.54330   0.01267  Uiso   1.00
C8     C     0.71055   0.91610   0.48590   0.01267  Uiso   1.00
C9     C     0.19516   0.68752   0.42800   0.01267  Uiso   1.00
C10    C     0.19849   0.21938   0.06680   0.01267  Uiso   1.00
C11    C     0.79920   0.14680   0.90460   0.01267  Uiso   1.00
C12    C     0.48060   0.23240   0.03760   0.01267  Uiso   1.00
C13    C     0.57143   0.91066   0.59330   0.01267  Uiso   1.00
C14    C     0.20080   0.85320   0.09540   0.01267  Uiso   1.00
C15    C     0.24126   0.17292   0.45670   0.01267  Uiso   1.00
C16    C     0.74668   0.66596   0.36330   0.01267  Uiso   1.00
C17    C     0.51940   0.76760   0.96240   0.01267  Uiso   1.00
C18    C     0.89985   0.10350   0.69240   0.01267  Uiso   1.00
C19    C     0.20365   0.10350   0.19240   0.01267  Uiso   1.00
C20    C     0.44540   0.93380   0.64780   0.01267  Uiso   1.00
C21    C     0.33731   0.79042   0.28650   0.01267  Uiso   1.00
C22    C     0.41316   0.43632   0.13740   0.01267  Uiso   1.00
C23    C     0.20865   0.63090   0.22540   0.01267  Uiso   1.00
C24    C     0.62099   0.65218   0.89830   0.01267  Uiso   1.00
C25    C     0.32250   0.18320   0.03470   0.01267  Uiso   1.00
C26    C     0.33923   0.91066   0.09330   0.01267  Uiso   1.00
C27    C     0.97684   0.56368   0.36260   0.01267  Uiso   1.00
C28    C     0.05934   0.81808   0.26400   0.01267  Uiso   1.00
C29    C     0.49236   0.68752   0.92800   0.01267  Uiso   1.00
C30    C     0.51160   0.06620   0.85220   0.01267  Uiso   1.00
C31    C     0.57700   0.68100   0.73220   0.01267  Uiso   1.00
C32    C     0.10015   0.89650   0.30760   0.01267  Uiso   1.00
C33    C     0.39330   0.05640   0.45980   0.01267  Uiso   1.00
C34    C     0.66310   0.05640   0.95980   0.01267  Uiso   1.00
C35    C     0.08072   0.33404   0.13670   0.01267  Uiso   1.00
C36    C     0.42300   0.31900   0.26780   0.01267  Uiso   1.00
C37    C     0.43047   0.73694   0.27880   0.01267  Uiso   1.00
C38    C     0.78520   0.85720   0.48730   0.01267  Uiso   1.00
C39    C     0.94066   0.18192   0.73600   0.01267  Uiso   1.00
C40    C     0.83437   0.23694   0.73870   0.01267  Uiso   1.00
C41    C     0.69353   0.26306   0.22120   0.01267  Uiso   1.00
C42    C     0.20555   0.91610   0.98590   0.01267  Uiso   1.00
C43    C     0.97307   0.15614   0.28150   0.01267  Uiso   1.00
C44    C     0.40257   0.23694   0.23870   0.01267  Uiso   1.00
C45    C     0.24126   0.18192   0.23600   0.01267  Uiso   1.00
C46    C     0.21480   0.14280   0.51270   0.01267  Uiso   1.00
C47    C     0.05244   0.05408   0.19530   0.01267  Uiso   1.00
C48    C     0.34760   0.14680   0.40460   0.01267  Uiso   1.00
C49    C     0.77965   0.70070   0.89950   0.01267  Uiso   1.00
C50    C     0.48840   0.93380   0.14780   0.01267  Uiso   1.00
C51    C     0.18307   0.15614   0.78150   0.01267  Uiso   1.00
C52    C     0.16563   0.76306   0.26130   0.01267  Uiso   1.00
C53    C     0.07895   0.29930   0.60050   0.01267  Uiso   1.00
C54    C     0.88119   0.79198   0.71910   0.01267  Uiso   1.00
C55    C     0.79445   0.08390   0.01410   0.01267  Uiso   1.00
C56    C     0.75874   0.81808   0.76400   0.01267  Uiso   1.00
C57    C     0.08921   0.20802   0.78090   0.01267  Uiso   1.00
C58    C     0.79635   0.89650   0.80760   0.01267  Uiso   1.00
C59    C     0.42225   0.63090   0.72540   0.01267  Uiso   1.00
C60    C     0.58684   0.56368   0.86260   0.01267  Uiso   1.00
C61    C     0.97911   0.78062   0.43320   0.01267  Uiso   1.00
C62    C     0.13930   0.81680   0.46530   0.01267  Uiso   1.00
C63    C     0.02693   0.84386   0.71850   0.01267  Uiso   1.00
C64    C     0.02089   0.21938   0.56680   0.01267  Uiso   1.00
C65    C     0.45311   0.79042   0.78650   0.01267  Uiso   1.00
C66    C     0.81693   0.84386   0.21850   0.01267  Uiso   1.00
C67    C     0.66077   0.08934   0.90670   0.01267  Uiso   1.00
C68    C     0.96881   0.34782   0.60170   0.01267  Uiso   1.00
C69    C     0.57775   0.36910   0.27460   0.01267  Uiso   1.00
C70    C     0.79135   0.36910   0.77460   0.01267  Uiso   1.00
C71    C     0.75180   0.23240   0.53760   0.01267  Uiso   1.00
C72    C     0.02316   0.43632   0.63740   0.01267  Uiso   1.00
C73    C     0.00164   0.05408   0.69530   0.01267  Uiso   1.00
C74    C     0.37901   0.34782   0.10170   0.01267  Uiso   1.00
C75    C     0.59743   0.76306   0.76130   0.01267  Uiso   1.00
C76    C     0.93166   0.17292   0.95670   0.01267  Uiso   1.00
C77    C     0.25332   0.33404   0.63670   0.01267  Uiso   1.00
C78    C     0.67750   0.81680   0.96530   0.01267  Uiso   1.00
C79    C     0.91928   0.66596   0.86330   0.01267  Uiso   1.00
C80    C     0.89600   0.31900   0.76780   0.01267  Uiso   1.00
C81    C     0.33690   0.94360   0.04020   0.01267  Uiso   1.00
C82    C     0.86070   0.18320   0.53470   0.01267  Uiso   1.00
C83    C     0.54689   0.20958   0.21350   0.01267  Uiso   1.00
C84    C     0.10400   0.68100   0.23220   0.01267  Uiso   1.00
C85    C     0.65240   0.85320   0.59540   0.01267  Uiso   1.00
C86    C     0.99836   0.94592   0.30470   0.01267  Uiso   1.00
C87    C     0.22035   0.29930   0.10050   0.01267  Uiso   1.00
C88    C     0.30647   0.73694   0.77880   0.01267  Uiso   1.00
C89    C     0.03119   0.65218   0.39830   0.01267  Uiso   1.00
C90    C     0.11881   0.20802   0.28090   0.01267  Uiso   1.00
C91    C     0.55460   0.06620   0.35220   0.01267  Uiso   1.00
C92    C     0.91079   0.79198   0.21910   0.01267  Uiso   1.00
C93    C     0.50764   0.31248   0.07200   0.01267  Uiso   1.00
C94    C     0.94756   0.94592   0.80470   0.01267  Uiso   1.00
C95    C     0.06834   0.82708   0.04330   0.01267  Uiso   1.00
C96    C     0.80151   0.78062   0.93320   0.01267  Uiso   1.00
C97    C     0.42857   0.08934   0.40670   0.01267  Uiso   1.00
C98    C     0.28945   0.08390   0.51410   0.01267  Uiso   1.00
C99    C     0.92800   0.14280   0.01270   0.01267  Uiso   1.00
C100   C     0.60670   0.94360   0.54020   0.01267  Uiso   1.00
N1     N     0.71265   0.34230   0.25250   0.01267  Uiso   1.00
N2     N     0.28735   0.65770   0.74750   0.01267  Uiso   1.00
N3     N     0.37035   0.65770   0.24750   0.01267  Uiso   1.00
N4     N     0.94009   0.07958   0.24020   0.01267  Uiso   1.00
N5     N     0.62965   0.34230   0.75250   0.01267  Uiso   1.00
N6     N     0.13949   0.07958   0.74020   0.01267  Uiso   1.00
N7     N     0.05991   0.92042   0.75980   0.01267  Uiso   1.00
N8     N     0.86051   0.92042   0.25980   0.01267  Uiso   1.00
O1     O     0.37038   0.33456   0.59650   0.01267  Uiso   1.00
O2     O     0.90803   0.64166   0.79280   0.01267  Uiso   1.00
O3     O     0.69808   0.52956   0.86320   0.01267  Uiso   1.00
O4     O     0.40040   0.01140   0.84890   0.01267  Uiso   1.00
O5     O     0.16852   0.47044   0.63680   0.01267  Uiso   1.00
O6     O     0.83148   0.52956   0.36320   0.01267  Uiso   1.00
O7     O     0.30192   0.47044   0.13680   0.01267  Uiso   1.00
O8     O     0.03582   0.66544   0.90350   0.01267  Uiso   1.00
O9     O     0.62962   0.66544   0.40350   0.01267  Uiso   1.00
O10    O     0.91666   0.47372   0.67020   0.01267  Uiso   1.00
O11    O     0.50520   0.10300   0.81050   0.01267  Uiso   1.00
O12    O     0.04752   0.16944   0.07170   0.01267  Uiso   1.00
O13    O     0.12192   0.16944   0.57170   0.01267  Uiso   1.00
O14    O     0.59960   0.98860   0.15110   0.01267  Uiso   1.00
O15    O     0.08334   0.52628   0.32980   0.01267  Uiso   1.00
O16    O     0.38900   0.98860   0.65110   0.01267  Uiso   1.00
O17    O     0.44294   0.52628   0.82980   0.01267  Uiso   1.00
O18    O     0.95248   0.83056   0.92830   0.01267  Uiso   1.00
O19    O     0.96418   0.33456   0.09650   0.01267  Uiso   1.00
O20    O     0.59780   0.10300   0.31050   0.01267  Uiso   1.00
O21    O     0.87808   0.83056   0.42830   0.01267  Uiso   1.00
O22    O     0.73363   0.64166   0.29280   0.01267  Uiso   1.00
O23    O     0.61100   0.01140   0.34890   0.01267  Uiso   1.00
O24    O     0.49480   0.89700   0.18950   0.01267  Uiso   1.00
O25    O     0.26637   0.35834   0.70720   0.01267  Uiso   1.00
O26    O     0.09197   0.35834   0.20720   0.01267  Uiso   1.00
O27    O     0.40220   0.89700   0.68950   0.01267  Uiso   1.00
O28    O     0.55706   0.47372   0.17020   0.01267  Uiso   1.00
