data_VIWKOD_clean
_audit_creation_date              2015-10-16
_audit_creation_method            'Materials Studio'
_symmetry_space_group_name_H-M    'P1'
_symmetry_Int_Tables_number       1
_symmetry_cell_setting            triclinic
loop_
_symmetry_equiv_pos_as_xyz
  x,y,z
_cell_length_a                    10.9940
_cell_length_b                    19.8380
_cell_length_c                    23.0980
_cell_angle_alpha                 90.0000
_cell_angle_beta                  90.0000
_cell_angle_gamma                 99.8900
loop_
_atom_site_label
_atom_site_type_symbol
_atom_site_fract_x
_atom_site_fract_y
_atom_site_fract_z
_atom_site_U_iso_or_equiv
_atom_site_adp_type
_atom_site_occupancy
Ce1    Ce    0.96037   0.10103   0.64528   0.01267  Uiso   1.00
Ce2    Ce    0.64735   0.35404   0.64420   0.01267  Uiso   1.00
Ce3    Ce    0.03963   0.89897   0.35472   0.01267  Uiso   1.00
Ce4    Ce    0.46037   0.60103   0.85472   0.01267  Uiso   1.00
Ce5    Ce    0.35265   0.64596   0.35580   0.01267  Uiso   1.00
Ce6    Ce    0.53963   0.39897   0.14528   0.01267  Uiso   1.00
Ce7    Ce    0.85265   0.14596   0.14420   0.01267  Uiso   1.00
Ce8    Ce    0.14735   0.85404   0.85580   0.01267  Uiso   1.00
Cu1    Cu    0.59132   0.39849   0.32139   0.01267  Uiso   1.00
Cu2    Cu    0.40868   0.60151   0.67861   0.01267  Uiso   1.00
Cu3    Cu    0.30292   0.65118   0.17930   0.01267  Uiso   1.00
Cu4    Cu    0.09132   0.89849   0.17861   0.01267  Uiso   1.00
Cu5    Cu    0.19708   0.84882   0.67930   0.01267  Uiso   1.00
Cu6    Cu    0.69708   0.34882   0.82070   0.01267  Uiso   1.00
Cu7    Cu    0.80292   0.15118   0.32070   0.01267  Uiso   1.00
Cu8    Cu    0.90868   0.10151   0.82139   0.01267  Uiso   1.00
H1     H     0.01750   0.49140   0.30450   0.01267  Uiso   1.00
H2     H     0.87900   0.55720   0.19550   0.01267  Uiso   1.00
H3     H     0.98250   0.50860   0.69550   0.01267  Uiso   1.00
H4     H     0.91820   0.54150   0.91790   0.01267  Uiso   1.00
H5     H     0.08180   0.45850   0.08210   0.01267  Uiso   1.00
H6     H     0.41820   0.04150   0.58210   0.01267  Uiso   1.00
H7     H     0.77300   0.74290   0.29410   0.01267  Uiso   1.00
H8     H     0.37900   0.05720   0.30450   0.01267  Uiso   1.00
H9     H     0.48250   0.00860   0.80450   0.01267  Uiso   1.00
H10    H     0.62100   0.94280   0.69550   0.01267  Uiso   1.00
H11    H     0.58180   0.95850   0.41790   0.01267  Uiso   1.00
H12    H     0.12100   0.44280   0.80450   0.01267  Uiso   1.00
H13    H     0.22700   0.25710   0.70590   0.01267  Uiso   1.00
H14    H     0.11010   0.30730   0.19970   0.01267  Uiso   1.00
H15    H     0.61010   0.80730   0.30030   0.01267  Uiso   1.00
H16    H     0.38990   0.19270   0.69970   0.01267  Uiso   1.00
H17    H     0.72700   0.75710   0.79410   0.01267  Uiso   1.00
H18    H     0.51750   0.99140   0.19550   0.01267  Uiso   1.00
H19    H     0.27300   0.24290   0.20590   0.01267  Uiso   1.00
H20    H     0.88990   0.69270   0.80030   0.01267  Uiso   1.00
C1     C     0.89870   0.86350   0.81220   0.01267  Uiso   1.00
C2     C     0.79120   0.46500   0.76090   0.01267  Uiso   1.00
C3     C     0.75280   0.58500   0.25030   0.01267  Uiso   1.00
C4     C     0.59280   0.84390   0.27850   0.01267  Uiso   1.00
C5     C     0.63920   0.96360   0.25320   0.01267  Uiso   1.00
C6     C     0.21250   0.08730   0.68330   0.01267  Uiso   1.00
C7     C     0.31520   0.48630   0.74020   0.01267  Uiso   1.00
C8     C     0.92900   0.65920   0.20850   0.01267  Uiso   1.00
C9     C     0.65770   0.05380   0.59500   0.01267  Uiso   1.00
C10    C     0.20650   0.29420   0.72600   0.01267  Uiso   1.00
C11    C     0.40720   0.15610   0.72150   0.01267  Uiso   1.00
C12    C     0.70650   0.79420   0.77400   0.01267  Uiso   1.00
C13    C     0.10130   0.13650   0.18780   0.01267  Uiso   1.00
C14    C     0.12630   0.49890   0.00370   0.01267  Uiso   1.00
C15    C     0.36080   0.03640   0.74680   0.01267  Uiso   1.00
C16    C     0.57840   0.02430   0.54550   0.01267  Uiso   1.00
C17    C     0.18480   0.01370   0.24020   0.01267  Uiso   1.00
C18    C     0.84230   0.44620   0.09500   0.01267  Uiso   1.00
C19    C     0.14990   0.61340   0.67220   0.01267  Uiso   1.00
C20    C     0.53660   0.10990   0.79040   0.01267  Uiso   1.00
C21    C     0.62630   0.99890   0.49630   0.01267  Uiso   1.00
C22    C     0.07100   0.34080   0.79150   0.01267  Uiso   1.00
C23    C     0.16740   0.40720   0.21600   0.01267  Uiso   1.00
C24    C     0.87370   0.50110   0.99630   0.01267  Uiso   1.00
C25    C     0.35710   0.09440   0.28500   0.01267  Uiso   1.00
C26    C     0.42320   0.76330   0.23150   0.01267  Uiso   1.00
C27    C     0.50780   0.16590   0.75900   0.01267  Uiso   1.00
C28    C     0.34230   0.94620   0.40500   0.01267  Uiso   1.00
C29    C     0.46330   0.04570   0.78400   0.01267  Uiso   1.00
C30    C     0.85010   0.38660   0.32780   0.01267  Uiso   1.00
C31    C     0.15770   0.55380   0.90500   0.01267  Uiso   1.00
C32    C     0.04630   0.66430   0.17390   0.01267  Uiso   1.00
C33    C     0.54630   0.16430   0.32610   0.01267  Uiso   1.00
C34    C     0.07840   0.52430   0.95450   0.01267  Uiso   1.00
C35    C     0.46500   0.28630   0.27090   0.01267  Uiso   1.00
C36    C     0.76120   0.99190   0.49030   0.01267  Uiso   1.00
C37    C     0.45080   0.02490   0.54890   0.01267  Uiso   1.00
C38    C     0.90720   0.65610   0.77850   0.01267  Uiso   1.00
C39    C     0.29120   0.96500   0.73910   0.01267  Uiso   1.00
C40    C     0.85710   0.59440   0.21500   0.01267  Uiso   1.00
C41    C     0.60310   0.78490   0.73790   0.01267  Uiso   1.00
C42    C     0.54920   0.97510   0.45110   0.01267  Uiso   1.00
C43    C     0.33260   0.09280   0.71600   0.01267  Uiso   1.00
C44    C     0.78750   0.91270   0.31670   0.01267  Uiso   1.00
C45    C     0.29350   0.20580   0.22600   0.01267  Uiso   1.00
C46    C     0.39690   0.21510   0.26210   0.01267  Uiso   1.00
C47    C     0.22110   0.14160   0.21990   0.01267  Uiso   1.00
C48    C     0.39870   0.36350   0.68780   0.01267  Uiso   1.00
C49    C     0.92320   0.26330   0.26850   0.01267  Uiso   1.00
C50    C     0.42160   0.97570   0.45450   0.01267  Uiso   1.00
C51    C     0.10310   0.28490   0.76210   0.01267  Uiso   1.00
C52    C     0.53500   0.71370   0.72910   0.01267  Uiso   1.00
C53    C     0.95370   0.33570   0.82610   0.01267  Uiso   1.00
C54    C     0.96330   0.54570   0.71600   0.01267  Uiso   1.00
C55    C     0.23880   0.00810   0.50970   0.01267  Uiso   1.00
C56    C     0.13920   0.46360   0.24680   0.01267  Uiso   1.00
C57    C     0.81520   0.98630   0.75980   0.01267  Uiso   1.00
C58    C     0.45370   0.83570   0.67390   0.01267  Uiso   1.00
C59    C     0.03670   0.45430   0.28400   0.01267  Uiso   1.00
C60    C     0.74720   0.91500   0.75030   0.01267  Uiso   1.00
C61    C     0.99220   0.33410   0.25900   0.01267  Uiso   1.00
C62    C     0.28750   0.41270   0.18330   0.01267  Uiso   1.00
C63    C     0.57680   0.23670   0.76850   0.01267  Uiso   1.00
C64    C     0.46340   0.89010   0.20960   0.01267  Uiso   1.00
C65    C     0.20880   0.53500   0.23910   0.01267  Uiso   1.00
C66    C     0.96500   0.78630   0.22910   0.01267  Uiso   1.00
C67    C     0.03500   0.21370   0.77090   0.01267  Uiso   1.00
C68    C     0.71250   0.58730   0.81670   0.01267  Uiso   1.00
C69    C     0.25280   0.08500   0.24970   0.01267  Uiso   1.00
C70    C     0.42900   0.15920   0.29150   0.01267  Uiso   1.00
C71    C     0.35010   0.88660   0.17220   0.01267  Uiso   1.00
C72    C     0.09280   0.34390   0.22150   0.01267  Uiso   1.00
C73    C     0.77890   0.85840   0.78010   0.01267  Uiso   1.00
C74    C     0.70880   0.03500   0.26090   0.01267  Uiso   1.00
C75    C     0.57100   0.84080   0.70850   0.01267  Uiso   1.00
C76    C     0.14290   0.40560   0.78500   0.01267  Uiso   1.00
C77    C     0.24720   0.41500   0.74970   0.01267  Uiso   1.00
C78    C     0.89690   0.71510   0.23790   0.01267  Uiso   1.00
C79    C     0.95080   0.52490   0.95110   0.01267  Uiso   1.00
C80    C     0.72110   0.64160   0.28010   0.01267  Uiso   1.00
C81    C     0.83260   0.59280   0.78400   0.01267  Uiso   1.00
C82    C     0.66740   0.90720   0.28400   0.01267  Uiso   1.00
C83    C     0.96340   0.39010   0.29040   0.01267  Uiso   1.00
C84    C     0.37370   0.00110   0.50370   0.01267  Uiso   1.00
C85    C     0.04920   0.47510   0.04890   0.01267  Uiso   1.00
C86    C     0.53670   0.95430   0.21600   0.01267  Uiso   1.00
C87    C     0.64290   0.90560   0.71500   0.01267  Uiso   1.00
C88    C     0.79350   0.70580   0.27400   0.01267  Uiso   1.00
C89    C     0.00780   0.66590   0.74100   0.01267  Uiso   1.00
C90    C     0.49220   0.83410   0.24100   0.01267  Uiso   1.00
C91    C     0.27890   0.35840   0.71990   0.01267  Uiso   1.00
C92    C     0.68480   0.51370   0.25980   0.01267  Uiso   1.00
C93    C     0.60130   0.63650   0.31220   0.01267  Uiso   1.00
C94    C     0.86080   0.53640   0.75320   0.01267  Uiso   1.00
C95    C     0.07680   0.73670   0.73150   0.01267  Uiso   1.00
C96    C     0.64990   0.11340   0.82780   0.01267  Uiso   1.00
C97    C     0.73880   0.50810   0.99030   0.01267  Uiso   1.00
C98    C     0.92160   0.47570   0.04550   0.01267  Uiso   1.00
C99    C     0.03660   0.60990   0.70960   0.01267  Uiso   1.00
C100   C     0.26120   0.49190   0.00970   0.01267  Uiso   1.00
O1     O     0.08990   0.77800   0.77290   0.01267  Uiso   1.00
O2     O     0.27580   0.94379   0.68800   0.01267  Uiso   1.00
O3     O     0.09350   0.17230   0.14430   0.01267  Uiso   1.00
O4     O     0.77290   0.06030   0.58920   0.01267  Uiso   1.00
O5     O     0.82640   0.00650   0.81160   0.01267  Uiso   1.00
O6     O     0.99200   0.90340   0.79150   0.01267  Uiso   1.00
O7     O     0.22710   0.93970   0.41080   0.01267  Uiso   1.00
O8     O     0.75210   0.13350   0.80260   0.01267  Uiso   1.00
O9     O     0.24010   0.57000   0.28360   0.01267  Uiso   1.00
O10    O     0.47330   0.32670   0.22870   0.01267  Uiso   1.00
O11    O     0.99270   0.19700   0.82041   0.01267  Uiso   1.00
O12    O     0.36190   0.90620   0.12160   0.01267  Uiso   1.00
O13    O     0.20380   0.12260   0.63870   0.01267  Uiso   1.00
O14    O     0.61890   0.54900   0.79570   0.01267  Uiso   1.00
O15    O     0.25990   0.93000   0.78360   0.01267  Uiso   1.00
O16    O     0.35560   0.82110   0.70324   0.01267  Uiso   1.00
O17    O     0.88110   0.95100   0.29570   0.01267  Uiso   1.00
O18    O     0.52670   0.67330   0.77130   0.01267  Uiso   1.00
O19    O     0.60530   0.07200   0.63860   0.01267  Uiso   1.00
O20    O     0.22420   0.55621   0.18800   0.01267  Uiso   1.00
O21    O     0.77580   0.44379   0.81200   0.01267  Uiso   1.00
O22    O     0.13810   0.59380   0.62160   0.01267  Uiso   1.00
O23    O     0.38110   0.45100   0.20430   0.01267  Uiso   1.00
O24    O     0.10530   0.57200   0.86140   0.01267  Uiso   1.00
O25    O     0.89470   0.42800   0.13860   0.01267  Uiso   1.00
O26    O     0.39470   0.92800   0.36140   0.01267  Uiso   1.00
O27    O     0.61430   0.25320   0.81886   0.01267  Uiso   1.00
O28    O     0.49270   0.69700   0.67959   0.01267  Uiso   1.00
O29    O     0.03920   0.65090   0.12140   0.01267  Uiso   1.00
O30    O     0.75990   0.43000   0.71640   0.01267  Uiso   1.00
O31    O     0.14720   0.97820   0.28340   0.01267  Uiso   1.00
O32    O     0.27290   0.56030   0.91080   0.01267  Uiso   1.00
O33    O     0.67360   0.49350   0.31160   0.01267  Uiso   1.00
O34    O     0.85280   0.02180   0.71660   0.01267  Uiso   1.00
O35    O     0.96080   0.34910   0.87860   0.01267  Uiso   1.00
O36    O     0.97330   0.82670   0.27130   0.01267  Uiso   1.00
O37    O     0.00730   0.80300   0.17959   0.01267  Uiso   1.00
O38    O     0.46080   0.84910   0.62140   0.01267  Uiso   1.00
O39    O     0.79760   0.94140   0.51260   0.01267  Uiso   1.00
O40    O     0.70240   0.55860   0.01260   0.01267  Uiso   1.00
O41    O     0.50730   0.30300   0.32041   0.01267  Uiso   1.00
O42    O     0.72420   0.05621   0.31200   0.01267  Uiso   1.00
O43    O     0.14440   0.67890   0.20324   0.01267  Uiso   1.00
O44    O     0.58990   0.27800   0.72710   0.01267  Uiso   1.00
O45    O     0.91010   0.22200   0.22710   0.01267  Uiso   1.00
O46    O     0.25210   0.63350   0.69740   0.01267  Uiso   1.00
O47    O     0.20240   0.05860   0.48740   0.01267  Uiso   1.00
O48    O     0.53920   0.15090   0.37860   0.01267  Uiso   1.00
O49    O     0.59350   0.67230   0.35570   0.01267  Uiso   1.00
O50    O     0.50800   0.59660   0.29150   0.01267  Uiso   1.00
O51    O     0.32960   0.53700   0.03970   0.01267  Uiso   1.00
O52    O     0.00800   0.09660   0.20850   0.01267  Uiso   1.00
O53    O     0.72710   0.43970   0.08920   0.01267  Uiso   1.00
O54    O     0.40650   0.32770   0.64430   0.01267  Uiso   1.00
O55    O     0.17040   0.96300   0.53970   0.01267  Uiso   1.00
O56    O     0.85560   0.32110   0.79676   0.01267  Uiso   1.00
O57    O     0.64440   0.17890   0.29676   0.01267  Uiso   1.00
O58    O     0.17360   0.99350   0.18840   0.01267  Uiso   1.00
O59    O     0.49200   0.40340   0.70850   0.01267  Uiso   1.00
O60    O     0.82960   0.03700   0.46030   0.01267  Uiso   1.00
O61    O     0.02670   0.17330   0.72870   0.01267  Uiso   1.00
O62    O     0.70380   0.62260   0.86130   0.01267  Uiso   1.00
O63    O     0.74790   0.36650   0.30260   0.01267  Uiso   1.00
O64    O     0.11430   0.75320   0.68114   0.01267  Uiso   1.00
O65    O     0.41010   0.72200   0.27290   0.01267  Uiso   1.00
O66    O     0.63810   0.09380   0.87840   0.01267  Uiso   1.00
O67    O     0.64720   0.47820   0.21660   0.01267  Uiso   1.00
O68    O     0.90650   0.82770   0.85570   0.01267  Uiso   1.00
O69    O     0.79620   0.87740   0.36130   0.01267  Uiso   1.00
O70    O     0.67040   0.46300   0.96030   0.01267  Uiso   1.00
O71    O     0.38570   0.74680   0.18114   0.01267  Uiso   1.00
O72    O     0.24790   0.86650   0.19740   0.01267  Uiso   1.00
O73    O     0.29620   0.37740   0.13870   0.01267  Uiso   1.00
O74    O     0.88570   0.24680   0.31886   0.01267  Uiso   1.00
O75    O     0.32640   0.50650   0.68840   0.01267  Uiso   1.00
O76    O     0.35280   0.52180   0.78340   0.01267  Uiso   1.00
O77    O     0.74010   0.07000   0.21640   0.01267  Uiso   1.00
O78    O     0.29760   0.44140   0.98740   0.01267  Uiso   1.00
O79    O     0.86190   0.40620   0.37840   0.01267  Uiso   1.00
O80    O     0.11890   0.04900   0.70430   0.01267  Uiso   1.00
