data_VIWLOE_clean
_audit_creation_date              2015-10-16
_audit_creation_method            'Materials Studio'
_symmetry_space_group_name_H-M    'P1'
_symmetry_Int_Tables_number       1
_symmetry_cell_setting            triclinic
loop_
_symmetry_equiv_pos_as_xyz
  x,y,z
_cell_length_a                    10.9718
_cell_length_b                    19.7821
_cell_length_c                    20.2668
_cell_angle_alpha                 90.0000
_cell_angle_beta                  90.0000
_cell_angle_gamma                 99.3120
loop_
_atom_site_label
_atom_site_type_symbol
_atom_site_fract_x
_atom_site_fract_y
_atom_site_fract_z
_atom_site_U_iso_or_equiv
_atom_site_adp_type
_atom_site_occupancy
Ce1    Ce    0.34233   0.58167   0.37558   0.01267  Uiso   1.00
Ce2    Ce    0.03741   0.84420   0.37361   0.01267  Uiso   1.00
Ce3    Ce    0.84233   0.08167   0.12442   0.01267  Uiso   1.00
Ce4    Ce    0.46259   0.65580   0.87361   0.01267  Uiso   1.00
Ce5    Ce    0.15767   0.91833   0.87558   0.01267  Uiso   1.00
Ce6    Ce    0.53741   0.34420   0.12639   0.01267  Uiso   1.00
Ce7    Ce    0.65767   0.41833   0.62442   0.01267  Uiso   1.00
Ce8    Ce    0.96259   0.15580   0.62639   0.01267  Uiso   1.00
Cu1    Cu    0.29567   0.58821   0.17389   0.01267  Uiso   1.00
Cu2    Cu    0.58106   0.33090   0.32671   0.01267  Uiso   1.00
Cu3    Cu    0.08106   0.83090   0.17329   0.01267  Uiso   1.00
Cu4    Cu    0.20433   0.91179   0.67389   0.01267  Uiso   1.00
Cu5    Cu    0.70433   0.41179   0.82611   0.01267  Uiso   1.00
Cu6    Cu    0.91894   0.16910   0.82671   0.01267  Uiso   1.00
Cu7    Cu    0.41894   0.66910   0.67329   0.01267  Uiso   1.00
Cu8    Cu    0.79567   0.08821   0.32611   0.01267  Uiso   1.00
H1     H     0.60890   0.74520   0.31010   0.01267  Uiso   1.00
H2     H     0.23120   0.32480   0.68210   0.01267  Uiso   1.00
H3     H     0.37160   0.99470   0.30530   0.01267  Uiso   1.00
H4     H     0.41660   0.06520   0.57720   0.01267  Uiso   1.00
H5     H     0.10890   0.24520   0.18990   0.01267  Uiso   1.00
H6     H     0.98760   0.57450   0.68550   0.01267  Uiso   1.00
H7     H     0.12840   0.50530   0.80530   0.01267  Uiso   1.00
H8     H     0.26880   0.17520   0.18210   0.01267  Uiso   1.00
H9     H     0.87160   0.49470   0.19470   0.01267  Uiso   1.00
H10    H     0.01240   0.42550   0.31450   0.01267  Uiso   1.00
H11    H     0.58340   0.93480   0.42280   0.01267  Uiso   1.00
H12    H     0.89110   0.75480   0.81010   0.01267  Uiso   1.00
H13    H     0.76880   0.67520   0.31790   0.01267  Uiso   1.00
H14    H     0.62840   0.00530   0.69470   0.01267  Uiso   1.00
H15    H     0.51240   0.92550   0.18550   0.01267  Uiso   1.00
H16    H     0.39110   0.25480   0.68990   0.01267  Uiso   1.00
H17    H     0.48760   0.07450   0.81450   0.01267  Uiso   1.00
H18    H     0.08340   0.43480   0.07720   0.01267  Uiso   1.00
H19    H     0.73120   0.82480   0.81790   0.01267  Uiso   1.00
H20    H     0.91660   0.56520   0.92280   0.01267  Uiso   1.00
C1     C     0.07640   0.55150   0.96560   0.01267  Uiso   1.00
C2     C     0.45030   0.03880   0.54620   0.01267  Uiso   1.00
C3     C     0.65000   0.96890   0.71870   0.01267  Uiso   1.00
C4     C     0.46810   0.11070   0.78960   0.01267  Uiso   1.00
C5     C     0.88940   0.65020   0.25010   0.01267  Uiso   1.00
C6     C     0.61060   0.84980   0.75010   0.01267  Uiso   1.00
C7     C     0.48750   0.76980   0.24270   0.01267  Uiso   1.00
C8     C     0.82320   0.05110   0.76720   0.01267  Uiso   1.00
C9     C     0.75360   0.97980   0.75940   0.01267  Uiso   1.00
C10    C     0.79720   0.52840   0.75890   0.01267  Uiso   1.00
C11    C     0.04970   0.46120   0.04620   0.01267  Uiso   1.00
C12    C     0.08980   0.28130   0.21530   0.01267  Uiso   1.00
C13    C     0.83630   0.65490   0.78940   0.01267  Uiso   1.00
C14    C     0.84410   0.39480   0.07390   0.01267  Uiso   1.00
C15    C     0.84210   0.32170   0.33460   0.01267  Uiso   1.00
C16    C     0.74640   0.52020   0.25940   0.01267  Uiso   1.00
C17    C     0.91020   0.71870   0.78470   0.01267  Uiso   1.00
C18    C     0.87400   0.48780   0.98700   0.01267  Uiso   1.00
C19    C     0.58100   0.30060   0.76660   0.01267  Uiso   1.00
C20    C     0.28560   0.42450   0.70410   0.01267  Uiso   1.00
C21    C     0.78340   0.85270   0.32740   0.01267  Uiso   1.00
C22    C     0.91900   0.19940   0.26660   0.01267  Uiso   1.00
C23    C     0.29720   0.02840   0.74110   0.01267  Uiso   1.00
C24    C     0.41900   0.69940   0.23340   0.01267  Uiso   1.00
C25    C     0.26130   0.52300   0.02990   0.01267  Uiso   1.00
C26    C     0.17680   0.94890   0.23280   0.01267  Uiso   1.00
C27    C     0.78560   0.92450   0.79590   0.01267  Uiso   1.00
C28    C     0.95030   0.53880   0.95380   0.01267  Uiso   1.00
C29    C     0.65590   0.10520   0.57390   0.01267  Uiso   1.00
C30    C     0.01250   0.73020   0.74270   0.01267  Uiso   1.00
C31    C     0.40670   0.43080   0.66860   0.01267  Uiso   1.00
C32    C     0.36530   0.10020   0.74830   0.01267  Uiso   1.00
C33    C     0.33630   0.15490   0.71060   0.01267  Uiso   1.00
C34    C     0.53740   0.10530   0.32780   0.01267  Uiso   1.00
C35    C     0.38940   0.15020   0.24990   0.01267  Uiso   1.00
C36    C     0.51250   0.23020   0.75730   0.01267  Uiso   1.00
C37    C     0.21660   0.14730   0.67260   0.01267  Uiso   1.00
C38    C     0.95670   0.72140   0.24050   0.01267  Uiso   1.00
C39    C     0.78760   0.63940   0.29220   0.01267  Uiso   1.00
C40    C     0.03740   0.60530   0.17220   0.01267  Uiso   1.00
C41    C     0.90670   0.93080   0.83140   0.01267  Uiso   1.00
C42    C     0.46260   0.89470   0.67220   0.01267  Uiso   1.00
C43    C     0.21240   0.36060   0.70780   0.01267  Uiso   1.00
C44    C     0.45670   0.22140   0.25950   0.01267  Uiso   1.00
C45    C     0.09330   0.06920   0.16860   0.01267  Uiso   1.00
C46    C     0.86530   0.60020   0.75170   0.01267  Uiso   1.00
C47    C     0.03190   0.38930   0.28960   0.01267  Uiso   1.00
C48    C     0.11060   0.34980   0.74990   0.01267  Uiso   1.00
C49    C     0.21440   0.07550   0.20410   0.01267  Uiso   1.00
C50    C     0.62600   0.01220   0.48700   0.01267  Uiso   1.00
C51    C     0.04330   0.27860   0.75950   0.01267  Uiso   1.00
C52    C     0.34210   0.82170   0.16540   0.01267  Uiso   1.00
C53    C     0.66370   0.84510   0.28940   0.01267  Uiso   1.00
C54    C     0.71240   0.86060   0.79220   0.01267  Uiso   1.00
C55    C     0.65790   0.17830   0.83460   0.01267  Uiso   1.00
C56    C     0.71660   0.64730   0.82740   0.01267  Uiso   1.00
C57    C     0.59330   0.56920   0.33140   0.01267  Uiso   1.00
C58    C     0.70280   0.97160   0.25890   0.01267  Uiso   1.00
C59    C     0.73870   0.47700   0.97010   0.01267  Uiso   1.00
C60    C     0.37400   0.98780   0.51300   0.01267  Uiso   1.00
C61    C     0.15790   0.67830   0.66540   0.01267  Uiso   1.00
C62    C     0.96260   0.39470   0.82780   0.01267  Uiso   1.00
C63    C     0.96810   0.61070   0.71040   0.01267  Uiso   1.00
C64    C     0.98750   0.26980   0.25730   0.01267  Uiso   1.00
C65    C     0.04150   0.67430   0.70600   0.01267  Uiso   1.00
C66    C     0.57840   0.90420   0.71360   0.01267  Uiso   1.00
C67    C     0.95850   0.32570   0.29400   0.01267  Uiso   1.00
C68    C     0.85000   0.53110   0.21870   0.01267  Uiso   1.00
C69    C     0.42360   0.94850   0.46560   0.01267  Uiso   1.00
C70    C     0.76130   0.02300   0.47010   0.01267  Uiso   1.00
C71    C     0.28340   0.35270   0.17260   0.01267  Uiso   1.00
C72    C     0.34410   0.89480   0.42610   0.01267  Uiso   1.00
C73    C     0.28760   0.13940   0.20780   0.01267  Uiso   1.00
C74    C     0.25360   0.47980   0.74060   0.01267  Uiso   1.00
C75    C     0.15000   0.46890   0.78130   0.01267  Uiso   1.00
C76    C     0.12600   0.51220   0.01300   0.01267  Uiso   1.00
C77    C     0.42160   0.09580   0.28640   0.01267  Uiso   1.00
C78    C     0.63470   0.89980   0.25170   0.01267  Uiso   1.00
C79    C     0.23870   0.97700   0.52990   0.01267  Uiso   1.00
C80    C     0.24640   0.02020   0.24060   0.01267  Uiso   1.00
C81    C     0.20280   0.47160   0.24110   0.01267  Uiso   1.00
C82    C     0.67680   0.44890   0.26720   0.01267  Uiso   1.00
C83    C     0.35000   0.03110   0.28130   0.01267  Uiso   1.00
C84    C     0.57640   0.05150   0.53440   0.01267  Uiso   1.00
C85    C     0.41020   0.21870   0.71530   0.01267  Uiso   1.00
C86    C     0.07840   0.40420   0.78640   0.01267  Uiso   1.00
C87    C     0.54970   0.96120   0.45380   0.01267  Uiso   1.00
C88    C     0.71440   0.57550   0.29590   0.01267  Uiso   1.00
C89    C     0.92360   0.44850   0.03440   0.01267  Uiso   1.00
C90    C     0.13470   0.39980   0.24830   0.01267  Uiso   1.00
C91    C     0.58980   0.78130   0.28470   0.01267  Uiso   1.00
C92    C     0.54150   0.17430   0.79400   0.01267  Uiso   1.00
C93    C     0.45850   0.82570   0.20600   0.01267  Uiso   1.00
C94    C     0.54330   0.77860   0.74050   0.01267  Uiso   1.00
C95    C     0.15590   0.60520   0.92610   0.01267  Uiso   1.00
C96    C     0.08100   0.80060   0.73340   0.01267  Uiso   1.00
C97    C     0.32320   0.55110   0.73280   0.01267  Uiso   1.00
C98    C     0.92160   0.59580   0.21360   0.01267  Uiso   1.00
C99    C     0.53190   0.88930   0.21040   0.01267  Uiso   1.00
C100   C     0.16370   0.34510   0.21060   0.01267  Uiso   1.00
O1     O     0.67900   0.52250   0.99040   0.01267  Uiso   1.00
O2     O     0.08240   0.10540   0.11803   0.01267  Uiso   1.00
O3     O     0.12370   0.81600   0.67686   0.01267  Uiso   1.00
O4     O     0.83710   0.07360   0.82570   0.01267  Uiso   1.00
O5     O     0.14080   0.91510   0.28308   0.01267  Uiso   1.00
O6     O     0.72040   0.99300   0.31720   0.01267  Uiso   1.00
O7     O     0.12320   0.11068   0.69868   0.01267  Uiso   1.00
O8     O     0.73120   0.00650   0.20790   0.01267  Uiso   1.00
O9     O     0.99990   0.26370   0.81580   0.01267  Uiso   1.00
O10    O     0.25870   0.69760   0.69707   0.01267  Uiso   1.00
O11    O     0.35920   0.58490   0.78308   0.01267  Uiso   1.00
O12    O     0.72830   0.39560   0.07398   0.01267  Uiso   1.00
O13    O     0.87630   0.18400   0.32314   0.01267  Uiso   1.00
O14    O     0.49990   0.76370   0.68420   0.01267  Uiso   1.00
O15    O     0.52960   0.10190   0.38810   0.01267  Uiso   1.00
O16    O     0.22830   0.89560   0.42602   0.01267  Uiso   1.00
O17    O     0.82100   0.97750   0.49040   0.01267  Uiso   1.00
O18    O     0.23120   0.50650   0.29210   0.01267  Uiso   1.00
O19    O     0.66290   0.42640   0.32570   0.01267  Uiso   1.00
O20    O     0.15020   0.66010   0.60720   0.01267  Uiso   1.00
O21    O     0.39450   0.85240   0.39400   0.01267  Uiso   1.00
O22    O     0.99980   0.96870   0.80619   0.01267  Uiso   1.00
O23    O     0.63750   0.11360   0.29500   0.01267  Uiso   1.00
O24    O     0.33710   0.57360   0.67430   0.01267  Uiso   1.00
O25    O     0.37680   0.38932   0.19868   0.01267  Uiso   1.00
O26    O     0.41760   0.39460   0.61803   0.01267  Uiso   1.00
O27    O     0.26880   0.99350   0.79210   0.01267  Uiso   1.00
O28    O     0.00010   0.73630   0.18420   0.01267  Uiso   1.00
O29    O     0.85920   0.08490   0.71692   0.01267  Uiso   1.00
O30    O     0.77960   0.50700   0.81720   0.01267  Uiso   1.00
O31    O     0.84980   0.33990   0.39280   0.01267  Uiso   1.00
O32    O     0.89450   0.35240   0.10600   0.01267  Uiso   1.00
O33    O     0.50020   0.53130   0.30619   0.01267  Uiso   1.00
O34    O     0.41020   0.65870   0.28142   0.01267  Uiso   1.00
O35    O     0.19320   0.92600   0.56485   0.01267  Uiso   1.00
O36    O     0.64080   0.41510   0.21692   0.01267  Uiso   1.00
O37    O     0.36250   0.88640   0.70500   0.01267  Uiso   1.00
O38    O     0.00020   0.03130   0.19381   0.01267  Uiso   1.00
O39    O     0.65020   0.16010   0.89280   0.01267  Uiso   1.00
O40    O     0.20780   0.17890   0.61966   0.01267  Uiso   1.00
O41    O     0.79220   0.82110   0.38034   0.01267  Uiso   1.00
O42    O     0.53790   0.73740   0.78760   0.01267  Uiso   1.00
O43    O     0.49980   0.46870   0.69381   0.01267  Uiso   1.00
O44    O     0.76880   0.49350   0.70790   0.01267  Uiso   1.00
O45    O     0.08980   0.84130   0.78142   0.01267  Uiso   1.00
O46    O     0.97040   0.39810   0.88810   0.01267  Uiso   1.00
O47    O     0.77170   0.10440   0.57398   0.01267  Uiso   1.00
O48    O     0.80680   0.07400   0.43515   0.01267  Uiso   1.00
O49    O     0.62370   0.31600   0.82314   0.01267  Uiso   1.00
O50    O     0.10550   0.64760   0.89400   0.01267  Uiso   1.00
O51    O     0.58980   0.34130   0.71858   0.01267  Uiso   1.00
O52    O     0.02960   0.60190   0.11190   0.01267  Uiso   1.00
O53    O     0.58240   0.60540   0.38197   0.01267  Uiso   1.00
O54    O     0.60550   0.14760   0.60600   0.01267  Uiso   1.00
O55    O     0.34980   0.83990   0.10720   0.01267  Uiso   1.00
O56    O     0.27170   0.60440   0.92602   0.01267  Uiso   1.00
O57    O     0.74130   0.30240   0.30293   0.01267  Uiso   1.00
O58    O     0.47040   0.89810   0.61190   0.01267  Uiso   1.00
O59    O     0.86250   0.38640   0.79500   0.01267  Uiso   1.00
O60    O     0.29220   0.32110   0.11966   0.01267  Uiso   1.00
O61    O     0.70780   0.67890   0.88034   0.01267  Uiso   1.00
O62    O     0.91020   0.15870   0.21858   0.01267  Uiso   1.00
O63    O     0.03790   0.23740   0.71240   0.01267  Uiso   1.00
O64    O     0.27960   0.00700   0.68280   0.01267  Uiso   1.00
O65    O     0.13750   0.61360   0.20500   0.01267  Uiso   1.00
O66    O     0.24130   0.80240   0.19707   0.01267  Uiso   1.00
O67    O     0.91760   0.89460   0.88197   0.01267  Uiso   1.00
O68    O     0.16290   0.92640   0.17430   0.01267  Uiso   1.00
O69    O     0.17900   0.02250   0.50960   0.01267  Uiso   1.00
O70    O     0.32100   0.47750   0.00960   0.01267  Uiso   1.00
O71    O     0.87680   0.88932   0.30132   0.01267  Uiso   1.00
O72    O     0.75870   0.19760   0.80293   0.01267  Uiso   1.00
O73    O     0.50010   0.23630   0.31580   0.01267  Uiso   1.00
O74    O     0.96210   0.76260   0.28760   0.01267  Uiso   1.00
O75    O     0.22040   0.49300   0.18280   0.01267  Uiso   1.00
O76    O     0.30680   0.57400   0.06485   0.01267  Uiso   1.00
O77    O     0.37630   0.68400   0.17686   0.01267  Uiso   1.00
O78    O     0.62320   0.61068   0.80132   0.01267  Uiso   1.00
O79    O     0.46210   0.26260   0.21240   0.01267  Uiso   1.00
O80    O     0.69320   0.42600   0.93515   0.01267  Uiso   1.00
