data_VIWLIY_clean
_audit_creation_date              2015-10-16
_audit_creation_method            'Materials Studio'
_symmetry_space_group_name_H-M    'P1'
_symmetry_Int_Tables_number       1
_symmetry_cell_setting            triclinic
loop_
_symmetry_equiv_pos_as_xyz
  x,y,z
_cell_length_a                    10.9850
_cell_length_b                    19.8560
_cell_length_c                    20.4500
_cell_angle_alpha                 90.0000
_cell_angle_beta                  90.0000
_cell_angle_gamma                 99.7300
loop_
_atom_site_label
_atom_site_type_symbol
_atom_site_fract_x
_atom_site_fract_y
_atom_site_fract_z
_atom_site_U_iso_or_equiv
_atom_site_adp_type
_atom_site_occupancy
La1    La    0.46461   0.65494   0.87339   0.01267  Uiso   1.00
La2    La    0.65970   0.41828   0.62600   0.01267  Uiso   1.00
La3    La    0.03539   0.84506   0.37339   0.01267  Uiso   1.00
La4    La    0.84030   0.08172   0.12600   0.01267  Uiso   1.00
La5    La    0.53539   0.34506   0.12661   0.01267  Uiso   1.00
La6    La    0.15970   0.91828   0.87400   0.01267  Uiso   1.00
La7    La    0.34030   0.58172   0.37400   0.01267  Uiso   1.00
La8    La    0.96461   0.15494   0.62661   0.01267  Uiso   1.00
Cu1    Cu    0.79254   0.08927   0.32593   0.01267  Uiso   1.00
Cu2    Cu    0.29254   0.58927   0.17407   0.01267  Uiso   1.00
Cu3    Cu    0.58030   0.33161   0.32540   0.01267  Uiso   1.00
Cu4    Cu    0.41970   0.66839   0.67460   0.01267  Uiso   1.00
Cu5    Cu    0.20746   0.91073   0.67407   0.01267  Uiso   1.00
Cu6    Cu    0.70746   0.41073   0.82593   0.01267  Uiso   1.00
Cu7    Cu    0.08030   0.83161   0.17460   0.01267  Uiso   1.00
Cu8    Cu    0.91970   0.16839   0.82540   0.01267  Uiso   1.00
H1     H     0.63090   0.00400   0.69510   0.01267  Uiso   1.00
H2     H     0.99060   0.57340   0.68840   0.01267  Uiso   1.00
H3     H     0.00940   0.42660   0.31160   0.01267  Uiso   1.00
H4     H     0.50940   0.92660   0.18840   0.01267  Uiso   1.00
H5     H     0.58150   0.93730   0.42100   0.01267  Uiso   1.00
H6     H     0.36910   0.99600   0.30490   0.01267  Uiso   1.00
H7     H     0.49060   0.07340   0.81160   0.01267  Uiso   1.00
H8     H     0.08150   0.43730   0.07900   0.01267  Uiso   1.00
H9     H     0.41850   0.06270   0.57900   0.01267  Uiso   1.00
H10    H     0.13090   0.50400   0.80490   0.01267  Uiso   1.00
H11    H     0.91850   0.56270   0.92100   0.01267  Uiso   1.00
H12    H     0.60690   0.74640   0.30970   0.01267  Uiso   1.00
H13    H     0.76660   0.67580   0.31650   0.01267  Uiso   1.00
H14    H     0.73340   0.82420   0.81650   0.01267  Uiso   1.00
H15    H     0.23340   0.32420   0.68350   0.01267  Uiso   1.00
H16    H     0.89310   0.75360   0.80970   0.01267  Uiso   1.00
H17    H     0.39310   0.25360   0.69030   0.01267  Uiso   1.00
H18    H     0.10690   0.24640   0.19030   0.01267  Uiso   1.00
H19    H     0.26660   0.17580   0.18350   0.01267  Uiso   1.00
H20    H     0.86910   0.49600   0.19510   0.01267  Uiso   1.00
C1     C     0.87410   0.48660   0.98650   0.01267  Uiso   1.00
C2     C     0.66080   0.17700   0.83270   0.01267  Uiso   1.00
C3     C     0.73940   0.47530   0.96840   0.01267  Uiso   1.00
C4     C     0.21830   0.14660   0.67240   0.01267  Uiso   1.00
C5     C     0.48500   0.77120   0.24340   0.01267  Uiso   1.00
C6     C     0.04870   0.46260   0.04730   0.01267  Uiso   1.00
C7     C     0.78170   0.85340   0.32760   0.01267  Uiso   1.00
C8     C     0.04500   0.27770   0.75930   0.01267  Uiso   1.00
C9     C     0.26060   0.52470   0.03160   0.01267  Uiso   1.00
C10    C     0.76060   0.02470   0.46840   0.01267  Uiso   1.00
C11    C     0.66180   0.84640   0.28970   0.01267  Uiso   1.00
C12    C     0.58340   0.29960   0.76610   0.01267  Uiso   1.00
C13    C     0.28570   0.14010   0.20870   0.01267  Uiso   1.00
C14    C     0.08340   0.79960   0.73390   0.01267  Uiso   1.00
C15    C     0.28780   0.42400   0.70480   0.01267  Uiso   1.00
C16    C     0.96470   0.39420   0.82740   0.01267  Uiso   1.00
C17    C     0.74400   0.52150   0.25940   0.01267  Uiso   1.00
C18    C     0.71830   0.64660   0.82760   0.01267  Uiso   1.00
C19    C     0.07740   0.55080   0.96570   0.01267  Uiso   1.00
C20    C     0.16080   0.67700   0.66730   0.01267  Uiso   1.00
C21    C     0.03530   0.60580   0.17260   0.01267  Uiso   1.00
C22    C     0.13200   0.40050   0.24680   0.01267  Uiso   1.00
C23    C     0.15800   0.60400   0.92580   0.01267  Uiso   1.00
C24    C     0.78780   0.92400   0.79520   0.01267  Uiso   1.00
C25    C     0.97080   0.60970   0.71260   0.01267  Uiso   1.00
C26    C     0.40910   0.42980   0.67030   0.01267  Uiso   1.00
C27    C     0.82560   0.05000   0.76640   0.01267  Uiso   1.00
C28    C     0.65800   0.10400   0.57420   0.01267  Uiso   1.00
C29    C     0.21430   0.35990   0.70870   0.01267  Uiso   1.00
C30    C     0.21220   0.07600   0.20480   0.01267  Uiso   1.00
C31    C     0.88760   0.65110   0.24990   0.01267  Uiso   1.00
C32    C     0.45500   0.22230   0.25930   0.01267  Uiso   1.00
C33    C     0.45530   0.82610   0.20770   0.01267  Uiso   1.00
C34    C     0.32560   0.55000   0.73360   0.01267  Uiso   1.00
C35    C     0.84790   0.53220   0.21900   0.01267  Uiso   1.00
C36    C     0.29880   0.02770   0.74000   0.01267  Uiso   1.00
C37    C     0.09090   0.07020   0.17030   0.01267  Uiso   1.00
C38    C     0.95530   0.32610   0.29230   0.01267  Uiso   1.00
C39    C     0.41660   0.70040   0.23390   0.01267  Uiso   1.00
C40    C     0.62590   0.01340   0.48650   0.01267  Uiso   1.00
C41    C     0.95130   0.53740   0.95270   0.01267  Uiso   1.00
C42    C     0.08770   0.28240   0.21510   0.01267  Uiso   1.00
C43    C     0.98500   0.27120   0.25660   0.01267  Uiso   1.00
C44    C     0.37410   0.98660   0.51350   0.01267  Uiso   1.00
C45    C     0.91660   0.20040   0.26610   0.01267  Uiso   1.00
C46    C     0.17440   0.95000   0.23360   0.01267  Uiso   1.00
C47    C     0.54870   0.96260   0.45270   0.01267  Uiso   1.00
C48    C     0.34790   0.03220   0.28100   0.01267  Uiso   1.00
C49    C     0.38760   0.15110   0.25010   0.01267  Uiso   1.00
C50    C     0.16180   0.34640   0.21030   0.01267  Uiso   1.00
C51    C     0.12590   0.51340   0.01350   0.01267  Uiso   1.00
C52    C     0.63200   0.90050   0.25320   0.01267  Uiso   1.00
C53    C     0.04470   0.67390   0.70770   0.01267  Uiso   1.00
C54    C     0.61240   0.84890   0.74990   0.01267  Uiso   1.00
C55    C     0.91230   0.71760   0.78490   0.01267  Uiso   1.00
C56    C     0.07980   0.40320   0.78570   0.01267  Uiso   1.00
C57    C     0.33820   0.15360   0.71030   0.01267  Uiso   1.00
C58    C     0.90910   0.92980   0.82970   0.01267  Uiso   1.00
C59    C     0.02920   0.39030   0.28740   0.01267  Uiso   1.00
C60    C     0.23940   0.97530   0.53160   0.01267  Uiso   1.00
C61    C     0.11240   0.34890   0.75010   0.01267  Uiso   1.00
C62    C     0.71430   0.85990   0.79130   0.01267  Uiso   1.00
C63    C     0.42020   0.09680   0.28570   0.01267  Uiso   1.00
C64    C     0.45130   0.03740   0.54730   0.01267  Uiso   1.00
C65    C     0.54500   0.77770   0.74070   0.01267  Uiso   1.00
C66    C     0.83920   0.32300   0.33270   0.01267  Uiso   1.00
C67    C     0.75600   0.97850   0.75940   0.01267  Uiso   1.00
C68    C     0.51500   0.22880   0.75660   0.01267  Uiso   1.00
C69    C     0.70120   0.97230   0.26000   0.01267  Uiso   1.00
C70    C     0.65210   0.96780   0.71900   0.01267  Uiso   1.00
C71    C     0.78570   0.64010   0.29130   0.01267  Uiso   1.00
C72    C     0.83820   0.65360   0.78970   0.01267  Uiso   1.00
C73    C     0.92020   0.59680   0.21430   0.01267  Uiso   1.00
C74    C     0.84200   0.39600   0.07420   0.01267  Uiso   1.00
C75    C     0.46470   0.89420   0.67260   0.01267  Uiso   1.00
C76    C     0.15210   0.46780   0.78100   0.01267  Uiso   1.00
C77    C     0.24400   0.02150   0.24060   0.01267  Uiso   1.00
C78    C     0.41230   0.21760   0.71510   0.01267  Uiso   1.00
C79    C     0.34200   0.89600   0.42580   0.01267  Uiso   1.00
C80    C     0.58770   0.78240   0.28490   0.01267  Uiso   1.00
C81    C     0.20120   0.47230   0.24000   0.01267  Uiso   1.00
C82    C     0.57980   0.90320   0.71430   0.01267  Uiso   1.00
C83    C     0.54470   0.17390   0.79230   0.01267  Uiso   1.00
C84    C     0.47080   0.10970   0.78740   0.01267  Uiso   1.00
C85    C     0.33920   0.82300   0.16730   0.01267  Uiso   1.00
C86    C     0.67440   0.45000   0.26640   0.01267  Uiso   1.00
C87    C     0.53530   0.10580   0.32740   0.01267  Uiso   1.00
C88    C     0.36800   0.09950   0.74680   0.01267  Uiso   1.00
C89    C     0.52920   0.89030   0.21260   0.01267  Uiso   1.00
C90    C     0.57740   0.05080   0.53430   0.01267  Uiso   1.00
C91    C     0.95500   0.72230   0.24070   0.01267  Uiso   1.00
C92    C     0.28170   0.35340   0.17240   0.01267  Uiso   1.00
C93    C     0.71220   0.57600   0.29520   0.01267  Uiso   1.00
C94    C     0.01500   0.72880   0.74340   0.01267  Uiso   1.00
C95    C     0.25600   0.47850   0.74060   0.01267  Uiso   1.00
C96    C     0.59090   0.57020   0.32970   0.01267  Uiso   1.00
C97    C     0.79880   0.52770   0.76000   0.01267  Uiso   1.00
C98    C     0.42260   0.94920   0.46570   0.01267  Uiso   1.00
C99    C     0.86800   0.59950   0.75320   0.01267  Uiso   1.00
C100   C     0.92260   0.44920   0.03430   0.01267  Uiso   1.00
O1     O     0.72650   0.39640   0.07424   0.01267  Uiso   1.00
O2     O     0.50130   0.46764   0.69452   0.01267  Uiso   1.00
O3     O     0.23900   0.80368   0.19868   0.01267  Uiso   1.00
O4     O     0.21050   0.17810   0.62059   0.01267  Uiso   1.00
O5     O     0.33910   0.57270   0.67592   0.01267  Uiso   1.00
O6     O     0.78950   0.82190   0.37941   0.01267  Uiso   1.00
O7     O     0.12640   0.81532   0.67779   0.01267  Uiso   1.00
O8     O     0.53820   0.73703   0.78740   0.01267  Uiso   1.00
O9     O     0.46180   0.26297   0.21260   0.01267  Uiso   1.00
O10    O     0.80520   0.07610   0.43418   0.01267  Uiso   1.00
O11    O     0.28950   0.32190   0.12059   0.01267  Uiso   1.00
O12    O     0.21750   0.49373   0.18271   0.01267  Uiso   1.00
O13    O     0.13580   0.61464   0.20531   0.01267  Uiso   1.00
O14    O     0.00130   0.96764   0.80548   0.01267  Uiso   1.00
O15    O     0.40750   0.65951   0.28134   0.01267  Uiso   1.00
O16    O     0.37360   0.68468   0.17779   0.01267  Uiso   1.00
O17    O     0.84630   0.34230   0.38990   0.01267  Uiso   1.00
O18    O     0.13830   0.91628   0.28349   0.01267  Uiso   1.00
O19    O     0.73000   0.00678   0.20937   0.01267  Uiso   1.00
O20    O     0.27000   0.99322   0.79063   0.01267  Uiso   1.00
O21    O     0.49870   0.53236   0.30548   0.01267  Uiso   1.00
O22    O     0.62640   0.31532   0.82221   0.01267  Uiso   1.00
O23    O     0.03820   0.23703   0.71260   0.01267  Uiso   1.00
O24    O     0.19480   0.92390   0.56582   0.01267  Uiso   1.00
O25    O     0.69480   0.42390   0.93418   0.01267  Uiso   1.00
O26    O     0.58130   0.60600   0.37992   0.01267  Uiso   1.00
O27    O     0.15370   0.65770   0.61010   0.01267  Uiso   1.00
O28    O     0.99780   0.73725   0.18490   0.01267  Uiso   1.00
O29    O     0.49780   0.23725   0.31510   0.01267  Uiso   1.00
O30    O     0.02740   0.60200   0.11320   0.01267  Uiso   1.00
O31    O     0.65370   0.15770   0.88990   0.01267  Uiso   1.00
O32    O     0.36420   0.88536   0.70531   0.01267  Uiso   1.00
O33    O     0.78250   0.50627   0.81729   0.01267  Uiso   1.00
O34    O     0.27350   0.60360   0.92576   0.01267  Uiso   1.00
O35    O     0.30520   0.57610   0.06582   0.01267  Uiso   1.00
O36    O     0.99870   0.03236   0.19452   0.01267  Uiso   1.00
O37    O     0.28250   0.00627   0.68271   0.01267  Uiso   1.00
O38    O     0.73900   0.30368   0.30132   0.01267  Uiso   1.00
O39    O     0.71750   0.99373   0.31729   0.01267  Uiso   1.00
O40    O     0.96180   0.76297   0.28740   0.01267  Uiso   1.00
O41    O     0.09250   0.84049   0.78134   0.01267  Uiso   1.00
O42    O     0.62530   0.60985   0.80186   0.01267  Uiso   1.00
O43    O     0.76100   0.19632   0.80132   0.01267  Uiso   1.00
O44    O     0.41870   0.39400   0.62008   0.01267  Uiso   1.00
O45    O     0.91870   0.89400   0.87992   0.01267  Uiso   1.00
O46    O     0.63580   0.11464   0.29469   0.01267  Uiso   1.00
O47    O     0.16090   0.92730   0.17592   0.01267  Uiso   1.00
O48    O     0.90750   0.15951   0.21866   0.01267  Uiso   1.00
O49    O     0.50220   0.76275   0.68490   0.01267  Uiso   1.00
O50    O     0.87360   0.18468   0.32221   0.01267  Uiso   1.00
O51    O     0.89230   0.35510   0.10720   0.01267  Uiso   1.00
O52    O     0.22650   0.89640   0.42576   0.01267  Uiso   1.00
O53    O     0.00220   0.26275   0.81510   0.01267  Uiso   1.00
O54    O     0.71050   0.67810   0.87941   0.01267  Uiso   1.00
O55    O     0.47260   0.89800   0.61320   0.01267  Uiso   1.00
O56    O     0.23000   0.50678   0.29063   0.01267  Uiso   1.00
O57    O     0.10770   0.64490   0.89280   0.01267  Uiso   1.00
O58    O     0.63830   0.41628   0.21651   0.01267  Uiso   1.00
O59    O     0.59250   0.34049   0.71866   0.01267  Uiso   1.00
O60    O     0.32100   0.47990   0.01220   0.01267  Uiso   1.00
O61    O     0.52740   0.10200   0.38680   0.01267  Uiso   1.00
O62    O     0.37470   0.39015   0.19814   0.01267  Uiso   1.00
O63    O     0.87470   0.89015   0.30186   0.01267  Uiso   1.00
O64    O     0.17900   0.02010   0.51220   0.01267  Uiso   1.00
O65    O     0.83910   0.07270   0.82408   0.01267  Uiso   1.00
O66    O     0.86420   0.38536   0.79469   0.01267  Uiso   1.00
O67    O     0.60770   0.14490   0.60720   0.01267  Uiso   1.00
O68    O     0.77350   0.10360   0.57424   0.01267  Uiso   1.00
O69    O     0.12530   0.10985   0.69814   0.01267  Uiso   1.00
O70    O     0.39230   0.85510   0.39280   0.01267  Uiso   1.00
O71    O     0.66090   0.42730   0.32408   0.01267  Uiso   1.00
O72    O     0.97260   0.39800   0.88680   0.01267  Uiso   1.00
O73    O     0.08130   0.10600   0.12008   0.01267  Uiso   1.00
O74    O     0.86170   0.08372   0.71651   0.01267  Uiso   1.00
O75    O     0.67900   0.52010   0.98780   0.01267  Uiso   1.00
O76    O     0.26100   0.69632   0.69868   0.01267  Uiso   1.00
O77    O     0.77000   0.49322   0.70937   0.01267  Uiso   1.00
O78    O     0.34630   0.84230   0.11010   0.01267  Uiso   1.00
O79    O     0.82100   0.97990   0.48780   0.01267  Uiso   1.00
O80    O     0.36170   0.58372   0.78349   0.01267  Uiso   1.00
