data_VIWMAR_clean
_audit_creation_date              2015-10-16
_audit_creation_method            'Materials Studio'
_symmetry_space_group_name_H-M    'P1'
_symmetry_Int_Tables_number       1
_symmetry_cell_setting            triclinic
loop_
_symmetry_equiv_pos_as_xyz
  x,y,z
_cell_length_a                    10.9270
_cell_length_b                    19.8070
_cell_length_c                    20.3910
_cell_angle_alpha                 90.0000
_cell_angle_beta                  90.0000
_cell_angle_gamma                 99.6100
loop_
_atom_site_label
_atom_site_type_symbol
_atom_site_fract_x
_atom_site_fract_y
_atom_site_fract_z
_atom_site_U_iso_or_equiv
_atom_site_adp_type
_atom_site_occupancy
Nd1    Nd    0.34111   0.58197   0.37302   0.01267  Uiso   1.00
Nd2    Nd    0.03743   0.84552   0.37212   0.01267  Uiso   1.00
Nd3    Nd    0.65889   0.41803   0.62698   0.01267  Uiso   1.00
Nd4    Nd    0.53743   0.34552   0.12788   0.01267  Uiso   1.00
Nd5    Nd    0.46257   0.65448   0.87212   0.01267  Uiso   1.00
Nd6    Nd    0.84111   0.08197   0.12698   0.01267  Uiso   1.00
Nd7    Nd    0.15889   0.91803   0.87302   0.01267  Uiso   1.00
Nd8    Nd    0.96257   0.15448   0.62788   0.01267  Uiso   1.00
Cu1    Cu    0.41986   0.66849   0.67391   0.01267  Uiso   1.00
Cu2    Cu    0.58014   0.33151   0.32609   0.01267  Uiso   1.00
Cu3    Cu    0.08014   0.83151   0.17391   0.01267  Uiso   1.00
Cu4    Cu    0.29529   0.58979   0.17337   0.01267  Uiso   1.00
Cu5    Cu    0.70471   0.41021   0.82663   0.01267  Uiso   1.00
Cu6    Cu    0.20471   0.91021   0.67337   0.01267  Uiso   1.00
Cu7    Cu    0.79529   0.08979   0.32663   0.01267  Uiso   1.00
Cu8    Cu    0.91986   0.16849   0.82609   0.01267  Uiso   1.00
H1     H     0.48690   0.07300   0.81300   0.01267  Uiso   1.00
H2     H     0.76830   0.67620   0.31750   0.01267  Uiso   1.00
H3     H     0.10560   0.24760   0.18760   0.01267  Uiso   1.00
H4     H     0.01310   0.42700   0.31300   0.01267  Uiso   1.00
H5     H     0.51310   0.92700   0.18700   0.01267  Uiso   1.00
H6     H     0.86960   0.49570   0.19680   0.01267  Uiso   1.00
H7     H     0.36960   0.99570   0.30320   0.01267  Uiso   1.00
H8     H     0.91720   0.56290   0.92160   0.01267  Uiso   1.00
H9     H     0.41720   0.06290   0.57840   0.01267  Uiso   1.00
H10    H     0.26830   0.17620   0.18250   0.01267  Uiso   1.00
H11    H     0.89440   0.75240   0.81240   0.01267  Uiso   1.00
H12    H     0.23170   0.32380   0.68250   0.01267  Uiso   1.00
H13    H     0.58280   0.93710   0.42160   0.01267  Uiso   1.00
H14    H     0.39440   0.25240   0.68760   0.01267  Uiso   1.00
H15    H     0.63040   0.00430   0.69680   0.01267  Uiso   1.00
H16    H     0.98690   0.57300   0.68700   0.01267  Uiso   1.00
H17    H     0.73170   0.82380   0.81750   0.01267  Uiso   1.00
H18    H     0.60560   0.74760   0.31240   0.01267  Uiso   1.00
H19    H     0.13040   0.50430   0.80320   0.01267  Uiso   1.00
H20    H     0.08280   0.43710   0.07840   0.01267  Uiso   1.00
C1     C     0.91780   0.20060   0.26510   0.01267  Uiso   1.00
C2     C     0.90930   0.92950   0.83130   0.01267  Uiso   1.00
C3     C     0.71140   0.57610   0.29640   0.01267  Uiso   1.00
C4     C     0.36570   0.09920   0.74710   0.01267  Uiso   1.00
C5     C     0.46870   0.10950   0.78820   0.01267  Uiso   1.00
C6     C     0.24510   0.02240   0.24070   0.01267  Uiso   1.00
C7     C     0.29770   0.02730   0.74060   0.01267  Uiso   1.00
C8     C     0.26170   0.52450   0.03190   0.01267  Uiso   1.00
C9     C     0.16460   0.34690   0.21090   0.01267  Uiso   1.00
C10    C     0.21140   0.07610   0.20360   0.01267  Uiso   1.00
C11    C     0.66000   0.10420   0.57490   0.01267  Uiso   1.00
C12    C     0.03130   0.39050   0.28820   0.01267  Uiso   1.00
C13    C     0.78860   0.92390   0.79640   0.01267  Uiso   1.00
C14    C     0.96530   0.39450   0.82790   0.01267  Uiso   1.00
C15    C     0.21510   0.14630   0.67210   0.01267  Uiso   1.00
C16    C     0.07860   0.40330   0.78610   0.01267  Uiso   1.00
C17    C     0.58220   0.29940   0.76510   0.01267  Uiso   1.00
C18    C     0.16020   0.67730   0.66770   0.01267  Uiso   1.00
C19    C     0.01280   0.72890   0.74390   0.01267  Uiso   1.00
C20    C     0.51280   0.22890   0.75610   0.01267  Uiso   1.00
C21    C     0.87340   0.48690   0.98640   0.01267  Uiso   1.00
C22    C     0.46530   0.89450   0.67210   0.01267  Uiso   1.00
C23    C     0.86570   0.59920   0.75290   0.01267  Uiso   1.00
C24    C     0.70230   0.97270   0.25940   0.01267  Uiso   1.00
C25    C     0.95670   0.72150   0.24150   0.01267  Uiso   1.00
C26    C     0.32590   0.55050   0.73280   0.01267  Uiso   1.00
C27    C     0.54950   0.96280   0.45300   0.01267  Uiso   1.00
C28    C     0.65180   0.96750   0.71990   0.01267  Uiso   1.00
C29    C     0.62660   0.01310   0.48640   0.01267  Uiso   1.00
C30    C     0.04480   0.67260   0.70680   0.01267  Uiso   1.00
C31    C     0.48720   0.77110   0.24390   0.01267  Uiso   1.00
C32    C     0.08820   0.28300   0.21420   0.01267  Uiso   1.00
C33    C     0.11110   0.34930   0.74960   0.01267  Uiso   1.00
C34    C     0.41180   0.21700   0.71420   0.01267  Uiso   1.00
C35    C     0.63430   0.90080   0.25290   0.01267  Uiso   1.00
C36    C     0.75490   0.97760   0.75930   0.01267  Uiso   1.00
C37    C     0.08220   0.79940   0.73490   0.01267  Uiso   1.00
C38    C     0.33540   0.15310   0.71090   0.01267  Uiso   1.00
C39    C     0.98720   0.27110   0.25610   0.01267  Uiso   1.00
C40    C     0.04330   0.27850   0.75850   0.01267  Uiso   1.00
C41    C     0.28670   0.14020   0.20790   0.01267  Uiso   1.00
C42    C     0.53130   0.89050   0.21180   0.01267  Uiso   1.00
C43    C     0.04950   0.46280   0.04700   0.01267  Uiso   1.00
C44    C     0.95520   0.32740   0.29320   0.01267  Uiso   1.00
C45    C     0.92140   0.59670   0.21390   0.01267  Uiso   1.00
C46    C     0.53470   0.10550   0.32790   0.01267  Uiso   1.00
C47    C     0.20230   0.47270   0.24060   0.01267  Uiso   1.00
C48    C     0.45050   0.03720   0.54700   0.01267  Uiso   1.00
C49    C     0.61110   0.84930   0.75040   0.01267  Uiso   1.00
C50    C     0.33980   0.82270   0.16770   0.01267  Uiso   1.00
C51    C     0.71510   0.64630   0.82790   0.01267  Uiso   1.00
C52    C     0.79770   0.52730   0.75940   0.01267  Uiso   1.00
C53    C     0.25490   0.47760   0.74070   0.01267  Uiso   1.00
C54    C     0.42150   0.94950   0.46540   0.01267  Uiso   1.00
C55    C     0.12660   0.51310   0.01360   0.01267  Uiso   1.00
C56    C     0.78490   0.85370   0.32790   0.01267  Uiso   1.00
C57    C     0.15180   0.46750   0.78010   0.01267  Uiso   1.00
C58    C     0.21330   0.35980   0.70790   0.01267  Uiso   1.00
C59    C     0.34000   0.89580   0.42510   0.01267  Uiso   1.00
C60    C     0.54330   0.77850   0.74150   0.01267  Uiso   1.00
C61    C     0.67410   0.44950   0.26720   0.01267  Uiso   1.00
C62    C     0.66020   0.17730   0.83230   0.01267  Uiso   1.00
C63    C     0.88890   0.65070   0.25040   0.01267  Uiso   1.00
C64    C     0.42140   0.09670   0.28610   0.01267  Uiso   1.00
C65    C     0.78670   0.64020   0.29210   0.01267  Uiso   1.00
C66    C     0.91180   0.71700   0.78580   0.01267  Uiso   1.00
C67    C     0.13430   0.40080   0.24710   0.01267  Uiso   1.00
C68    C     0.95050   0.53720   0.95300   0.01267  Uiso   1.00
C69    C     0.03470   0.60550   0.17210   0.01267  Uiso   1.00
C70    C     0.66460   0.84690   0.28910   0.01267  Uiso   1.00
C71    C     0.28860   0.42390   0.70360   0.01267  Uiso   1.00
C72    C     0.17410   0.94950   0.23280   0.01267  Uiso   1.00
C73    C     0.45670   0.22150   0.25850   0.01267  Uiso   1.00
C74    C     0.73830   0.47550   0.96810   0.01267  Uiso   1.00
C75    C     0.57860   0.90330   0.71390   0.01267  Uiso   1.00
C76    C     0.37340   0.98690   0.51360   0.01267  Uiso   1.00
C77    C     0.74510   0.52240   0.25930   0.01267  Uiso   1.00
C78    C     0.82590   0.05050   0.76720   0.01267  Uiso   1.00
C79    C     0.38890   0.15070   0.24960   0.01267  Uiso   1.00
C80    C     0.23830   0.97550   0.53190   0.01267  Uiso   1.00
C81    C     0.07850   0.55050   0.96540   0.01267  Uiso   1.00
C82    C     0.34820   0.03250   0.28010   0.01267  Uiso   1.00
C83    C     0.84820   0.53250   0.21990   0.01267  Uiso   1.00
C84    C     0.96870   0.60950   0.71180   0.01267  Uiso   1.00
C85    C     0.84000   0.39580   0.07490   0.01267  Uiso   1.00
C86    C     0.28490   0.35370   0.17210   0.01267  Uiso   1.00
C87    C     0.41780   0.70060   0.23490   0.01267  Uiso   1.00
C88    C     0.54480   0.17260   0.79320   0.01267  Uiso   1.00
C89    C     0.92150   0.44950   0.03460   0.01267  Uiso   1.00
C90    C     0.71330   0.85980   0.79210   0.01267  Uiso   1.00
C91    C     0.83540   0.65310   0.78910   0.01267  Uiso   1.00
C92    C     0.16000   0.60420   0.92510   0.01267  Uiso   1.00
C93    C     0.58820   0.78300   0.28580   0.01267  Uiso   1.00
C94    C     0.57850   0.05050   0.53460   0.01267  Uiso   1.00
C95    C     0.09070   0.07050   0.16870   0.01267  Uiso   1.00
C96    C     0.45520   0.82740   0.20680   0.01267  Uiso   1.00
C97    C     0.40930   0.42950   0.66870   0.01267  Uiso   1.00
C98    C     0.76170   0.02450   0.46810   0.01267  Uiso   1.00
C99    C     0.59070   0.57050   0.33130   0.01267  Uiso   1.00
C100   C     0.83980   0.32270   0.33230   0.01267  Uiso   1.00
O1     O     0.24070   0.80380   0.19790   0.01267  Uiso   1.00
O2     O     0.30790   0.57650   0.06480   0.01267  Uiso   1.00
O3     O     0.90870   0.15920   0.21860   0.01267  Uiso   1.00
O4     O     0.27410   0.60310   0.92490   0.01267  Uiso   1.00
O5     O     0.75930   0.19620   0.80210   0.01267  Uiso   1.00
O6     O     0.72140   0.99410   0.31760   0.01267  Uiso   1.00
O7     O     0.84060   0.07310   0.82450   0.01267  Uiso   1.00
O8     O     0.96330   0.76330   0.28810   0.01267  Uiso   1.00
O9     O     0.34060   0.57310   0.67550   0.01267  Uiso   1.00
O10    O     0.47320   0.89700   0.61250   0.01267  Uiso   1.00
O11    O     0.74070   0.30380   0.30210   0.01267  Uiso   1.00
O12    O     0.12210   0.11040   0.69900   0.01267  Uiso   1.00
O13    O     0.62450   0.31450   0.82210   0.01267  Uiso   1.00
O14    O     0.02680   0.60300   0.11250   0.01267  Uiso   1.00
O15    O     0.37550   0.68550   0.17790   0.01267  Uiso   1.00
O16    O     0.86020   0.08400   0.71680   0.01267  Uiso   1.00
O17    O     0.73050   0.00790   0.20880   0.01267  Uiso   1.00
O18    O     0.49700   0.53250   0.30580   0.01267  Uiso   1.00
O19    O     0.37790   0.38960   0.19900   0.01267  Uiso   1.00
O20    O     0.69210   0.42350   0.93520   0.01267  Uiso   1.00
O21    O     0.27860   0.00590   0.68240   0.01267  Uiso   1.00
O22    O     0.13760   0.61430   0.20480   0.01267  Uiso   1.00
O23    O     0.15940   0.92690   0.17550   0.01267  Uiso   1.00
O24    O     0.50100   0.76300   0.68490   0.01267  Uiso   1.00
O25    O     0.77860   0.50590   0.81760   0.01267  Uiso   1.00
O26    O     0.65070   0.15760   0.89060   0.01267  Uiso   1.00
O27    O     0.99700   0.03250   0.19420   0.01267  Uiso   1.00
O28    O     0.10770   0.64510   0.89170   0.01267  Uiso   1.00
O29    O     0.87550   0.18550   0.32210   0.01267  Uiso   1.00
O30    O     0.79340   0.82230   0.37980   0.01267  Uiso   1.00
O31    O     0.50300   0.46750   0.69420   0.01267  Uiso   1.00
O32    O     0.23050   0.50790   0.29120   0.01267  Uiso   1.00
O33    O     0.17750   0.02090   0.51210   0.01267  Uiso   1.00
O34    O     0.65940   0.42690   0.32450   0.01267  Uiso   1.00
O35    O     0.63980   0.41600   0.21680   0.01267  Uiso   1.00
O36    O     0.97320   0.39700   0.88750   0.01267  Uiso   1.00
O37    O     0.26950   0.99210   0.79120   0.01267  Uiso   1.00
O38    O     0.29340   0.32230   0.12020   0.01267  Uiso   1.00
O39    O     0.12450   0.81450   0.67790   0.01267  Uiso   1.00
O40    O     0.82250   0.97910   0.48790   0.01267  Uiso   1.00
O41    O     0.03670   0.23670   0.71190   0.01267  Uiso   1.00
O42    O     0.49900   0.23700   0.31510   0.01267  Uiso   1.00
O43    O     0.32250   0.47910   0.01210   0.01267  Uiso   1.00
O44    O     0.25930   0.69620   0.69790   0.01267  Uiso   1.00
O45    O     0.42010   0.39380   0.61950   0.01267  Uiso   1.00
O46    O     0.00100   0.26300   0.81510   0.01267  Uiso   1.00
O47    O     0.09130   0.84080   0.78140   0.01267  Uiso   1.00
O48    O     0.84930   0.34240   0.39060   0.01267  Uiso   1.00
O49    O     0.13980   0.91600   0.28320   0.01267  Uiso   1.00
O50    O     0.70660   0.67770   0.87980   0.01267  Uiso   1.00
O51    O     0.62210   0.61040   0.80100   0.01267  Uiso   1.00
O52    O     0.63760   0.11430   0.29520   0.01267  Uiso   1.00
O53    O     0.59130   0.34080   0.71860   0.01267  Uiso   1.00
O54    O     0.52680   0.10300   0.38750   0.01267  Uiso   1.00
O55    O     0.40870   0.65920   0.28140   0.01267  Uiso   1.00
O56    O     0.36020   0.58400   0.78320   0.01267  Uiso   1.00
O57    O     0.77410   0.10310   0.57510   0.01267  Uiso   1.00
O58    O     0.39230   0.85490   0.39170   0.01267  Uiso   1.00
O59    O     0.20660   0.17770   0.62020   0.01267  Uiso   1.00
O60    O     0.72590   0.39690   0.07510   0.01267  Uiso   1.00
O61    O     0.80790   0.07650   0.43520   0.01267  Uiso   1.00
O62    O     0.67750   0.52090   0.98790   0.01267  Uiso   1.00
O63    O     0.22140   0.49410   0.18240   0.01267  Uiso   1.00
O64    O     0.53670   0.73670   0.78810   0.01267  Uiso   1.00
O65    O     0.00300   0.96750   0.80580   0.01267  Uiso   1.00
O66    O     0.36240   0.88570   0.70480   0.01267  Uiso   1.00
O67    O     0.60770   0.14510   0.60830   0.01267  Uiso   1.00
O68    O     0.15070   0.65760   0.60940   0.01267  Uiso   1.00
O69    O     0.76950   0.49210   0.70880   0.01267  Uiso   1.00
O70    O     0.57990   0.60620   0.38050   0.01267  Uiso   1.00
O71    O     0.92010   0.89380   0.88050   0.01267  Uiso   1.00
O72    O     0.34930   0.84240   0.10940   0.01267  Uiso   1.00
O73    O     0.99900   0.73700   0.18490   0.01267  Uiso   1.00
O74    O     0.46330   0.26330   0.21190   0.01267  Uiso   1.00
O75    O     0.07990   0.10620   0.11950   0.01267  Uiso   1.00
O76    O     0.89230   0.35490   0.10830   0.01267  Uiso   1.00
O77    O     0.19210   0.92350   0.56480   0.01267  Uiso   1.00
O78    O     0.22590   0.89690   0.42490   0.01267  Uiso   1.00
O79    O     0.87790   0.88960   0.30100   0.01267  Uiso   1.00
O80    O     0.86240   0.38570   0.79520   0.01267  Uiso   1.00
