data_image0
_cell_length_a       10.2511
_cell_length_b       13.8478
_cell_length_c       16.0022
_cell_angle_alpha    90
_cell_angle_beta     95.643
_cell_angle_gamma    90

_symmetry_space_group_name_H-M    "P 1"
_symmetry_int_tables_number       1

loop_
  _symmetry_equiv_pos_as_xyz
  'x, y, z'

loop_
  _atom_site_label
  _atom_site_occupancy
  _atom_site_fract_x
  _atom_site_fract_y
  _atom_site_fract_z
  _atom_site_thermal_displace_type
  _atom_site_B_iso_or_equiv
  _atom_site_type_symbol
  Zn1      1.0000 0.87616  0.03214  0.04527  Biso   1.000  Zn
  Zn2      1.0000 0.01921  0.19762  0.93118  Biso   1.000  Zn
  C1       1.0000 0.61683  0.17629  0.85386  Biso   1.000  C
  C2       1.0000 0.61498  0.24751  0.79254  Biso   1.000  C
  H1       1.0000 0.69500  0.27320  0.77690  Biso   1.000  H
  C3       1.0000 0.49608  0.28110  0.75414  Biso   1.000  C
  C4       1.0000 0.37904  0.24346  0.77705  Biso   1.000  C
  H2       1.0000 0.29780  0.26640  0.75080  Biso   1.000  H
  C5       1.0000 0.38089  0.17224  0.83837  Biso   1.000  C
  C6       1.0000 0.49979  0.13865  0.87677  Biso   1.000  C
  H3       1.0000 0.50110  0.09000  0.91870  Biso   1.000  H
  C7       1.0000 0.74494  0.14424  0.89927  Biso   1.000  C
  C8       1.0000 0.49863  0.35619  0.68508  Biso   1.000  C
  C9       1.0000 0.25572  0.13401  0.86689  Biso   1.000  C
  O1       1.0000 0.84786  0.17211  0.86948  Biso   1.000  O
  O2       1.0000 0.73941  0.09259  0.96397  Biso   1.000  O
  O3       1.0000 0.60716  0.38452  0.66720  Biso   1.000  O
  O4       1.0000 0.38807  0.38505  0.65000  Biso   1.000  O
  O5       1.0000 0.26184  0.05367  0.90390  Biso   1.000  O
  O6       1.0000 0.15456  0.18539  0.85247  Biso   1.000  O
  O7       1.0000 0.04976  0.08707  0.00551  Biso   1.000  O
  I1       1.0000 0.01793  0.35376  0.01078  Biso   1.000  I
  Zn3      1.0000 0.62384  0.53214  0.45473  Biso   1.000  Zn
  Zn4      1.0000 0.48079  0.69762  0.56882  Biso   1.000  Zn
  C10      1.0000 0.88317  0.67629  0.64614  Biso   1.000  C
  C11      1.0000 0.88502  0.74751  0.70746  Biso   1.000  C
  H4       1.0000 0.80500  0.77320  0.72310  Biso   1.000  H
  C12      1.0000 0.00392  0.78110  0.74586  Biso   1.000  C
  C13      1.0000 0.12096  0.74346  0.72295  Biso   1.000  C
  H5       1.0000 0.20220  0.76640  0.74920  Biso   1.000  H
  C14      1.0000 0.11911  0.67224  0.66163  Biso   1.000  C
  C15      1.0000 0.00021  0.63865  0.62323  Biso   1.000  C
  H6       1.0000 0.99890  0.59000  0.58130  Biso   1.000  H
  C16      1.0000 0.75506  0.64424  0.60073  Biso   1.000  C
  C17      1.0000 0.00137  0.85619  0.81492  Biso   1.000  C
  C18      1.0000 0.24428  0.63401  0.63311  Biso   1.000  C
  O8       1.0000 0.65214  0.67211  0.63052  Biso   1.000  O
  O9       1.0000 0.76059  0.59259  0.53603  Biso   1.000  O
  O10      1.0000 0.89284  0.88452  0.83280  Biso   1.000  O
  O11      1.0000 0.11193  0.88505  0.85000  Biso   1.000  O
  O12      1.0000 0.23816  0.55367  0.59610  Biso   1.000  O
  O13      1.0000 0.34544  0.68539  0.64753  Biso   1.000  O
  O14      1.0000 0.45024  0.58707  0.49449  Biso   1.000  O
  I2       1.0000 0.48207  0.85376  0.48922  Biso   1.000  I
  Zn5      1.0000 0.12384  0.96786  0.95473  Biso   1.000  Zn
  Zn6      1.0000 0.98079  0.80238  0.06882  Biso   1.000  Zn
  C19      1.0000 0.38317  0.82371  0.14614  Biso   1.000  C
  C20      1.0000 0.38502  0.75249  0.20746  Biso   1.000  C
  H7       1.0000 0.30500  0.72680  0.22310  Biso   1.000  H
  C21      1.0000 0.50392  0.71890  0.24586  Biso   1.000  C
  C22      1.0000 0.62096  0.75654  0.22295  Biso   1.000  C
  H8       1.0000 0.70220  0.73360  0.24920  Biso   1.000  H
  C23      1.0000 0.61911  0.82776  0.16163  Biso   1.000  C
  C24      1.0000 0.50021  0.86135  0.12323  Biso   1.000  C
  H9       1.0000 0.49890  0.91000  0.08130  Biso   1.000  H
  C25      1.0000 0.25506  0.85576  0.10073  Biso   1.000  C
  C26      1.0000 0.50137  0.64381  0.31492  Biso   1.000  C
  C27      1.0000 0.74428  0.86599  0.13311  Biso   1.000  C
  O15      1.0000 0.15214  0.82789  0.13052  Biso   1.000  O
  O16      1.0000 0.26059  0.90741  0.03603  Biso   1.000  O
  O17      1.0000 0.39284  0.61548  0.33280  Biso   1.000  O
  O18      1.0000 0.61193  0.61495  0.35000  Biso   1.000  O
  O19      1.0000 0.73816  0.94633  0.09610  Biso   1.000  O
  O20      1.0000 0.84544  0.81461  0.14753  Biso   1.000  O
  O21      1.0000 0.95024  0.91293  0.99449  Biso   1.000  O
  I3       1.0000 0.98207  0.64624  0.98922  Biso   1.000  I
  Zn7      1.0000 0.37616  0.46786  0.54527  Biso   1.000  Zn
  Zn8      1.0000 0.51921  0.30238  0.43118  Biso   1.000  Zn
  C28      1.0000 0.11683  0.32371  0.35386  Biso   1.000  C
  C29      1.0000 0.11498  0.25249  0.29254  Biso   1.000  C
  H10      1.0000 0.19500  0.22680  0.27690  Biso   1.000  H
  C30      1.0000 0.99608  0.21890  0.25414  Biso   1.000  C
  C31      1.0000 0.87904  0.25654  0.27705  Biso   1.000  C
  H11      1.0000 0.79780  0.23360  0.25080  Biso   1.000  H
  C32      1.0000 0.88089  0.32776  0.33837  Biso   1.000  C
  C33      1.0000 0.99979  0.36135  0.37677  Biso   1.000  C
  H12      1.0000 0.00110  0.41000  0.41870  Biso   1.000  H
  C34      1.0000 0.24494  0.35576  0.39927  Biso   1.000  C
  C35      1.0000 0.99863  0.14381  0.18508  Biso   1.000  C
  C36      1.0000 0.75572  0.36599  0.36689  Biso   1.000  C
  O22      1.0000 0.34786  0.32789  0.36948  Biso   1.000  O
  O23      1.0000 0.23941  0.40741  0.46397  Biso   1.000  O
  O24      1.0000 0.10716  0.11548  0.16720  Biso   1.000  O
  O25      1.0000 0.88807  0.11495  0.15000  Biso   1.000  O
  O26      1.0000 0.76184  0.44633  0.40390  Biso   1.000  O
  O27      1.0000 0.65456  0.31461  0.35247  Biso   1.000  O
  O28      1.0000 0.54976  0.41293  0.50551  Biso   1.000  O
  I4       1.0000 0.51793  0.14624  0.51078  Biso   1.000  I
