data_VIXCUB_clean
_audit_creation_date              2014-07-02
_audit_creation_method            'Materials Studio'
_symmetry_space_group_name_H-M    'P1'
_symmetry_Int_Tables_number       1
_symmetry_cell_setting            triclinic
loop_
_symmetry_equiv_pos_as_xyz
  x,y,z
_cell_length_a                    11.6525
_cell_length_b                    18.3554
_cell_length_c                    18.3554
_cell_angle_alpha                 84.2176
_cell_angle_beta                  71.4934
_cell_angle_gamma                 71.4935
loop_
_atom_site_label
_atom_site_type_symbol
_atom_site_fract_x
_atom_site_fract_y
_atom_site_fract_z
_atom_site_U_iso_or_equiv
_atom_site_adp_type
_atom_site_occupancy
Cu1    Cu    0.41496   0.59523   0.25743   0.01267  Uiso   1.00
Cu2    Cu    0.76762   0.90477   0.24257   0.01267  Uiso   1.00
Cu3    Cu    0.67239   0.74257   0.09523   0.01267  Uiso   1.00
Cu4    Cu    0.01019   0.75743   0.40477   0.01267  Uiso   1.00
Cu5    Cu    0.58504   0.40477   0.74257   0.01267  Uiso   1.00
Cu6    Cu    0.23238   0.09523   0.75743   0.01267  Uiso   1.00
Cu7    Cu    0.32761   0.25743   0.90477   0.01267  Uiso   1.00
Cu8    Cu    0.98981   0.24257   0.59523   0.01267  Uiso   1.00
Cu9    Cu    0.50000   0.50000   0.50000   0.01267  Uiso   1.00
Cu10   Cu    0.00000   0.00000   0.00000   0.01267  Uiso   1.00
Cu11   Cu    0.00000   0.50000   0.00000   0.01267  Uiso   1.00
Cu12   Cu    0.00000   0.00000   0.50000   0.01267  Uiso   1.00
H1     H     0.97260   0.75600   0.56980   0.01267  Uiso   1.00
H2     H     0.96620   0.72730   0.69610   0.01267  Uiso   1.00
H3     H     0.12980   0.63100   0.72780   0.01267  Uiso   1.00
H4     H     0.31100   0.56750   0.63050   0.01267  Uiso   1.00
H5     H     0.79840   0.74400   0.93020   0.01267  Uiso   1.00
H6     H     0.88960   0.77270   0.80390   0.01267  Uiso   1.00
H7     H     0.98860   0.86900   0.77220   0.01267  Uiso   1.00
H8     H     0.00900   0.93250   0.86950   0.01267  Uiso   1.00
H9     H     0.54240   0.43020   0.25600   0.01267  Uiso   1.00
H10    H     0.66230   0.30390   0.22730   0.01267  Uiso   1.00
H11    H     0.85760   0.27220   0.13100   0.01267  Uiso   1.00
H12    H     0.94150   0.36950   0.06750   0.01267  Uiso   1.00
H13    H     0.72860   0.06980   0.24400   0.01267  Uiso   1.00
H14    H     0.69350   0.19610   0.27270   0.01267  Uiso   1.00
H15    H     0.76080   0.22780   0.36900   0.01267  Uiso   1.00
H16    H     0.87850   0.13050   0.43250   0.01267  Uiso   1.00
H17    H     0.02740   0.24400   0.43020   0.01267  Uiso   1.00
H18    H     0.03380   0.27270   0.30390   0.01267  Uiso   1.00
H19    H     0.87020   0.36900   0.27220   0.01267  Uiso   1.00
H20    H     0.68900   0.43250   0.36950   0.01267  Uiso   1.00
H21    H     0.20160   0.25600   0.06980   0.01267  Uiso   1.00
H22    H     0.11040   0.22730   0.19610   0.01267  Uiso   1.00
H23    H     0.01140   0.13100   0.22780   0.01267  Uiso   1.00
H24    H     0.99100   0.06750   0.13050   0.01267  Uiso   1.00
H25    H     0.45760   0.56980   0.74400   0.01267  Uiso   1.00
H26    H     0.33770   0.69610   0.77270   0.01267  Uiso   1.00
H27    H     0.14240   0.72780   0.86900   0.01267  Uiso   1.00
H28    H     0.05850   0.63050   0.93250   0.01267  Uiso   1.00
H29    H     0.27140   0.93020   0.75600   0.01267  Uiso   1.00
H30    H     0.30650   0.80390   0.72730   0.01267  Uiso   1.00
H31    H     0.23920   0.77220   0.63100   0.01267  Uiso   1.00
H32    H     0.12150   0.86950   0.56750   0.01267  Uiso   1.00
C1     C     0.36044   0.60145   0.41087   0.01267  Uiso   1.00
C2     C     0.25047   0.65764   0.39182   0.01267  Uiso   1.00
C3     C     0.14563   0.67712   0.52222   0.01267  Uiso   1.00
C4     C     0.04081   0.71714   0.58144   0.01267  Uiso   1.00
C5     C     0.03748   0.69992   0.65612   0.01267  Uiso   1.00
C6     C     0.13589   0.64316   0.67546   0.01267  Uiso   1.00
C7     C     0.24227   0.60489   0.61797   0.01267  Uiso   1.00
C8     C     0.24803   0.62170   0.54064   0.01267  Uiso   1.00
C9     C     0.87276   0.89855   0.08913   0.01267  Uiso   1.00
C10    C     0.79993   0.84236   0.10818   0.01267  Uiso   1.00
C11    C     0.84497   0.82288   0.97778   0.01267  Uiso   1.00
C12    C     0.83939   0.78286   0.91856   0.01267  Uiso   1.00
C13    C     0.89352   0.80008   0.84388   0.01267  Uiso   1.00
C14    C     0.95451   0.85684   0.82454   0.01267  Uiso   1.00
C15    C     0.96513   0.89511   0.88203   0.01267  Uiso   1.00
C16    C     0.91037   0.87830   0.95936   0.01267  Uiso   1.00
C17    C     0.77131   0.58913   0.10145   0.01267  Uiso   1.00
C18    C     0.64229   0.60818   0.15764   0.01267  Uiso   1.00
C19    C     0.66785   0.47778   0.17712   0.01267  Uiso   1.00
C20    C     0.62225   0.41856   0.21714   0.01267  Uiso   1.00
C21    C     0.69360   0.34388   0.19992   0.01267  Uiso   1.00
C22    C     0.81135   0.32454   0.14316   0.01267  Uiso   1.00
C23    C     0.86024   0.38203   0.10489   0.01267  Uiso   1.00
C24    C     0.78867   0.45936   0.12170   0.01267  Uiso   1.00
C25    C     0.96189   0.91087   0.39855   0.01267  Uiso   1.00
C26    C     0.90811   0.89182   0.34236   0.01267  Uiso   1.00
C27    C     0.82275   0.02222   0.32288   0.01267  Uiso   1.00
C28    C     0.75795   0.08144   0.28286   0.01267  Uiso   1.00
C29    C     0.73740   0.15612   0.30008   0.01267  Uiso   1.00
C30    C     0.77905   0.17546   0.35684   0.01267  Uiso   1.00
C31    C     0.84716   0.11797   0.39511   0.01267  Uiso   1.00
C32    C     0.86973   0.04064   0.37830   0.01267  Uiso   1.00
C33    C     0.63956   0.39855   0.58913   0.01267  Uiso   1.00
C34    C     0.74953   0.34236   0.60818   0.01267  Uiso   1.00
C35    C     0.85437   0.32288   0.47778   0.01267  Uiso   1.00
C36    C     0.95919   0.28286   0.41856   0.01267  Uiso   1.00
C37    C     0.96252   0.30008   0.34388   0.01267  Uiso   1.00
C38    C     0.86411   0.35684   0.32454   0.01267  Uiso   1.00
C39    C     0.75773   0.39511   0.38203   0.01267  Uiso   1.00
C40    C     0.75197   0.37830   0.45936   0.01267  Uiso   1.00
C41    C     0.12724   0.10145   0.91087   0.01267  Uiso   1.00
C42    C     0.20007   0.15764   0.89182   0.01267  Uiso   1.00
C43    C     0.15503   0.17712   0.02222   0.01267  Uiso   1.00
C44    C     0.16061   0.21714   0.08144   0.01267  Uiso   1.00
C45    C     0.10648   0.19992   0.15612   0.01267  Uiso   1.00
C46    C     0.04549   0.14316   0.17546   0.01267  Uiso   1.00
C47    C     0.03487   0.10489   0.11797   0.01267  Uiso   1.00
C48    C     0.08963   0.12170   0.04064   0.01267  Uiso   1.00
C49    C     0.22869   0.41087   0.89855   0.01267  Uiso   1.00
C50    C     0.35771   0.39182   0.84236   0.01267  Uiso   1.00
C51    C     0.33215   0.52222   0.82288   0.01267  Uiso   1.00
C52    C     0.37775   0.58144   0.78286   0.01267  Uiso   1.00
C53    C     0.30640   0.65612   0.80008   0.01267  Uiso   1.00
C54    C     0.18865   0.67546   0.85684   0.01267  Uiso   1.00
C55    C     0.13976   0.61797   0.89511   0.01267  Uiso   1.00
C56    C     0.21133   0.54064   0.87830   0.01267  Uiso   1.00
C57    C     0.03811   0.08913   0.60145   0.01267  Uiso   1.00
C58    C     0.09189   0.10818   0.65764   0.01267  Uiso   1.00
C59    C     0.17725   0.97778   0.67712   0.01267  Uiso   1.00
C60    C     0.24205   0.91856   0.71714   0.01267  Uiso   1.00
C61    C     0.26260   0.84388   0.69992   0.01267  Uiso   1.00
C62    C     0.22095   0.82454   0.64316   0.01267  Uiso   1.00
C63    C     0.15284   0.88203   0.60489   0.01267  Uiso   1.00
C64    C     0.13027   0.95936   0.62170   0.01267  Uiso   1.00
N1     N     0.35549   0.58373   0.48283   0.01267  Uiso   1.00
N2     N     0.14730   0.69241   0.44657   0.01267  Uiso   1.00
N3     N     0.92205   0.91627   0.01717   0.01267  Uiso   1.00
N4     N     0.78628   0.80759   0.05343   0.01267  Uiso   1.00
N5     N     0.83832   0.51717   0.08373   0.01267  Uiso   1.00
N6     N     0.59387   0.55343   0.19241   0.01267  Uiso   1.00
N7     N     0.93922   0.98283   0.41627   0.01267  Uiso   1.00
N8     N     0.83971   0.94657   0.30759   0.01267  Uiso   1.00
N9     N     0.64451   0.41627   0.51717   0.01267  Uiso   1.00
N10    N     0.85270   0.30759   0.55343   0.01267  Uiso   1.00
N11    N     0.07795   0.08373   0.98283   0.01267  Uiso   1.00
N12    N     0.21372   0.19241   0.94657   0.01267  Uiso   1.00
N13    N     0.16168   0.48283   0.91627   0.01267  Uiso   1.00
N14    N     0.40613   0.44657   0.80759   0.01267  Uiso   1.00
N15    N     0.06078   0.01717   0.58373   0.01267  Uiso   1.00
N16    N     0.16029   0.05343   0.69241   0.01267  Uiso   1.00
Cl1    Cl    0.59644   0.58800   0.50752   0.01267  Uiso   1.00
Cl2    Cl    0.19196   0.91200   0.99248   0.01267  Uiso   1.00
Cl3    Cl    0.10396   0.49248   0.08800   0.01267  Uiso   1.00
Cl4    Cl    0.18444   0.00752   0.41200   0.01267  Uiso   1.00
Cl5    Cl    0.40356   0.41200   0.49248   0.01267  Uiso   1.00
Cl6    Cl    0.80804   0.08800   0.00752   0.01267  Uiso   1.00
Cl7    Cl    0.89604   0.50752   0.91200   0.01267  Uiso   1.00
Cl8    Cl    0.81556   0.99248   0.58800   0.01267  Uiso   1.00
O1     O     0.45737   0.57013   0.35423   0.01267  Uiso   1.00
O2     O     0.25987   0.66930   0.32064   0.01267  Uiso   1.00
O3     O     0.88173   0.92987   0.14577   0.01267  Uiso   1.00
O4     O     0.74981   0.83070   0.17936   0.01267  Uiso   1.00
O5     O     0.81160   0.64577   0.07013   0.01267  Uiso   1.00
O6     O     0.58051   0.67936   0.16930   0.01267  Uiso   1.00
O7     O     0.02750   0.85423   0.42987   0.01267  Uiso   1.00
O8     O     0.92917   0.82064   0.33070   0.01267  Uiso   1.00
O9     O     0.54263   0.42987   0.64577   0.01267  Uiso   1.00
O10    O     0.74013   0.33070   0.67936   0.01267  Uiso   1.00
O11    O     0.11827   0.07013   0.85423   0.01267  Uiso   1.00
O12    O     0.25019   0.16930   0.82064   0.01267  Uiso   1.00
O13    O     0.18840   0.35423   0.92987   0.01267  Uiso   1.00
O14    O     0.41949   0.32064   0.83070   0.01267  Uiso   1.00
O15    O     0.97250   0.14577   0.57013   0.01267  Uiso   1.00
O16    O     0.07083   0.17936   0.66930   0.01267  Uiso   1.00
