data_VIXGAM01_clean
_audit_creation_date              2015-10-16
_audit_creation_method            'Materials Studio'
_symmetry_space_group_name_H-M    'P1'
_symmetry_Int_Tables_number       1
_symmetry_cell_setting            triclinic
loop_
_symmetry_equiv_pos_as_xyz
  x,y,z
_cell_length_a                    7.5231
_cell_length_b                    9.8003
_cell_length_c                    9.8003
_cell_angle_alpha                 81.5285
_cell_angle_beta                  67.4296
_cell_angle_gamma                 67.4296
loop_
_atom_site_label
_atom_site_type_symbol
_atom_site_fract_x
_atom_site_fract_y
_atom_site_fract_z
_atom_site_U_iso_or_equiv
_atom_site_adp_type
_atom_site_occupancy
Zr1    Zr    0.19569   0.10489   0.50373   0.01267  Uiso   1.00
Zr2    Zr    0.69942   0.49627   0.10489   0.01267  Uiso   1.00
Zr3    Zr    0.80431   0.89511   0.49627   0.01267  Uiso   1.00
Zr4    Zr    0.30058   0.50373   0.89511   0.01267  Uiso   1.00
C1     C     0.65810   0.20540   0.68560   0.01267  Uiso   1.00
C2     C     0.54910   0.79460   0.31440   0.01267  Uiso   1.00
C3     C     0.86350   0.68560   0.79460   0.01267  Uiso   1.00
C4     C     0.34370   0.31440   0.20540   0.01267  Uiso   1.00
C5     C     0.65630   0.68560   0.79460   0.01267  Uiso   1.00
C6     C     0.34190   0.79460   0.31440   0.01267  Uiso   1.00
C7     C     0.45090   0.20540   0.68560   0.01267  Uiso   1.00
C8     C     0.13650   0.31440   0.20540   0.01267  Uiso   1.00
O1     O     0.29080   0.30010   0.76430   0.01267  Uiso   1.00
O2     O     0.93140   0.60670   0.88750   0.01267  Uiso   1.00
O3     O     0.59090   0.76430   0.69990   0.01267  Uiso   1.00
O4     O     0.53810   0.88750   0.39330   0.01267  Uiso   1.00
O5     O     0.42560   0.39330   0.11250   0.01267  Uiso   1.00
O6     O     0.46190   0.11250   0.60670   0.01267  Uiso   1.00
O7     O     0.06860   0.39330   0.11250   0.01267  Uiso   1.00
O8     O     0.94490   0.76430   0.69990   0.01267  Uiso   1.00
O9     O     0.05510   0.23570   0.30010   0.01267  Uiso   1.00
O10    O     0.40910   0.23570   0.30010   0.01267  Uiso   1.00
O11    O     0.70920   0.69990   0.23570   0.01267  Uiso   1.00
O12    O     0.81890   0.11250   0.60670   0.01267  Uiso   1.00
O13    O     0.18110   0.88750   0.39330   0.01267  Uiso   1.00
O14    O     0.35520   0.69990   0.23570   0.01267  Uiso   1.00
O15    O     0.57440   0.60670   0.88750   0.01267  Uiso   1.00
O16    O     0.64480   0.30010   0.76430   0.01267  Uiso   1.00
