data_image0
_cell_length_a       8.4358
_cell_length_b       10.074
_cell_length_c       15.079
_cell_angle_alpha    71.071
_cell_angle_beta     87.931
_cell_angle_gamma    67.631

_symmetry_space_group_name_H-M    "P 1"
_symmetry_int_tables_number       1

loop_
  _symmetry_equiv_pos_as_xyz
  'x, y, z'

loop_
  _atom_site_label
  _atom_site_occupancy
  _atom_site_fract_x
  _atom_site_fract_y
  _atom_site_fract_z
  _atom_site_thermal_displace_type
  _atom_site_B_iso_or_equiv
  _atom_site_type_symbol
  N1       1.0000 0.78080  0.91250  0.60630  Biso   1.000  N
  H1       1.0000 0.71710  0.00820  0.58430  Biso   1.000  H
  O1       1.0000 0.57530  0.32920  0.12420  Biso   1.000  O
  O2       1.0000 0.76850  0.13130  0.09050  Biso   1.000  O
  O3       1.0000 0.83220  0.39400  0.84580  Biso   1.000  O
  O4       1.0000 0.76520  0.44860  0.97440  Biso   1.000  O
  O5       1.0000 0.80270  0.09130  0.87990  Biso   1.000  O
  O6       1.0000 0.92340  0.87490  0.00150  Biso   1.000  O
  O7       1.0000 0.94990  0.70740  0.56750  Biso   1.000  O
  C1       1.0000 0.72350  0.10370  0.24950  Biso   1.000  C
  C2       1.0000 0.84920  0.95710  0.28020  Biso   1.000  C
  H2       1.0000 0.90840  0.91330  0.23690  Biso   1.000  H
  C3       1.0000 0.88590  0.87650  0.37580  Biso   1.000  C
  H3       1.0000 0.96990  0.77790  0.39600  Biso   1.000  H
  C4       1.0000 0.80200  0.93760  0.44170  Biso   1.000  C
  C5       1.0000 0.67540  0.08130  0.40960  Biso   1.000  C
  H4       1.0000 0.61410  0.12400  0.45280  Biso   1.000  H
  C6       1.0000 0.63690  0.16400  0.31470  Biso   1.000  C
  H5       1.0000 0.55120  0.26180  0.29480  Biso   1.000  H
  C7       1.0000 0.80420  0.84050  0.70650  Biso   1.000  C
  C8       1.0000 0.80690  0.69590  0.74820  Biso   1.000  C
  H6       1.0000 0.80170  0.63930  0.71120  Biso   1.000  H
  C9       1.0000 0.81740  0.63470  0.84620  Biso   1.000  C
  C10      1.0000 0.83530  0.71530  0.90210  Biso   1.000  C
  H7       1.0000 0.84740  0.67290  0.96750  Biso   1.000  H
  C11      1.0000 0.83460  0.86090  0.85840  Biso   1.000  C
  C12      1.0000 0.81570  0.92340  0.76140  Biso   1.000  C
  H8       1.0000 0.81070  0.02200  0.73280  Biso   1.000  H
  C13      1.0000 0.68550  0.19550  0.14590  Biso   1.000  C
  C14      1.0000 0.80390  0.48440  0.89060  Biso   1.000  C
  C15      1.0000 0.85720  0.94680  0.91830  Biso   1.000  C
  C16      1.0000 0.85100  0.84190  0.54340  Biso   1.000  C
  Zn1      1.0000 0.81853  0.21036  0.95824  Biso   1.000  Zn
  N2       1.0000 0.21920  0.08750  0.39370  Biso   1.000  N
  H9       1.0000 0.28290  0.99180  0.41570  Biso   1.000  H
  O8       1.0000 0.42470  0.67080  0.87580  Biso   1.000  O
  O9       1.0000 0.23150  0.86870  0.90950  Biso   1.000  O
  O10      1.0000 0.16780  0.60600  0.15420  Biso   1.000  O
  O11      1.0000 0.23480  0.55140  0.02560  Biso   1.000  O
  O12      1.0000 0.19730  0.90870  0.12010  Biso   1.000  O
  O13      1.0000 0.07660  0.12510  0.99850  Biso   1.000  O
  O14      1.0000 0.05010  0.29260  0.43250  Biso   1.000  O
  C17      1.0000 0.27650  0.89630  0.75050  Biso   1.000  C
  C18      1.0000 0.15080  0.04290  0.71980  Biso   1.000  C
  H10      1.0000 0.09160  0.08670  0.76310  Biso   1.000  H
  C19      1.0000 0.11410  0.12350  0.62420  Biso   1.000  C
  H11      1.0000 0.03010  0.22210  0.60400  Biso   1.000  H
  C20      1.0000 0.19800  0.06240  0.55830  Biso   1.000  C
  C21      1.0000 0.32460  0.91870  0.59040  Biso   1.000  C
  H12      1.0000 0.38590  0.87600  0.54720  Biso   1.000  H
  C22      1.0000 0.36310  0.83600  0.68530  Biso   1.000  C
  H13      1.0000 0.44880  0.73820  0.70520  Biso   1.000  H
  C23      1.0000 0.19580  0.15950  0.29350  Biso   1.000  C
  C24      1.0000 0.19310  0.30410  0.25180  Biso   1.000  C
  H14      1.0000 0.19830  0.36070  0.28880  Biso   1.000  H
  C25      1.0000 0.18260  0.36530  0.15380  Biso   1.000  C
  C26      1.0000 0.16470  0.28470  0.09790  Biso   1.000  C
  H15      1.0000 0.15260  0.32710  0.03250  Biso   1.000  H
  C27      1.0000 0.16540  0.13910  0.14160  Biso   1.000  C
  C28      1.0000 0.18430  0.07660  0.23860  Biso   1.000  C
  H16      1.0000 0.18930  0.97800  0.26720  Biso   1.000  H
  C29      1.0000 0.31450  0.80450  0.85410  Biso   1.000  C
  C30      1.0000 0.19610  0.51560  0.10940  Biso   1.000  C
  C31      1.0000 0.14280  0.05320  0.08170  Biso   1.000  C
  C32      1.0000 0.14900  0.15810  0.45660  Biso   1.000  C
  Zn2      1.0000 0.18147  0.78964  0.04176  Biso   1.000  Zn
  Zn3      1.0000 0.50000  0.50000  0.00000  Biso   1.000  Zn
