data_image0
_cell_length_a       9.8035
_cell_length_b       10.9423
_cell_length_c       19.4289
_cell_angle_alpha    85.596
_cell_angle_beta     75.686
_cell_angle_gamma    63.622

_symmetry_space_group_name_H-M    "P 1"
_symmetry_int_tables_number       1

loop_
  _symmetry_equiv_pos_as_xyz
  'x, y, z'

loop_
  _atom_site_label
  _atom_site_occupancy
  _atom_site_fract_x
  _atom_site_fract_y
  _atom_site_fract_z
  _atom_site_thermal_displace_type
  _atom_site_B_iso_or_equiv
  _atom_site_type_symbol
  Nd1      1.0000 0.71004  0.02729  0.50041  Biso   1.000  Nd
  Nd2      1.0000 0.24949  0.48030  0.99082  Biso   1.000  Nd
  S1       1.0000 0.29900  0.52630  0.46973  Biso   1.000  S
  S2       1.0000 0.33770  0.22280  0.76153  Biso   1.000  S
  S3       1.0000 0.70440  0.98360  0.96794  Biso   1.000  S
  O1       1.0000 0.53300  0.11320  0.61920  Biso   1.000  O
  O2       1.0000 0.49230  0.27920  0.98850  Biso   1.000  O
  O3       1.0000 0.23420  0.34120  0.90390  Biso   1.000  O
  O4       1.0000 0.31450  0.16950  0.44830  Biso   1.000  O
  O5       1.0000 0.98080  0.88400  0.43640  Biso   1.000  O
  O6       1.0000 0.19880  0.81510  0.47590  Biso   1.000  O
  O7       1.0000 0.08880  0.64200  0.91930  Biso   1.000  O
  O8       1.0000 0.48210  0.23060  0.48000  Biso   1.000  O
  O9       1.0000 0.98650  0.37100  0.92690  Biso   1.000  O
  O10      1.0000 0.83680  0.68160  0.94220  Biso   1.000  O
  C1       1.0000 0.10190  0.79330  0.45330  Biso   1.000  C
  C2       1.0000 0.94430  0.71940  0.93250  Biso   1.000  C
  C3       1.0000 0.05790  0.59280  0.41880  Biso   1.000  C
  H1       1.0000 0.96780  0.64390  0.40250  Biso   1.000  H
  C4       1.0000 0.15550  0.26880  0.81720  Biso   1.000  C
  C5       1.0000 0.89710  0.86850  0.93650  Biso   1.000  C
  C6       1.0000 0.40210  0.11200  0.62600  Biso   1.000  C
  C7       1.0000 0.63100  0.25810  0.98410  Biso   1.000  C
  C8       1.0000 0.12900  0.44880  0.41960  Biso   1.000  C
  H2       1.0000 0.09150  0.39410  0.40400  Biso   1.000  H
  C9       1.0000 0.26030  0.39930  0.44630  Biso   1.000  C
  C10      1.0000 0.13630  0.64910  0.44460  Biso   1.000  C
  C11      1.0000 0.36080  0.25460  0.45940  Biso   1.000  C
  C12      1.0000 0.28690  0.16720  0.69630  Biso   1.000  C
  C13      1.0000 0.13530  0.18300  0.71710  Biso   1.000  C
  H3       1.0000 0.08800  0.15710  0.68880  Biso   1.000  H
  C14      1.0000 0.75450  0.11730  0.96170  Biso   1.000  C
  C15      1.0000 0.05890  0.24280  0.78630  Biso   1.000  C
  H4       1.0000 0.95550  0.26220  0.80830  Biso   1.000  H
  C16      1.0000 0.12180  0.33240  0.88820  Biso   1.000  C
  O11      1.0000 0.67220  0.34580  0.99670  Biso   1.000  O
  C17      1.0000 0.99370  0.93200  0.92090  Biso   1.000  C
  H5       1.0000 0.10150  0.88610  0.90260  Biso   1.000  H
  C18      1.0000 0.91260  0.07440  0.93540  Biso   1.000  C
  H6       1.0000 0.96070  0.13240  0.92800  Biso   1.000  H
  O12      1.0000 0.36250  0.06620  0.58240  Biso   1.000  O
  Nd3      1.0000 0.28996  0.97271  0.49959  Biso   1.000  Nd
  Nd4      1.0000 0.75051  0.51970  0.00918  Biso   1.000  Nd
  S4       1.0000 0.70100  0.47370  0.53027  Biso   1.000  S
  S5       1.0000 0.66230  0.77720  0.23847  Biso   1.000  S
  S6       1.0000 0.29560  0.01640  0.03206  Biso   1.000  S
  O13      1.0000 0.46700  0.88680  0.38080  Biso   1.000  O
  O14      1.0000 0.50770  0.72080  0.01150  Biso   1.000  O
  O15      1.0000 0.76580  0.65880  0.09610  Biso   1.000  O
  O16      1.0000 0.68550  0.83050  0.55170  Biso   1.000  O
  O17      1.0000 0.01920  0.11600  0.56360  Biso   1.000  O
  O18      1.0000 0.80120  0.18490  0.52410  Biso   1.000  O
  O19      1.0000 0.91120  0.35800  0.08070  Biso   1.000  O
  O20      1.0000 0.51790  0.76940  0.52000  Biso   1.000  O
  O21      1.0000 0.01350  0.62900  0.07310  Biso   1.000  O
  O22      1.0000 0.16320  0.31840  0.05780  Biso   1.000  O
  C19      1.0000 0.89810  0.20670  0.54670  Biso   1.000  C
  C20      1.0000 0.05570  0.28060  0.06750  Biso   1.000  C
  C21      1.0000 0.94210  0.40720  0.58120  Biso   1.000  C
  H7       1.0000 0.03220  0.35610  0.59750  Biso   1.000  H
  C22      1.0000 0.84450  0.73120  0.18280  Biso   1.000  C
  C23      1.0000 0.10290  0.13150  0.06350  Biso   1.000  C
  C24      1.0000 0.59790  0.88800  0.37400  Biso   1.000  C
  C25      1.0000 0.36900  0.74190  0.01590  Biso   1.000  C
  C26      1.0000 0.87100  0.55120  0.58040  Biso   1.000  C
  H8       1.0000 0.90850  0.60590  0.59600  Biso   1.000  H
  C27      1.0000 0.73970  0.60070  0.55370  Biso   1.000  C
  C28      1.0000 0.86370  0.35090  0.55540  Biso   1.000  C
  C29      1.0000 0.63920  0.74540  0.54060  Biso   1.000  C
  C30      1.0000 0.71310  0.83280  0.30370  Biso   1.000  C
  C31      1.0000 0.86470  0.81700  0.28290  Biso   1.000  C
  H9       1.0000 0.91200  0.84290  0.31120  Biso   1.000  H
  C32      1.0000 0.24550  0.88270  0.03830  Biso   1.000  C
  C33      1.0000 0.94110  0.75720  0.21370  Biso   1.000  C
  H10      1.0000 0.04450  0.73780  0.19170  Biso   1.000  H
  C34      1.0000 0.87820  0.66760  0.11180  Biso   1.000  C
  O23      1.0000 0.32780  0.65420  0.00330  Biso   1.000  O
  C35      1.0000 0.00630  0.06800  0.07910  Biso   1.000  C
  H11      1.0000 0.89850  0.11390  0.09740  Biso   1.000  H
  C36      1.0000 0.08740  0.92560  0.06460  Biso   1.000  C
  H12      1.0000 0.03930  0.86760  0.07200  Biso   1.000  H
  O24      1.0000 0.63750  0.93380  0.41760  Biso   1.000  O
