data_image0
_cell_length_a       20.458
_cell_length_b       12.1157
_cell_length_c       16.971
_cell_angle_alpha    90
_cell_angle_beta     90
_cell_angle_gamma    90

_symmetry_space_group_name_H-M    "P 1"
_symmetry_int_tables_number       1

loop_
  _symmetry_equiv_pos_as_xyz
  'x, y, z'

loop_
  _atom_site_label
  _atom_site_occupancy
  _atom_site_fract_x
  _atom_site_fract_y
  _atom_site_fract_z
  _atom_site_thermal_displace_type
  _atom_site_B_iso_or_equiv
  _atom_site_type_symbol
  Zn1      1.0000 0.91250  0.54354  0.44291  Biso   1.000  Zn
  O1       1.0000 0.97623  0.44080  0.40290  Biso   1.000  O
  O2       1.0000 0.05703  0.54960  0.32304  Biso   1.000  O
  O3       1.0000 0.09417  0.46230  0.44514  Biso   1.000  O
  O4       1.0000 0.05910  0.72800  0.20810  Biso   1.000  O
  O5       1.0000 0.07665  0.70480  0.08030  Biso   1.000  O
  O6       1.0000 0.32694  0.03560  0.10620  Biso   1.000  O
  O7       1.0000 0.30719  0.87830  0.04280  Biso   1.000  O
  P1       1.0000 0.04626  0.45137  0.37768  Biso   1.000  P
  C1       1.0000 0.06870  0.32980  0.32280  Biso   1.000  C
  C2       1.0000 0.10560  0.33940  0.25460  Biso   1.000  C
  H1       1.0000 0.11600  0.40930  0.23560  Biso   1.000  H
  C3       1.0000 0.12710  0.24740  0.21440  Biso   1.000  C
  H2       1.0000 0.15120  0.25630  0.16840  Biso   1.000  H
  C4       1.0000 0.11370  0.14250  0.24120  Biso   1.000  C
  C5       1.0000 0.13840  0.04440  0.19770  Biso   1.000  C
  C6       1.0000 0.19990  0.04410  0.16310  Biso   1.000  C
  H3       1.0000 0.22650  0.10590  0.16860  Biso   1.000  H
  C7       1.0000 0.22300  0.95450  0.12060  Biso   1.000  C
  C8       1.0000 0.18300  0.86360  0.11020  Biso   1.000  C
  H4       1.0000 0.19690  0.80490  0.07900  Biso   1.000  H
  C9       1.0000 0.12220  0.86020  0.14620  Biso   1.000  C
  C10      1.0000 0.10060  0.94950  0.19000  Biso   1.000  C
  H5       1.0000 0.06010  0.94600  0.21470  Biso   1.000  H
  C11      1.0000 0.07700  0.13290  0.30960  Biso   1.000  C
  H6       1.0000 0.06720  0.06310  0.32900  Biso   1.000  H
  C12      1.0000 0.05490  0.22480  0.34960  Biso   1.000  C
  H7       1.0000 0.03040  0.21580  0.39520  Biso   1.000  H
  C13      1.0000 0.29050  0.95520  0.08590  Biso   1.000  C
  C14      1.0000 0.08250  0.75640  0.14370  Biso   1.000  C
  Zn2      1.0000 0.58750  0.95646  0.94291  Biso   1.000  Zn
  O8       1.0000 0.52377  0.05920  0.90290  Biso   1.000  O
  O9       1.0000 0.44297  0.95040  0.82304  Biso   1.000  O
  O10      1.0000 0.40583  0.03770  0.94514  Biso   1.000  O
  O11      1.0000 0.44090  0.77200  0.70810  Biso   1.000  O
  O12      1.0000 0.42335  0.79520  0.58030  Biso   1.000  O
  O13      1.0000 0.17306  0.46440  0.60620  Biso   1.000  O
  O14      1.0000 0.19281  0.62170  0.54280  Biso   1.000  O
  P2       1.0000 0.45374  0.04863  0.87768  Biso   1.000  P
  C15      1.0000 0.43130  0.17020  0.82280  Biso   1.000  C
  C16      1.0000 0.39440  0.16060  0.75460  Biso   1.000  C
  H8       1.0000 0.38400  0.09070  0.73560  Biso   1.000  H
  C17      1.0000 0.37290  0.25260  0.71440  Biso   1.000  C
  H9       1.0000 0.34880  0.24370  0.66840  Biso   1.000  H
  C18      1.0000 0.38630  0.35750  0.74120  Biso   1.000  C
  C19      1.0000 0.36160  0.45560  0.69770  Biso   1.000  C
  C20      1.0000 0.30010  0.45590  0.66310  Biso   1.000  C
  H10      1.0000 0.27350  0.39410  0.66860  Biso   1.000  H
  C21      1.0000 0.27700  0.54550  0.62060  Biso   1.000  C
  C22      1.0000 0.31700  0.63640  0.61020  Biso   1.000  C
  H11      1.0000 0.30310  0.69510  0.57900  Biso   1.000  H
  C23      1.0000 0.37780  0.63980  0.64620  Biso   1.000  C
  C24      1.0000 0.39940  0.55050  0.69000  Biso   1.000  C
  H12      1.0000 0.43990  0.55400  0.71470  Biso   1.000  H
  C25      1.0000 0.42300  0.36710  0.80960  Biso   1.000  C
  H13      1.0000 0.43280  0.43690  0.82900  Biso   1.000  H
  C26      1.0000 0.44510  0.27520  0.84960  Biso   1.000  C
  H14      1.0000 0.46960  0.28420  0.89520  Biso   1.000  H
  C27      1.0000 0.20950  0.54480  0.58590  Biso   1.000  C
  C28      1.0000 0.41750  0.74360  0.64370  Biso   1.000  C
  Zn3      1.0000 0.08750  0.54354  0.05709  Biso   1.000  Zn
  O15      1.0000 0.02377  0.44080  0.09710  Biso   1.000  O
  O16      1.0000 0.94297  0.54960  0.17696  Biso   1.000  O
  O17      1.0000 0.90583  0.46230  0.05486  Biso   1.000  O
  O18      1.0000 0.94090  0.72800  0.29190  Biso   1.000  O
  O19      1.0000 0.92335  0.70480  0.41970  Biso   1.000  O
  O20      1.0000 0.67306  0.03560  0.39380  Biso   1.000  O
  O21      1.0000 0.69281  0.87830  0.45720  Biso   1.000  O
  P3       1.0000 0.95374  0.45137  0.12232  Biso   1.000  P
  C29      1.0000 0.93130  0.32980  0.17720  Biso   1.000  C
  C30      1.0000 0.89440  0.33940  0.24540  Biso   1.000  C
  H15      1.0000 0.88400  0.40930  0.26440  Biso   1.000  H
  C31      1.0000 0.87290  0.24740  0.28560  Biso   1.000  C
  H16      1.0000 0.84880  0.25630  0.33160  Biso   1.000  H
  C32      1.0000 0.88630  0.14250  0.25880  Biso   1.000  C
  C33      1.0000 0.86160  0.04440  0.30230  Biso   1.000  C
  C34      1.0000 0.80010  0.04410  0.33690  Biso   1.000  C
  H17      1.0000 0.77350  0.10590  0.33140  Biso   1.000  H
  C35      1.0000 0.77700  0.95450  0.37940  Biso   1.000  C
  C36      1.0000 0.81700  0.86360  0.38980  Biso   1.000  C
  H18      1.0000 0.80310  0.80490  0.42100  Biso   1.000  H
  C37      1.0000 0.87780  0.86020  0.35380  Biso   1.000  C
  C38      1.0000 0.89940  0.94950  0.31000  Biso   1.000  C
  H19      1.0000 0.93990  0.94600  0.28530  Biso   1.000  H
  C39      1.0000 0.92300  0.13290  0.19040  Biso   1.000  C
  H20      1.0000 0.93280  0.06310  0.17100  Biso   1.000  H
  C40      1.0000 0.94510  0.22480  0.15040  Biso   1.000  C
  H21      1.0000 0.96960  0.21580  0.10480  Biso   1.000  H
  C41      1.0000 0.70950  0.95520  0.41410  Biso   1.000  C
  C42      1.0000 0.91750  0.75640  0.35630  Biso   1.000  C
  Zn4      1.0000 0.41250  0.95646  0.55709  Biso   1.000  Zn
  O22      1.0000 0.47623  0.05920  0.59710  Biso   1.000  O
  O23      1.0000 0.55703  0.95040  0.67696  Biso   1.000  O
  O24      1.0000 0.59417  0.03770  0.55486  Biso   1.000  O
  O25      1.0000 0.55910  0.77200  0.79190  Biso   1.000  O
  O26      1.0000 0.57665  0.79520  0.91970  Biso   1.000  O
  O27      1.0000 0.82694  0.46440  0.89380  Biso   1.000  O
  O28      1.0000 0.80719  0.62170  0.95720  Biso   1.000  O
  P4       1.0000 0.54626  0.04863  0.62232  Biso   1.000  P
  C43      1.0000 0.56870  0.17020  0.67720  Biso   1.000  C
  C44      1.0000 0.60560  0.16060  0.74540  Biso   1.000  C
  H22      1.0000 0.61600  0.09070  0.76440  Biso   1.000  H
  C45      1.0000 0.62710  0.25260  0.78560  Biso   1.000  C
  H23      1.0000 0.65120  0.24370  0.83160  Biso   1.000  H
  C46      1.0000 0.61370  0.35750  0.75880  Biso   1.000  C
  C47      1.0000 0.63840  0.45560  0.80230  Biso   1.000  C
  C48      1.0000 0.69990  0.45590  0.83690  Biso   1.000  C
  H24      1.0000 0.72650  0.39410  0.83140  Biso   1.000  H
  C49      1.0000 0.72300  0.54550  0.87940  Biso   1.000  C
  C50      1.0000 0.68300  0.63640  0.88980  Biso   1.000  C
  H25      1.0000 0.69690  0.69510  0.92100  Biso   1.000  H
  C51      1.0000 0.62220  0.63980  0.85380  Biso   1.000  C
  C52      1.0000 0.60060  0.55050  0.81000  Biso   1.000  C
  H26      1.0000 0.56010  0.55400  0.78530  Biso   1.000  H
  C53      1.0000 0.57700  0.36710  0.69040  Biso   1.000  C
  H27      1.0000 0.56720  0.43690  0.67100  Biso   1.000  H
  C54      1.0000 0.55490  0.27520  0.65040  Biso   1.000  C
  H28      1.0000 0.53040  0.28420  0.60480  Biso   1.000  H
  C55      1.0000 0.79050  0.54480  0.91410  Biso   1.000  C
  C56      1.0000 0.58250  0.74360  0.85630  Biso   1.000  C
  Zn5      1.0000 0.08750  0.45646  0.55709  Biso   1.000  Zn
  O29      1.0000 0.02377  0.55920  0.59710  Biso   1.000  O
  O30      1.0000 0.94297  0.45040  0.67696  Biso   1.000  O
  O31      1.0000 0.90583  0.53770  0.55486  Biso   1.000  O
  O32      1.0000 0.94090  0.27200  0.79190  Biso   1.000  O
  O33      1.0000 0.92335  0.29520  0.91970  Biso   1.000  O
  O34      1.0000 0.67306  0.96440  0.89380  Biso   1.000  O
  O35      1.0000 0.69281  0.12170  0.95720  Biso   1.000  O
  P5       1.0000 0.95374  0.54863  0.62232  Biso   1.000  P
  C57      1.0000 0.93130  0.67020  0.67720  Biso   1.000  C
  C58      1.0000 0.89440  0.66060  0.74540  Biso   1.000  C
  H29      1.0000 0.88400  0.59070  0.76440  Biso   1.000  H
  C59      1.0000 0.87290  0.75260  0.78560  Biso   1.000  C
  H30      1.0000 0.84880  0.74370  0.83160  Biso   1.000  H
  C60      1.0000 0.88630  0.85750  0.75880  Biso   1.000  C
  C61      1.0000 0.86160  0.95560  0.80230  Biso   1.000  C
  C62      1.0000 0.80010  0.95590  0.83690  Biso   1.000  C
  H31      1.0000 0.77350  0.89410  0.83140  Biso   1.000  H
  C63      1.0000 0.77700  0.04550  0.87940  Biso   1.000  C
  C64      1.0000 0.81700  0.13640  0.88980  Biso   1.000  C
  H32      1.0000 0.80310  0.19510  0.92100  Biso   1.000  H
  C65      1.0000 0.87780  0.13980  0.85380  Biso   1.000  C
  C66      1.0000 0.89940  0.05050  0.81000  Biso   1.000  C
  H33      1.0000 0.93990  0.05400  0.78530  Biso   1.000  H
  C67      1.0000 0.92300  0.86710  0.69040  Biso   1.000  C
  H34      1.0000 0.93280  0.93690  0.67100  Biso   1.000  H
  C68      1.0000 0.94510  0.77520  0.65040  Biso   1.000  C
  H35      1.0000 0.96960  0.78420  0.60480  Biso   1.000  H
  C69      1.0000 0.70950  0.04480  0.91410  Biso   1.000  C
  C70      1.0000 0.91750  0.24360  0.85630  Biso   1.000  C
  Zn6      1.0000 0.41250  0.04354  0.05709  Biso   1.000  Zn
  O36      1.0000 0.47623  0.94080  0.09710  Biso   1.000  O
  O37      1.0000 0.55703  0.04960  0.17696  Biso   1.000  O
  O38      1.0000 0.59417  0.96230  0.05486  Biso   1.000  O
  O39      1.0000 0.55910  0.22800  0.29190  Biso   1.000  O
  O40      1.0000 0.57665  0.20480  0.41970  Biso   1.000  O
  O41      1.0000 0.82694  0.53560  0.39380  Biso   1.000  O
  O42      1.0000 0.80719  0.37830  0.45720  Biso   1.000  O
  P6       1.0000 0.54626  0.95137  0.12232  Biso   1.000  P
  C71      1.0000 0.56870  0.82980  0.17720  Biso   1.000  C
  C72      1.0000 0.60560  0.83940  0.24540  Biso   1.000  C
  H36      1.0000 0.61600  0.90930  0.26440  Biso   1.000  H
  C73      1.0000 0.62710  0.74740  0.28560  Biso   1.000  C
  H37      1.0000 0.65120  0.75630  0.33160  Biso   1.000  H
  C74      1.0000 0.61370  0.64250  0.25880  Biso   1.000  C
  C75      1.0000 0.63840  0.54440  0.30230  Biso   1.000  C
  C76      1.0000 0.69990  0.54410  0.33690  Biso   1.000  C
  H38      1.0000 0.72650  0.60590  0.33140  Biso   1.000  H
  C77      1.0000 0.72300  0.45450  0.37940  Biso   1.000  C
  C78      1.0000 0.68300  0.36360  0.38980  Biso   1.000  C
  H39      1.0000 0.69690  0.30490  0.42100  Biso   1.000  H
  C79      1.0000 0.62220  0.36020  0.35380  Biso   1.000  C
  C80      1.0000 0.60060  0.44950  0.31000  Biso   1.000  C
  H40      1.0000 0.56010  0.44600  0.28530  Biso   1.000  H
  C81      1.0000 0.57700  0.63290  0.19040  Biso   1.000  C
  H41      1.0000 0.56720  0.56310  0.17100  Biso   1.000  H
  C82      1.0000 0.55490  0.72480  0.15040  Biso   1.000  C
  H42      1.0000 0.53040  0.71580  0.10480  Biso   1.000  H
  C83      1.0000 0.79050  0.45520  0.41410  Biso   1.000  C
  C84      1.0000 0.58250  0.25640  0.35630  Biso   1.000  C
  Zn7      1.0000 0.91250  0.45646  0.94291  Biso   1.000  Zn
  O43      1.0000 0.97623  0.55920  0.90290  Biso   1.000  O
  O44      1.0000 0.05703  0.45040  0.82304  Biso   1.000  O
  O45      1.0000 0.09417  0.53770  0.94514  Biso   1.000  O
  O46      1.0000 0.05910  0.27200  0.70810  Biso   1.000  O
  O47      1.0000 0.07665  0.29520  0.58030  Biso   1.000  O
  O48      1.0000 0.32694  0.96440  0.60620  Biso   1.000  O
  O49      1.0000 0.30719  0.12170  0.54280  Biso   1.000  O
  P7       1.0000 0.04626  0.54863  0.87768  Biso   1.000  P
  C85      1.0000 0.06870  0.67020  0.82280  Biso   1.000  C
  C86      1.0000 0.10560  0.66060  0.75460  Biso   1.000  C
  H43      1.0000 0.11600  0.59070  0.73560  Biso   1.000  H
  C87      1.0000 0.12710  0.75260  0.71440  Biso   1.000  C
  H44      1.0000 0.15120  0.74370  0.66840  Biso   1.000  H
  C88      1.0000 0.11370  0.85750  0.74120  Biso   1.000  C
  C89      1.0000 0.13840  0.95560  0.69770  Biso   1.000  C
  C90      1.0000 0.19990  0.95590  0.66310  Biso   1.000  C
  H45      1.0000 0.22650  0.89410  0.66860  Biso   1.000  H
  C91      1.0000 0.22300  0.04550  0.62060  Biso   1.000  C
  C92      1.0000 0.18300  0.13640  0.61020  Biso   1.000  C
  H46      1.0000 0.19690  0.19510  0.57900  Biso   1.000  H
  C93      1.0000 0.12220  0.13980  0.64620  Biso   1.000  C
  C94      1.0000 0.10060  0.05050  0.69000  Biso   1.000  C
  H47      1.0000 0.06010  0.05400  0.71470  Biso   1.000  H
  C95      1.0000 0.07700  0.86710  0.80960  Biso   1.000  C
  H48      1.0000 0.06720  0.93690  0.82900  Biso   1.000  H
  C96      1.0000 0.05490  0.77520  0.84960  Biso   1.000  C
  H49      1.0000 0.03040  0.78420  0.89520  Biso   1.000  H
  C97      1.0000 0.29050  0.04480  0.58590  Biso   1.000  C
  C98      1.0000 0.08250  0.24360  0.64370  Biso   1.000  C
  Zn8      1.0000 0.58750  0.04354  0.44291  Biso   1.000  Zn
  O50      1.0000 0.52377  0.94080  0.40290  Biso   1.000  O
  O51      1.0000 0.44297  0.04960  0.32304  Biso   1.000  O
  O52      1.0000 0.40583  0.96230  0.44514  Biso   1.000  O
  O53      1.0000 0.44090  0.22800  0.20810  Biso   1.000  O
  O54      1.0000 0.42335  0.20480  0.08030  Biso   1.000  O
  O55      1.0000 0.17306  0.53560  0.10620  Biso   1.000  O
  O56      1.0000 0.19281  0.37830  0.04280  Biso   1.000  O
  P8       1.0000 0.45374  0.95137  0.37768  Biso   1.000  P
  C99      1.0000 0.43130  0.82980  0.32280  Biso   1.000  C
  C100     1.0000 0.39440  0.83940  0.25460  Biso   1.000  C
  H50      1.0000 0.38400  0.90930  0.23560  Biso   1.000  H
  C101     1.0000 0.37290  0.74740  0.21440  Biso   1.000  C
  H51      1.0000 0.34880  0.75630  0.16840  Biso   1.000  H
  C102     1.0000 0.38630  0.64250  0.24120  Biso   1.000  C
  C103     1.0000 0.36160  0.54440  0.19770  Biso   1.000  C
  C104     1.0000 0.30010  0.54410  0.16310  Biso   1.000  C
  H52      1.0000 0.27350  0.60590  0.16860  Biso   1.000  H
  C105     1.0000 0.27700  0.45450  0.12060  Biso   1.000  C
  C106     1.0000 0.31700  0.36360  0.11020  Biso   1.000  C
  H53      1.0000 0.30310  0.30490  0.07900  Biso   1.000  H
  C107     1.0000 0.37780  0.36020  0.14620  Biso   1.000  C
  C108     1.0000 0.39940  0.44950  0.19000  Biso   1.000  C
  H54      1.0000 0.43990  0.44600  0.21470  Biso   1.000  H
  C109     1.0000 0.42300  0.63290  0.30960  Biso   1.000  C
  H55      1.0000 0.43280  0.56310  0.32900  Biso   1.000  H
  C110     1.0000 0.44510  0.72480  0.34960  Biso   1.000  C
  H56      1.0000 0.46960  0.71580  0.39520  Biso   1.000  H
  C111     1.0000 0.20950  0.45520  0.08590  Biso   1.000  C
  C112     1.0000 0.41750  0.25640  0.14370  Biso   1.000  C
  Zn9      1.0000 0.00000  0.61899  0.25000  Biso   1.000  Zn
  Zn10     1.0000 0.50000  0.88101  0.75000  Biso   1.000  Zn
  Zn11     1.0000 0.00000  0.38101  0.75000  Biso   1.000  Zn
  Zn12     1.0000 0.50000  0.11899  0.25000  Biso   1.000  Zn
