data_image0
_cell_length_a       20.4782
_cell_length_b       12.0724
_cell_length_c       16.9099
_cell_angle_alpha    90
_cell_angle_beta     90
_cell_angle_gamma    90

_symmetry_space_group_name_H-M    "P 1"
_symmetry_int_tables_number       1

loop_
  _symmetry_equiv_pos_as_xyz
  'x, y, z'

loop_
  _atom_site_label
  _atom_site_occupancy
  _atom_site_fract_x
  _atom_site_fract_y
  _atom_site_fract_z
  _atom_site_thermal_displace_type
  _atom_site_B_iso_or_equiv
  _atom_site_type_symbol
  Zn1      1.0000 0.58747  0.04387  0.05703  Biso   1.000  Zn
  P1       1.0000 0.95311  0.45499  0.37653  Biso   1.000  P
  O1       1.0000 0.94214  0.73270  0.20604  Biso   1.000  O
  O2       1.0000 0.92257  0.70538  0.07919  Biso   1.000  O
  O3       1.0000 0.69408  0.87982  0.03987  Biso   1.000  O
  O4       1.0000 0.67372  0.03509  0.10453  Biso   1.000  O
  O5       1.0000 0.94183  0.55392  0.32150  Biso   1.000  O
  O6       1.0000 0.90631  0.46580  0.44522  Biso   1.000  O
  O7       1.0000 0.02391  0.44426  0.40037  Biso   1.000  O
  C1       1.0000 0.92970  0.33340  0.32214  Biso   1.000  C
  C2       1.0000 0.94435  0.22840  0.34849  Biso   1.000  C
  H1       1.0000 0.96910  0.21960  0.39420  Biso   1.000  H
  C3       1.0000 0.92289  0.13600  0.30821  Biso   1.000  C
  H2       1.0000 0.93350  0.06590  0.32710  Biso   1.000  H
  C4       1.0000 0.88563  0.14590  0.23980  Biso   1.000  C
  C5       1.0000 0.86189  0.04730  0.19573  Biso   1.000  C
  C6       1.0000 0.89982  0.95220  0.18860  Biso   1.000  C
  H3       1.0000 0.94000  0.94860  0.21410  Biso   1.000  H
  C7       1.0000 0.87855  0.86270  0.14384  Biso   1.000  C
  C8       1.0000 0.81803  0.86550  0.10718  Biso   1.000  C
  H4       1.0000 0.80420  0.80660  0.07590  Biso   1.000  H
  C9       1.0000 0.77832  0.95740  0.11775  Biso   1.000  C
  C10      1.0000 0.80045  0.04760  0.16035  Biso   1.000  C
  H5       1.0000 0.77380  0.10960  0.16550  Biso   1.000  H
  C11      1.0000 0.87154  0.25140  0.21325  Biso   1.000  C
  H6       1.0000 0.84710  0.26020  0.16730  Biso   1.000  H
  C12      1.0000 0.89294  0.34400  0.25333  Biso   1.000  C
  H7       1.0000 0.88270  0.41420  0.23420  Biso   1.000  H
  C13      1.0000 0.91761  0.75810  0.14173  Biso   1.000  C
  C14      1.0000 0.71018  0.95640  0.08365  Biso   1.000  C
  Zn2      1.0000 0.91253  0.45613  0.55703  Biso   1.000  Zn
  P2       1.0000 0.54689  0.04501  0.87653  Biso   1.000  P
  O8       1.0000 0.55786  0.76730  0.70604  Biso   1.000  O
  O9       1.0000 0.57743  0.79462  0.57919  Biso   1.000  O
  O10      1.0000 0.80592  0.62018  0.53987  Biso   1.000  O
  O11      1.0000 0.82628  0.46491  0.60453  Biso   1.000  O
  O12      1.0000 0.55817  0.94608  0.82150  Biso   1.000  O
  O13      1.0000 0.59369  0.03420  0.94522  Biso   1.000  O
  O14      1.0000 0.47609  0.05574  0.90037  Biso   1.000  O
  C15      1.0000 0.57030  0.16660  0.82214  Biso   1.000  C
  C16      1.0000 0.55565  0.27160  0.84849  Biso   1.000  C
  H8       1.0000 0.53090  0.28040  0.89420  Biso   1.000  H
  C17      1.0000 0.57711  0.36400  0.80821  Biso   1.000  C
  H9       1.0000 0.56650  0.43410  0.82710  Biso   1.000  H
  C18      1.0000 0.61437  0.35410  0.73980  Biso   1.000  C
  C19      1.0000 0.63811  0.45270  0.69573  Biso   1.000  C
  C20      1.0000 0.60018  0.54780  0.68860  Biso   1.000  C
  H10      1.0000 0.56000  0.55140  0.71410  Biso   1.000  H
  C21      1.0000 0.62145  0.63730  0.64384  Biso   1.000  C
  C22      1.0000 0.68197  0.63450  0.60718  Biso   1.000  C
  H11      1.0000 0.69580  0.69340  0.57590  Biso   1.000  H
  C23      1.0000 0.72168  0.54260  0.61775  Biso   1.000  C
  C24      1.0000 0.69955  0.45240  0.66035  Biso   1.000  C
  H12      1.0000 0.72620  0.39040  0.66550  Biso   1.000  H
  C25      1.0000 0.62846  0.24860  0.71325  Biso   1.000  C
  H13      1.0000 0.65290  0.23980  0.66730  Biso   1.000  H
  C26      1.0000 0.60706  0.15600  0.75333  Biso   1.000  C
  H14      1.0000 0.61730  0.08580  0.73420  Biso   1.000  H
  C27      1.0000 0.58239  0.74190  0.64173  Biso   1.000  C
  C28      1.0000 0.78982  0.54360  0.58365  Biso   1.000  C
  Zn3      1.0000 0.41253  0.04387  0.44297  Biso   1.000  Zn
  P3       1.0000 0.04689  0.45499  0.12347  Biso   1.000  P
  O15      1.0000 0.05786  0.73270  0.29396  Biso   1.000  O
  O16      1.0000 0.07743  0.70538  0.42081  Biso   1.000  O
  O17      1.0000 0.30592  0.87982  0.46013  Biso   1.000  O
  O18      1.0000 0.32628  0.03509  0.39547  Biso   1.000  O
  O19      1.0000 0.05817  0.55392  0.17850  Biso   1.000  O
  O20      1.0000 0.09369  0.46580  0.05478  Biso   1.000  O
  O21      1.0000 0.97609  0.44426  0.09963  Biso   1.000  O
  C29      1.0000 0.07030  0.33340  0.17786  Biso   1.000  C
  C30      1.0000 0.05565  0.22840  0.15151  Biso   1.000  C
  H15      1.0000 0.03090  0.21960  0.10580  Biso   1.000  H
  C31      1.0000 0.07711  0.13600  0.19179  Biso   1.000  C
  H16      1.0000 0.06650  0.06590  0.17290  Biso   1.000  H
  C32      1.0000 0.11437  0.14590  0.26020  Biso   1.000  C
  C33      1.0000 0.13811  0.04730  0.30427  Biso   1.000  C
  C34      1.0000 0.10018  0.95220  0.31140  Biso   1.000  C
  H17      1.0000 0.06000  0.94860  0.28590  Biso   1.000  H
  C35      1.0000 0.12145  0.86270  0.35616  Biso   1.000  C
  C36      1.0000 0.18197  0.86550  0.39282  Biso   1.000  C
  H18      1.0000 0.19580  0.80660  0.42410  Biso   1.000  H
  C37      1.0000 0.22168  0.95740  0.38225  Biso   1.000  C
  C38      1.0000 0.19955  0.04760  0.33965  Biso   1.000  C
  H19      1.0000 0.22620  0.10960  0.33450  Biso   1.000  H
  C39      1.0000 0.12846  0.25140  0.28675  Biso   1.000  C
  H20      1.0000 0.15290  0.26020  0.33270  Biso   1.000  H
  C40      1.0000 0.10706  0.34400  0.24667  Biso   1.000  C
  H21      1.0000 0.11730  0.41420  0.26580  Biso   1.000  H
  C41      1.0000 0.08239  0.75810  0.35827  Biso   1.000  C
  C42      1.0000 0.28982  0.95640  0.41635  Biso   1.000  C
  Zn4      1.0000 0.08747  0.45613  0.94297  Biso   1.000  Zn
  P4       1.0000 0.45311  0.04501  0.62347  Biso   1.000  P
  O22      1.0000 0.44214  0.76730  0.79396  Biso   1.000  O
  O23      1.0000 0.42257  0.79462  0.92081  Biso   1.000  O
  O24      1.0000 0.19408  0.62018  0.96013  Biso   1.000  O
  O25      1.0000 0.17372  0.46491  0.89547  Biso   1.000  O
  O26      1.0000 0.44183  0.94608  0.67850  Biso   1.000  O
  O27      1.0000 0.40631  0.03420  0.55478  Biso   1.000  O
  O28      1.0000 0.52391  0.05574  0.59963  Biso   1.000  O
  C43      1.0000 0.42970  0.16660  0.67786  Biso   1.000  C
  C44      1.0000 0.44435  0.27160  0.65151  Biso   1.000  C
  H22      1.0000 0.46910  0.28040  0.60580  Biso   1.000  H
  C45      1.0000 0.42289  0.36400  0.69179  Biso   1.000  C
  H23      1.0000 0.43350  0.43410  0.67290  Biso   1.000  H
  C46      1.0000 0.38563  0.35410  0.76020  Biso   1.000  C
  C47      1.0000 0.36189  0.45270  0.80427  Biso   1.000  C
  C48      1.0000 0.39982  0.54780  0.81140  Biso   1.000  C
  H24      1.0000 0.44000  0.55140  0.78590  Biso   1.000  H
  C49      1.0000 0.37855  0.63730  0.85616  Biso   1.000  C
  C50      1.0000 0.31803  0.63450  0.89282  Biso   1.000  C
  H25      1.0000 0.30420  0.69340  0.92410  Biso   1.000  H
  C51      1.0000 0.27832  0.54260  0.88225  Biso   1.000  C
  C52      1.0000 0.30045  0.45240  0.83965  Biso   1.000  C
  H26      1.0000 0.27380  0.39040  0.83450  Biso   1.000  H
  C53      1.0000 0.37154  0.24860  0.78675  Biso   1.000  C
  H27      1.0000 0.34710  0.23980  0.83270  Biso   1.000  H
  C54      1.0000 0.39294  0.15600  0.74667  Biso   1.000  C
  H28      1.0000 0.38270  0.08580  0.76580  Biso   1.000  H
  C55      1.0000 0.41761  0.74190  0.85827  Biso   1.000  C
  C56      1.0000 0.21018  0.54360  0.91635  Biso   1.000  C
  Zn5      1.0000 0.41253  0.95613  0.94297  Biso   1.000  Zn
  P5       1.0000 0.04689  0.54501  0.62347  Biso   1.000  P
  O29      1.0000 0.05786  0.26730  0.79396  Biso   1.000  O
  O30      1.0000 0.07743  0.29462  0.92081  Biso   1.000  O
  O31      1.0000 0.30592  0.12018  0.96013  Biso   1.000  O
  O32      1.0000 0.32628  0.96491  0.89547  Biso   1.000  O
  O33      1.0000 0.05817  0.44608  0.67850  Biso   1.000  O
  O34      1.0000 0.09369  0.53420  0.55478  Biso   1.000  O
  O35      1.0000 0.97609  0.55574  0.59963  Biso   1.000  O
  C57      1.0000 0.07030  0.66660  0.67786  Biso   1.000  C
  C58      1.0000 0.05565  0.77160  0.65151  Biso   1.000  C
  H29      1.0000 0.03090  0.78040  0.60580  Biso   1.000  H
  C59      1.0000 0.07711  0.86400  0.69179  Biso   1.000  C
  H30      1.0000 0.06650  0.93410  0.67290  Biso   1.000  H
  C60      1.0000 0.11437  0.85410  0.76020  Biso   1.000  C
  C61      1.0000 0.13811  0.95270  0.80427  Biso   1.000  C
  C62      1.0000 0.10018  0.04780  0.81140  Biso   1.000  C
  H31      1.0000 0.06000  0.05140  0.78590  Biso   1.000  H
  C63      1.0000 0.12145  0.13730  0.85616  Biso   1.000  C
  C64      1.0000 0.18197  0.13450  0.89282  Biso   1.000  C
  H32      1.0000 0.19580  0.19340  0.92410  Biso   1.000  H
  C65      1.0000 0.22168  0.04260  0.88225  Biso   1.000  C
  C66      1.0000 0.19955  0.95240  0.83965  Biso   1.000  C
  H33      1.0000 0.22620  0.89040  0.83450  Biso   1.000  H
  C67      1.0000 0.12846  0.74860  0.78675  Biso   1.000  C
  H34      1.0000 0.15290  0.73980  0.83270  Biso   1.000  H
  C68      1.0000 0.10706  0.65600  0.74667  Biso   1.000  C
  H35      1.0000 0.11730  0.58580  0.76580  Biso   1.000  H
  C69      1.0000 0.08239  0.24190  0.85827  Biso   1.000  C
  C70      1.0000 0.28982  0.04360  0.91635  Biso   1.000  C
  Zn6      1.0000 0.08747  0.54387  0.44297  Biso   1.000  Zn
  P6       1.0000 0.45311  0.95499  0.12347  Biso   1.000  P
  O36      1.0000 0.44214  0.23270  0.29396  Biso   1.000  O
  O37      1.0000 0.42257  0.20538  0.42081  Biso   1.000  O
  O38      1.0000 0.19408  0.37982  0.46013  Biso   1.000  O
  O39      1.0000 0.17372  0.53509  0.39547  Biso   1.000  O
  O40      1.0000 0.44183  0.05392  0.17850  Biso   1.000  O
  O41      1.0000 0.40631  0.96580  0.05478  Biso   1.000  O
  O42      1.0000 0.52391  0.94426  0.09963  Biso   1.000  O
  C71      1.0000 0.42970  0.83340  0.17786  Biso   1.000  C
  C72      1.0000 0.44435  0.72840  0.15151  Biso   1.000  C
  H36      1.0000 0.46910  0.71960  0.10580  Biso   1.000  H
  C73      1.0000 0.42289  0.63600  0.19179  Biso   1.000  C
  H37      1.0000 0.43350  0.56590  0.17290  Biso   1.000  H
  C74      1.0000 0.38563  0.64590  0.26020  Biso   1.000  C
  C75      1.0000 0.36189  0.54730  0.30427  Biso   1.000  C
  C76      1.0000 0.39982  0.45220  0.31140  Biso   1.000  C
  H38      1.0000 0.44000  0.44860  0.28590  Biso   1.000  H
  C77      1.0000 0.37855  0.36270  0.35616  Biso   1.000  C
  C78      1.0000 0.31803  0.36550  0.39282  Biso   1.000  C
  H39      1.0000 0.30420  0.30660  0.42410  Biso   1.000  H
  C79      1.0000 0.27832  0.45740  0.38225  Biso   1.000  C
  C80      1.0000 0.30045  0.54760  0.33965  Biso   1.000  C
  H40      1.0000 0.27380  0.60960  0.33450  Biso   1.000  H
  C81      1.0000 0.37154  0.75140  0.28675  Biso   1.000  C
  H41      1.0000 0.34710  0.76020  0.33270  Biso   1.000  H
  C82      1.0000 0.39294  0.84400  0.24667  Biso   1.000  C
  H42      1.0000 0.38270  0.91420  0.26580  Biso   1.000  H
  C83      1.0000 0.41761  0.25810  0.35827  Biso   1.000  C
  C84      1.0000 0.21018  0.45640  0.41635  Biso   1.000  C
  Zn7      1.0000 0.58747  0.95613  0.55703  Biso   1.000  Zn
  P7       1.0000 0.95311  0.54501  0.87653  Biso   1.000  P
  O43      1.0000 0.94214  0.26730  0.70604  Biso   1.000  O
  O44      1.0000 0.92257  0.29462  0.57919  Biso   1.000  O
  O45      1.0000 0.69408  0.12018  0.53987  Biso   1.000  O
  O46      1.0000 0.67372  0.96491  0.60453  Biso   1.000  O
  O47      1.0000 0.94183  0.44608  0.82150  Biso   1.000  O
  O48      1.0000 0.90631  0.53420  0.94522  Biso   1.000  O
  O49      1.0000 0.02391  0.55574  0.90037  Biso   1.000  O
  C85      1.0000 0.92970  0.66660  0.82214  Biso   1.000  C
  C86      1.0000 0.94435  0.77160  0.84849  Biso   1.000  C
  H43      1.0000 0.96910  0.78040  0.89420  Biso   1.000  H
  C87      1.0000 0.92289  0.86400  0.80821  Biso   1.000  C
  H44      1.0000 0.93350  0.93410  0.82710  Biso   1.000  H
  C88      1.0000 0.88563  0.85410  0.73980  Biso   1.000  C
  C89      1.0000 0.86189  0.95270  0.69573  Biso   1.000  C
  C90      1.0000 0.89982  0.04780  0.68860  Biso   1.000  C
  H45      1.0000 0.94000  0.05140  0.71410  Biso   1.000  H
  C91      1.0000 0.87855  0.13730  0.64384  Biso   1.000  C
  C92      1.0000 0.81803  0.13450  0.60718  Biso   1.000  C
  H46      1.0000 0.80420  0.19340  0.57590  Biso   1.000  H
  C93      1.0000 0.77832  0.04260  0.61775  Biso   1.000  C
  C94      1.0000 0.80045  0.95240  0.66035  Biso   1.000  C
  H47      1.0000 0.77380  0.89040  0.66550  Biso   1.000  H
  C95      1.0000 0.87154  0.74860  0.71325  Biso   1.000  C
  H48      1.0000 0.84710  0.73980  0.66730  Biso   1.000  H
  C96      1.0000 0.89294  0.65600  0.75333  Biso   1.000  C
  H49      1.0000 0.88270  0.58580  0.73420  Biso   1.000  H
  C97      1.0000 0.91761  0.24190  0.64173  Biso   1.000  C
  C98      1.0000 0.71018  0.04360  0.58365  Biso   1.000  C
  Zn8      1.0000 0.91253  0.54387  0.05703  Biso   1.000  Zn
  P8       1.0000 0.54689  0.95499  0.37653  Biso   1.000  P
  O50      1.0000 0.55786  0.23270  0.20604  Biso   1.000  O
  O51      1.0000 0.57743  0.20538  0.07919  Biso   1.000  O
  O52      1.0000 0.80592  0.37982  0.03987  Biso   1.000  O
  O53      1.0000 0.82628  0.53509  0.10453  Biso   1.000  O
  O54      1.0000 0.55817  0.05392  0.32150  Biso   1.000  O
  O55      1.0000 0.59369  0.96580  0.44522  Biso   1.000  O
  O56      1.0000 0.47609  0.94426  0.40037  Biso   1.000  O
  C99      1.0000 0.57030  0.83340  0.32214  Biso   1.000  C
  C100     1.0000 0.55565  0.72840  0.34849  Biso   1.000  C
  H50      1.0000 0.53090  0.71960  0.39420  Biso   1.000  H
  C101     1.0000 0.57711  0.63600  0.30821  Biso   1.000  C
  H51      1.0000 0.56650  0.56590  0.32710  Biso   1.000  H
  C102     1.0000 0.61437  0.64590  0.23980  Biso   1.000  C
  C103     1.0000 0.63811  0.54730  0.19573  Biso   1.000  C
  C104     1.0000 0.60018  0.45220  0.18860  Biso   1.000  C
  H52      1.0000 0.56000  0.44860  0.21410  Biso   1.000  H
  C105     1.0000 0.62145  0.36270  0.14384  Biso   1.000  C
  C106     1.0000 0.68197  0.36550  0.10718  Biso   1.000  C
  H53      1.0000 0.69580  0.30660  0.07590  Biso   1.000  H
  C107     1.0000 0.72168  0.45740  0.11775  Biso   1.000  C
  C108     1.0000 0.69955  0.54760  0.16035  Biso   1.000  C
  H54      1.0000 0.72620  0.60960  0.16550  Biso   1.000  H
  C109     1.0000 0.62846  0.75140  0.21325  Biso   1.000  C
  H55      1.0000 0.65290  0.76020  0.16730  Biso   1.000  H
  C110     1.0000 0.60706  0.84400  0.25333  Biso   1.000  C
  H56      1.0000 0.61730  0.91420  0.23420  Biso   1.000  H
  C111     1.0000 0.58239  0.25810  0.14173  Biso   1.000  C
  C112     1.0000 0.78982  0.45640  0.08365  Biso   1.000  C
  Zn9      1.0000 0.00000  0.62287  0.25000  Biso   1.000  Zn
  Zn10     1.0000 0.50000  0.87713  0.75000  Biso   1.000  Zn
  Zn11     1.0000 0.00000  0.37713  0.75000  Biso   1.000  Zn
  Zn12     1.0000 0.50000  0.12287  0.25000  Biso   1.000  Zn
