data_image0
_cell_length_a       21.5
_cell_length_b       21.5
_cell_length_c       22.454
_cell_angle_alpha    90
_cell_angle_beta     90
_cell_angle_gamma    90

_symmetry_space_group_name_H-M    "P 1"
_symmetry_int_tables_number       1

loop_
  _symmetry_equiv_pos_as_xyz
  'x, y, z'

loop_
  _atom_site_label
  _atom_site_occupancy
  _atom_site_fract_x
  _atom_site_fract_y
  _atom_site_fract_z
  _atom_site_thermal_displace_type
  _atom_site_B_iso_or_equiv
  _atom_site_type_symbol
  Zn1      1.0000 0.00494  0.01459  0.49376  Biso   1.000  Zn
  I1       1.0000 0.95241  0.08771  0.56474  Biso   1.000  I
  N1       1.0000 0.95630  0.93620  0.46280  Biso   1.000  N
  C1       1.0000 0.94330  0.93470  0.40580  Biso   1.000  C
  H1       1.0000 0.95140  0.96960  0.38110  Biso   1.000  H
  C2       1.0000 0.91790  0.88180  0.38300  Biso   1.000  C
  H2       1.0000 0.90600  0.88110  0.34230  Biso   1.000  H
  C3       1.0000 0.90870  0.82900  0.41720  Biso   1.000  C
  C4       1.0000 0.92060  0.83490  0.47670  Biso   1.000  C
  H3       1.0000 0.91200  0.80170  0.50340  Biso   1.000  H
  C5       1.0000 0.94610  0.89120  0.49770  Biso   1.000  C
  H4       1.0000 0.95570  0.89550  0.53880  Biso   1.000  H
  N2       1.0000 0.95770  0.55300  0.08140  Biso   1.000  N
  C6       1.0000 0.92150  0.51890  0.11960  Biso   1.000  C
  H5       1.0000 0.91270  0.47680  0.11000  Biso   1.000  H
  C7       1.0000 0.89840  0.54250  0.16950  Biso   1.000  C
  H6       1.0000 0.87410  0.51660  0.19470  Biso   1.000  H
  C8       1.0000 0.90790  0.60080  0.18550  Biso   1.000  C
  C9       1.0000 0.94410  0.63940  0.14600  Biso   1.000  C
  H7       1.0000 0.95320  0.68150  0.15530  Biso   1.000  H
  C10      1.0000 0.96410  0.61280  0.09590  Biso   1.000  C
  H8       1.0000 0.98480  0.63880  0.06800  Biso   1.000  H
  N3       1.0000 0.57940  0.53020  0.46780  Biso   1.000  N
  C11      1.0000 0.60550  0.58270  0.49390  Biso   1.000  C
  H9       1.0000 0.58710  0.60030  0.52840  Biso   1.000  H
  C12      1.0000 0.65860  0.60930  0.46950  Biso   1.000  C
  H10      1.0000 0.67650  0.64520  0.48730  Biso   1.000  H
  C13      1.0000 0.68560  0.58350  0.41890  Biso   1.000  C
  C14      1.0000 0.65940  0.53100  0.39280  Biso   1.000  C
  H11      1.0000 0.67780  0.51340  0.35830  Biso   1.000  H
  C15      1.0000 0.60630  0.50440  0.41720  Biso   1.000  C
  H12      1.0000 0.58840  0.46860  0.39940  Biso   1.000  H
  C16      1.0000 0.88520  0.77090  0.39000  Biso   1.000  C
  N4       1.0000 0.90960  0.75310  0.33710  Biso   1.000  N
  C17      1.0000 0.88830  0.70120  0.31340  Biso   1.000  C
  N5       1.0000 0.90860  0.68150  0.26360  Biso   1.000  N
  C18      1.0000 0.88280  0.62630  0.24170  Biso   1.000  C
  N6       1.0000 0.83630  0.59520  0.26540  Biso   1.000  N
  C19      1.0000 0.81390  0.61760  0.31620  Biso   1.000  C
  N7       1.0000 0.76190  0.58880  0.34230  Biso   1.000  N
  C20      1.0000 0.74360  0.61590  0.39350  Biso   1.000  C
  N8       1.0000 0.76440  0.66410  0.42330  Biso   1.000  N
  C21      1.0000 0.81420  0.69140  0.39570  Biso   1.000  C
  N9       1.0000 0.83800  0.74390  0.42300  Biso   1.000  N
  C22      1.0000 0.83710  0.66930  0.34280  Biso   1.000  C
  Zn2      1.0000 0.49506  0.98541  0.99376  Biso   1.000  Zn
  I2       1.0000 0.54759  0.91229  0.06474  Biso   1.000  I
  N10      1.0000 0.54370  0.06380  0.96280  Biso   1.000  N
  C23      1.0000 0.55670  0.06530  0.90580  Biso   1.000  C
  H13      1.0000 0.54860  0.03040  0.88110  Biso   1.000  H
  C24      1.0000 0.58210  0.11820  0.88300  Biso   1.000  C
  H14      1.0000 0.59400  0.11890  0.84230  Biso   1.000  H
  C25      1.0000 0.59130  0.17100  0.91720  Biso   1.000  C
  C26      1.0000 0.57940  0.16510  0.97670  Biso   1.000  C
  H15      1.0000 0.58800  0.19830  0.00340  Biso   1.000  H
  C27      1.0000 0.55390  0.10880  0.99770  Biso   1.000  C
  H16      1.0000 0.54430  0.10450  0.03880  Biso   1.000  H
  N11      1.0000 0.54230  0.44700  0.58140  Biso   1.000  N
  C28      1.0000 0.57850  0.48110  0.61960  Biso   1.000  C
  H17      1.0000 0.58730  0.52320  0.61000  Biso   1.000  H
  C29      1.0000 0.60160  0.45750  0.66950  Biso   1.000  C
  H18      1.0000 0.62590  0.48340  0.69470  Biso   1.000  H
  C30      1.0000 0.59210  0.39920  0.68550  Biso   1.000  C
  C31      1.0000 0.55590  0.36060  0.64600  Biso   1.000  C
  H19      1.0000 0.54680  0.31850  0.65530  Biso   1.000  H
  C32      1.0000 0.53590  0.38720  0.59590  Biso   1.000  C
  H20      1.0000 0.51520  0.36120  0.56800  Biso   1.000  H
  N12      1.0000 0.92060  0.46980  0.96780  Biso   1.000  N
  C33      1.0000 0.89450  0.41730  0.99390  Biso   1.000  C
  H21      1.0000 0.91290  0.39970  0.02840  Biso   1.000  H
  C34      1.0000 0.84140  0.39070  0.96950  Biso   1.000  C
  H22      1.0000 0.82350  0.35480  0.98730  Biso   1.000  H
  C35      1.0000 0.81440  0.41650  0.91890  Biso   1.000  C
  C36      1.0000 0.84060  0.46900  0.89280  Biso   1.000  C
  H23      1.0000 0.82220  0.48660  0.85830  Biso   1.000  H
  C37      1.0000 0.89370  0.49560  0.91720  Biso   1.000  C
  H24      1.0000 0.91160  0.53140  0.89940  Biso   1.000  H
  C38      1.0000 0.61480  0.22910  0.89000  Biso   1.000  C
  N13      1.0000 0.59040  0.24690  0.83710  Biso   1.000  N
  C39      1.0000 0.61170  0.29880  0.81340  Biso   1.000  C
  N14      1.0000 0.59140  0.31850  0.76360  Biso   1.000  N
  C40      1.0000 0.61720  0.37370  0.74170  Biso   1.000  C
  N15      1.0000 0.66370  0.40480  0.76540  Biso   1.000  N
  C41      1.0000 0.68610  0.38240  0.81620  Biso   1.000  C
  N16      1.0000 0.73810  0.41120  0.84230  Biso   1.000  N
  C42      1.0000 0.75640  0.38410  0.89350  Biso   1.000  C
  N17      1.0000 0.73560  0.33590  0.92330  Biso   1.000  N
  C43      1.0000 0.68580  0.30860  0.89570  Biso   1.000  C
  N18      1.0000 0.66200  0.25610  0.92300  Biso   1.000  N
  C44      1.0000 0.66290  0.33070  0.84280  Biso   1.000  C
  Zn3      1.0000 0.99506  0.51459  0.00624  Biso   1.000  Zn
  I3       1.0000 0.04759  0.58771  0.93526  Biso   1.000  I
  N19      1.0000 0.04370  0.43620  0.03720  Biso   1.000  N
  C45      1.0000 0.05670  0.43470  0.09420  Biso   1.000  C
  H25      1.0000 0.04860  0.46960  0.11890  Biso   1.000  H
  C46      1.0000 0.08210  0.38180  0.11700  Biso   1.000  C
  H26      1.0000 0.09400  0.38110  0.15770  Biso   1.000  H
  C47      1.0000 0.09130  0.32900  0.08280  Biso   1.000  C
  C48      1.0000 0.07940  0.33490  0.02330  Biso   1.000  C
  H27      1.0000 0.08800  0.30170  0.99660  Biso   1.000  H
  C49      1.0000 0.05390  0.39120  0.00230  Biso   1.000  C
  H28      1.0000 0.04430  0.39550  0.96120  Biso   1.000  H
  N20      1.0000 0.04230  0.05300  0.41860  Biso   1.000  N
  C50      1.0000 0.07850  0.01890  0.38040  Biso   1.000  C
  H29      1.0000 0.08730  0.97680  0.39000  Biso   1.000  H
  C51      1.0000 0.10160  0.04250  0.33050  Biso   1.000  C
  H30      1.0000 0.12590  0.01660  0.30530  Biso   1.000  H
  C52      1.0000 0.09210  0.10080  0.31450  Biso   1.000  C
  C53      1.0000 0.05590  0.13940  0.35400  Biso   1.000  C
  H31      1.0000 0.04680  0.18150  0.34470  Biso   1.000  H
  C54      1.0000 0.03590  0.11280  0.40410  Biso   1.000  C
  H32      1.0000 0.01520  0.13880  0.43200  Biso   1.000  H
  N21      1.0000 0.42060  0.03020  0.03220  Biso   1.000  N
  C55      1.0000 0.39450  0.08270  0.00610  Biso   1.000  C
  H33      1.0000 0.41290  0.10030  0.97160  Biso   1.000  H
  C56      1.0000 0.34140  0.10930  0.03050  Biso   1.000  C
  H34      1.0000 0.32350  0.14520  0.01270  Biso   1.000  H
  C57      1.0000 0.31440  0.08350  0.08110  Biso   1.000  C
  C58      1.0000 0.34060  0.03100  0.10720  Biso   1.000  C
  H35      1.0000 0.32220  0.01340  0.14170  Biso   1.000  H
  C59      1.0000 0.39370  0.00440  0.08280  Biso   1.000  C
  H36      1.0000 0.41160  0.96860  0.10060  Biso   1.000  H
  C60      1.0000 0.11480  0.27090  0.11000  Biso   1.000  C
  N22      1.0000 0.09040  0.25310  0.16290  Biso   1.000  N
  C61      1.0000 0.11170  0.20120  0.18660  Biso   1.000  C
  N23      1.0000 0.09140  0.18150  0.23640  Biso   1.000  N
  C62      1.0000 0.11720  0.12630  0.25830  Biso   1.000  C
  N24      1.0000 0.16370  0.09520  0.23460  Biso   1.000  N
  C63      1.0000 0.18610  0.11760  0.18380  Biso   1.000  C
  N25      1.0000 0.23810  0.08880  0.15770  Biso   1.000  N
  C64      1.0000 0.25640  0.11590  0.10650  Biso   1.000  C
  N26      1.0000 0.23560  0.16410  0.07670  Biso   1.000  N
  C65      1.0000 0.18580  0.19140  0.10430  Biso   1.000  C
  N27      1.0000 0.16200  0.24390  0.07700  Biso   1.000  N
  C66      1.0000 0.16290  0.16930  0.15720  Biso   1.000  C
  Zn4      1.0000 0.50494  0.48541  0.50624  Biso   1.000  Zn
  I4       1.0000 0.45241  0.41229  0.43526  Biso   1.000  I
  N28      1.0000 0.45630  0.56380  0.53720  Biso   1.000  N
  C67      1.0000 0.44330  0.56530  0.59420  Biso   1.000  C
  H37      1.0000 0.45140  0.53040  0.61890  Biso   1.000  H
  C68      1.0000 0.41790  0.61820  0.61700  Biso   1.000  C
  H38      1.0000 0.40600  0.61890  0.65770  Biso   1.000  H
  C69      1.0000 0.40870  0.67100  0.58280  Biso   1.000  C
  C70      1.0000 0.42060  0.66510  0.52330  Biso   1.000  C
  H39      1.0000 0.41200  0.69830  0.49660  Biso   1.000  H
  C71      1.0000 0.44610  0.60880  0.50230  Biso   1.000  C
  H40      1.0000 0.45570  0.60450  0.46120  Biso   1.000  H
  N29      1.0000 0.45770  0.94700  0.91860  Biso   1.000  N
  C72      1.0000 0.42150  0.98110  0.88040  Biso   1.000  C
  H41      1.0000 0.41270  0.02320  0.89000  Biso   1.000  H
  C73      1.0000 0.39840  0.95750  0.83050  Biso   1.000  C
  H42      1.0000 0.37410  0.98340  0.80530  Biso   1.000  H
  C74      1.0000 0.40790  0.89920  0.81450  Biso   1.000  C
  C75      1.0000 0.44410  0.86060  0.85400  Biso   1.000  C
  H43      1.0000 0.45320  0.81850  0.84470  Biso   1.000  H
  C76      1.0000 0.46410  0.88720  0.90410  Biso   1.000  C
  H44      1.0000 0.48480  0.86120  0.93200  Biso   1.000  H
  N30      1.0000 0.07940  0.96980  0.53220  Biso   1.000  N
  C77      1.0000 0.10550  0.91730  0.50610  Biso   1.000  C
  H45      1.0000 0.08710  0.89970  0.47160  Biso   1.000  H
  C78      1.0000 0.15860  0.89070  0.53050  Biso   1.000  C
  H46      1.0000 0.17650  0.85480  0.51270  Biso   1.000  H
  C79      1.0000 0.18560  0.91650  0.58110  Biso   1.000  C
  C80      1.0000 0.15940  0.96900  0.60720  Biso   1.000  C
  H47      1.0000 0.17780  0.98660  0.64170  Biso   1.000  H
  C81      1.0000 0.10630  0.99560  0.58280  Biso   1.000  C
  H48      1.0000 0.08840  0.03140  0.60060  Biso   1.000  H
  C82      1.0000 0.38520  0.72910  0.61000  Biso   1.000  C
  N31      1.0000 0.40960  0.74690  0.66290  Biso   1.000  N
  C83      1.0000 0.38830  0.79880  0.68660  Biso   1.000  C
  N32      1.0000 0.40860  0.81850  0.73640  Biso   1.000  N
  C84      1.0000 0.38280  0.87370  0.75830  Biso   1.000  C
  N33      1.0000 0.33630  0.90480  0.73460  Biso   1.000  N
  C85      1.0000 0.31390  0.88240  0.68380  Biso   1.000  C
  N34      1.0000 0.26190  0.91120  0.65770  Biso   1.000  N
  C86      1.0000 0.24360  0.88410  0.60650  Biso   1.000  C
  N35      1.0000 0.26440  0.83590  0.57670  Biso   1.000  N
  C87      1.0000 0.31420  0.80860  0.60430  Biso   1.000  C
  N36      1.0000 0.33800  0.75610  0.57700  Biso   1.000  N
  C88      1.0000 0.33710  0.83070  0.65720  Biso   1.000  C
  Zn5      1.0000 0.50672  0.99309  0.50131  Biso   1.000  Zn
  I5       1.0000 0.43107  0.94238  0.57167  Biso   1.000  I
  N37      1.0000 0.53810  0.94650  0.42920  Biso   1.000  N
  C89      1.0000 0.49620  0.93020  0.38470  Biso   1.000  C
  H49      1.0000 0.45280  0.93490  0.39120  Biso   1.000  H
  C90      1.0000 0.51780  0.90700  0.33080  Biso   1.000  C
  H50      1.0000 0.48920  0.89590  0.30040  Biso   1.000  H
  C91      1.0000 0.58130  0.90010  0.32130  Biso   1.000  C
  C92      1.0000 0.62320  0.91640  0.36580  Biso   1.000  C
  H51      1.0000 0.66660  0.91170  0.35930  Biso   1.000  H
  C93      1.0000 0.60160  0.93960  0.41970  Biso   1.000  C
  H52      1.0000 0.63020  0.95070  0.45020  Biso   1.000  H
  N38      1.0000 0.53340  0.56850  0.03880  Biso   1.000  N
  C94      1.0000 0.58370  0.59490  0.01710  Biso   1.000  C
  H53      1.0000 0.60260  0.57630  0.98320  Biso   1.000  H
  C95      1.0000 0.61100  0.64790  0.03990  Biso   1.000  C
  H54      1.0000 0.64630  0.66560  0.02110  Biso   1.000  H
  C96      1.0000 0.58630  0.67470  0.09030  Biso   1.000  C
  C97      1.0000 0.53560  0.64430  0.11860  Biso   1.000  C
  H55      1.0000 0.51900  0.65890  0.15530  Biso   1.000  H
  C98      1.0000 0.51080  0.59080  0.08930  Biso   1.000  C
  H56      1.0000 0.47630  0.57020  0.10700  Biso   1.000  H
  N39      1.0000 0.91250  0.97130  0.03750  Biso   1.000  N
  C99      1.0000 0.89450  0.98670  0.09220  Biso   1.000  C
  H57      1.0000 0.92010  0.01300  0.11590  Biso   1.000  H
  C100     1.0000 0.83870  0.96480  0.11500  Biso   1.000  C
  H58      1.0000 0.82370  0.98090  0.15170  Biso   1.000  H
  C101     1.0000 0.80570  0.92160  0.08620  Biso   1.000  C
  C102     1.0000 0.82410  0.90620  0.02820  Biso   1.000  C
  H59      1.0000 0.80110  0.87730  0.00490  Biso   1.000  H
  C103     1.0000 0.87790  0.93520  0.00570  Biso   1.000  C
  H60      1.0000 0.88920  0.92790  0.96540  Biso   1.000  H
  C104     1.0000 0.60380  0.87670  0.25960  Biso   1.000  C
  N40      1.0000 0.57660  0.82670  0.23860  Biso   1.000  N
  C105     1.0000 0.60350  0.80520  0.18940  Biso   1.000  C
  N41      1.0000 0.58140  0.75100  0.16520  Biso   1.000  N
  C106     1.0000 0.61060  0.73260  0.11720  Biso   1.000  C
  N42      1.0000 0.65890  0.75580  0.08830  Biso   1.000  N
  C107     1.0000 0.68150  0.80740  0.11330  Biso   1.000  C
  N43      1.0000 0.73310  0.83790  0.08800  Biso   1.000  N
  C108     1.0000 0.74870  0.88960  0.11500  Biso   1.000  C
  N44      1.0000 0.72760  0.91810  0.16320  Biso   1.000  N
  C109     1.0000 0.67980  0.88790  0.18870  Biso   1.000  C
  N45      1.0000 0.65460  0.91180  0.23950  Biso   1.000  N
  C110     1.0000 0.65470  0.83400  0.16300  Biso   1.000  C
  Zn6      1.0000 0.99328  0.00691  0.00131  Biso   1.000  Zn
  I6       1.0000 0.06893  0.05762  0.07167  Biso   1.000  I
  N46      1.0000 0.96190  0.05350  0.92920  Biso   1.000  N
  C111     1.0000 0.00380  0.06980  0.88470  Biso   1.000  C
  H61      1.0000 0.04720  0.06510  0.89120  Biso   1.000  H
  C112     1.0000 0.98220  0.09300  0.83080  Biso   1.000  C
  H62      1.0000 0.01080  0.10410  0.80040  Biso   1.000  H
  C113     1.0000 0.91870  0.09990  0.82130  Biso   1.000  C
  C114     1.0000 0.87680  0.08360  0.86580  Biso   1.000  C
  H63      1.0000 0.83340  0.08830  0.85930  Biso   1.000  H
  C115     1.0000 0.89840  0.06040  0.91970  Biso   1.000  C
  H64      1.0000 0.86980  0.04930  0.95020  Biso   1.000  H
  N47      1.0000 0.96660  0.43150  0.53880  Biso   1.000  N
  C116     1.0000 0.91630  0.40510  0.51710  Biso   1.000  C
  H65      1.0000 0.89740  0.42370  0.48320  Biso   1.000  H
  C117     1.0000 0.88900  0.35210  0.53990  Biso   1.000  C
  H66      1.0000 0.85370  0.33440  0.52110  Biso   1.000  H
  C118     1.0000 0.91370  0.32530  0.59030  Biso   1.000  C
  C119     1.0000 0.96440  0.35570  0.61860  Biso   1.000  C
  H67      1.0000 0.98100  0.34110  0.65530  Biso   1.000  H
  C120     1.0000 0.98920  0.40920  0.58930  Biso   1.000  C
  H68      1.0000 0.02370  0.42980  0.60700  Biso   1.000  H
  N48      1.0000 0.58750  0.02870  0.53750  Biso   1.000  N
  C121     1.0000 0.60550  0.01330  0.59220  Biso   1.000  C
  H69      1.0000 0.57990  0.98700  0.61590  Biso   1.000  H
  C122     1.0000 0.66130  0.03520  0.61500  Biso   1.000  C
  H70      1.0000 0.67630  0.01910  0.65170  Biso   1.000  H
  C123     1.0000 0.69430  0.07840  0.58620  Biso   1.000  C
  C124     1.0000 0.67590  0.09380  0.52820  Biso   1.000  C
  H71      1.0000 0.69890  0.12270  0.50490  Biso   1.000  H
  C125     1.0000 0.62210  0.06480  0.50570  Biso   1.000  C
  H72      1.0000 0.61080  0.07210  0.46540  Biso   1.000  H
  C126     1.0000 0.89620  0.12330  0.75960  Biso   1.000  C
  N49      1.0000 0.92340  0.17330  0.73860  Biso   1.000  N
  C127     1.0000 0.89650  0.19480  0.68940  Biso   1.000  C
  N50      1.0000 0.91860  0.24900  0.66520  Biso   1.000  N
  C128     1.0000 0.88940  0.26740  0.61720  Biso   1.000  C
  N51      1.0000 0.84110  0.24420  0.58830  Biso   1.000  N
  C129     1.0000 0.81850  0.19260  0.61330  Biso   1.000  C
  N52      1.0000 0.76690  0.16210  0.58800  Biso   1.000  N
  C130     1.0000 0.75130  0.11040  0.61500  Biso   1.000  C
  N53      1.0000 0.77240  0.08190  0.66320  Biso   1.000  N
  C131     1.0000 0.82020  0.11210  0.68870  Biso   1.000  C
  N54      1.0000 0.84540  0.08820  0.73950  Biso   1.000  N
  C132     1.0000 0.84530  0.16600  0.66300  Biso   1.000  C
  Zn7      1.0000 0.49328  0.49309  0.99869  Biso   1.000  Zn
  I7       1.0000 0.56893  0.44238  0.92833  Biso   1.000  I
  N55      1.0000 0.46190  0.44650  0.07080  Biso   1.000  N
  C133     1.0000 0.50380  0.43020  0.11530  Biso   1.000  C
  H73      1.0000 0.54720  0.43490  0.10880  Biso   1.000  H
  C134     1.0000 0.48220  0.40700  0.16920  Biso   1.000  C
  H74      1.0000 0.51080  0.39590  0.19960  Biso   1.000  H
  C135     1.0000 0.41870  0.40010  0.17870  Biso   1.000  C
  C136     1.0000 0.37680  0.41640  0.13420  Biso   1.000  C
  H75      1.0000 0.33340  0.41170  0.14070  Biso   1.000  H
  C137     1.0000 0.39840  0.43960  0.08030  Biso   1.000  C
  H76      1.0000 0.36980  0.45070  0.04980  Biso   1.000  H
  N56      1.0000 0.46660  0.06850  0.46120  Biso   1.000  N
  C138     1.0000 0.41630  0.09490  0.48290  Biso   1.000  C
  H77      1.0000 0.39740  0.07630  0.51680  Biso   1.000  H
  C139     1.0000 0.38900  0.14790  0.46010  Biso   1.000  C
  H78      1.0000 0.35370  0.16560  0.47890  Biso   1.000  H
  C140     1.0000 0.41370  0.17470  0.40970  Biso   1.000  C
  C141     1.0000 0.46440  0.14430  0.38140  Biso   1.000  C
  H79      1.0000 0.48100  0.15890  0.34470  Biso   1.000  H
  C142     1.0000 0.48920  0.09080  0.41070  Biso   1.000  C
  H80      1.0000 0.52370  0.07020  0.39300  Biso   1.000  H
  N57      1.0000 0.08750  0.47130  0.46250  Biso   1.000  N
  C143     1.0000 0.10550  0.48670  0.40780  Biso   1.000  C
  H81      1.0000 0.07990  0.51300  0.38410  Biso   1.000  H
  C144     1.0000 0.16130  0.46480  0.38500  Biso   1.000  C
  H82      1.0000 0.17630  0.48090  0.34830  Biso   1.000  H
  C145     1.0000 0.19430  0.42160  0.41380  Biso   1.000  C
  C146     1.0000 0.17590  0.40620  0.47180  Biso   1.000  C
  H83      1.0000 0.19890  0.37730  0.49510  Biso   1.000  H
  C147     1.0000 0.12210  0.43520  0.49430  Biso   1.000  C
  H84      1.0000 0.11080  0.42790  0.53460  Biso   1.000  H
  C148     1.0000 0.39620  0.37670  0.24040  Biso   1.000  C
  N58      1.0000 0.42340  0.32670  0.26140  Biso   1.000  N
  C149     1.0000 0.39650  0.30520  0.31060  Biso   1.000  C
  N59      1.0000 0.41860  0.25100  0.33480  Biso   1.000  N
  C150     1.0000 0.38940  0.23260  0.38280  Biso   1.000  C
  N60      1.0000 0.34110  0.25580  0.41170  Biso   1.000  N
  C151     1.0000 0.31850  0.30740  0.38670  Biso   1.000  C
  N61      1.0000 0.26690  0.33790  0.41200  Biso   1.000  N
  C152     1.0000 0.25130  0.38960  0.38500  Biso   1.000  C
  N62      1.0000 0.27240  0.41810  0.33680  Biso   1.000  N
  C153     1.0000 0.32020  0.38790  0.31130  Biso   1.000  C
  N63      1.0000 0.34540  0.41180  0.26050  Biso   1.000  N
  C154     1.0000 0.34530  0.33400  0.33700  Biso   1.000  C
  Zn8      1.0000 0.00672  0.50691  0.49869  Biso   1.000  Zn
  I8       1.0000 0.93107  0.55762  0.42833  Biso   1.000  I
  N64      1.0000 0.03810  0.55350  0.57080  Biso   1.000  N
  C155     1.0000 0.99620  0.56980  0.61530  Biso   1.000  C
  H85      1.0000 0.95280  0.56510  0.60880  Biso   1.000  H
  C156     1.0000 0.01780  0.59300  0.66920  Biso   1.000  C
  H86      1.0000 0.98920  0.60410  0.69960  Biso   1.000  H
  C157     1.0000 0.08130  0.59990  0.67870  Biso   1.000  C
  C158     1.0000 0.12320  0.58360  0.63420  Biso   1.000  C
  H87      1.0000 0.16660  0.58830  0.64070  Biso   1.000  H
  C159     1.0000 0.10160  0.56040  0.58030  Biso   1.000  C
  H88      1.0000 0.13020  0.54930  0.54980  Biso   1.000  H
  N65      1.0000 0.03340  0.93150  0.96120  Biso   1.000  N
  C160     1.0000 0.08370  0.90510  0.98290  Biso   1.000  C
  H89      1.0000 0.10260  0.92370  0.01680  Biso   1.000  H
  C161     1.0000 0.11100  0.85210  0.96010  Biso   1.000  C
  H90      1.0000 0.14630  0.83440  0.97890  Biso   1.000  H
  C162     1.0000 0.08630  0.82530  0.90970  Biso   1.000  C
  C163     1.0000 0.03560  0.85570  0.88140  Biso   1.000  C
  H91      1.0000 0.01900  0.84110  0.84470  Biso   1.000  H
  C164     1.0000 0.01080  0.90920  0.91070  Biso   1.000  C
  H92      1.0000 0.97630  0.92980  0.89300  Biso   1.000  H
  N66      1.0000 0.41250  0.52870  0.96250  Biso   1.000  N
  C165     1.0000 0.39450  0.51330  0.90780  Biso   1.000  C
  H93      1.0000 0.42010  0.48700  0.88410  Biso   1.000  H
  C166     1.0000 0.33870  0.53520  0.88500  Biso   1.000  C
  H94      1.0000 0.32370  0.51910  0.84830  Biso   1.000  H
  C167     1.0000 0.30570  0.57840  0.91380  Biso   1.000  C
  C168     1.0000 0.32410  0.59380  0.97180  Biso   1.000  C
  H95      1.0000 0.30110  0.62270  0.99510  Biso   1.000  H
  C169     1.0000 0.37790  0.56480  0.99430  Biso   1.000  C
  H96      1.0000 0.38920  0.57210  0.03460  Biso   1.000  H
  C170     1.0000 0.10380  0.62330  0.74040  Biso   1.000  C
  N67      1.0000 0.07660  0.67330  0.76140  Biso   1.000  N
  C171     1.0000 0.10350  0.69480  0.81060  Biso   1.000  C
  N68      1.0000 0.08140  0.74900  0.83480  Biso   1.000  N
  C172     1.0000 0.11060  0.76740  0.88280  Biso   1.000  C
  N69      1.0000 0.15890  0.74420  0.91170  Biso   1.000  N
  C173     1.0000 0.18150  0.69260  0.88670  Biso   1.000  C
  N70      1.0000 0.23310  0.66210  0.91200  Biso   1.000  N
  C174     1.0000 0.24870  0.61040  0.88500  Biso   1.000  C
  N71      1.0000 0.22760  0.58190  0.83680  Biso   1.000  N
  C175     1.0000 0.17980  0.61210  0.81130  Biso   1.000  C
  N72      1.0000 0.15460  0.58820  0.76050  Biso   1.000  N
  C176     1.0000 0.15470  0.66600  0.83700  Biso   1.000  C
