data_image0
_cell_length_a       18.0908
_cell_length_b       18.0908
_cell_length_c       24.753
_cell_angle_alpha    90
_cell_angle_beta     90
_cell_angle_gamma    120

_symmetry_space_group_name_H-M    "P 1"
_symmetry_int_tables_number       1

loop_
  _symmetry_equiv_pos_as_xyz
  'x, y, z'

loop_
  _atom_site_label
  _atom_site_occupancy
  _atom_site_fract_x
  _atom_site_fract_y
  _atom_site_fract_z
  _atom_site_thermal_displace_type
  _atom_site_B_iso_or_equiv
  _atom_site_type_symbol
  C1       1.0000 0.15610  0.20480  0.11080  Biso   1.000  C
  C2       1.0000 0.17500  0.49460  0.88530  Biso   1.000  C
  C3       1.0000 0.16720  0.58930  0.93230  Biso   1.000  C
  H1       1.0000 0.18090  0.64170  0.94760  Biso   1.000  H
  N1       1.0000 0.09750  0.51890  0.94300  Biso   1.000  N
  N2       1.0000 0.21860  0.57940  0.89630  Biso   1.000  N
  N3       1.0000 0.10040  0.45580  0.91240  Biso   1.000  N
  N4       1.0000 0.20470  0.45550  0.85370  Biso   1.000  N
  H2       1.0000 0.17550  0.40090  0.84940  Biso   1.000  H
  H3       1.0000 0.25320  0.48490  0.83760  Biso   1.000  H
  O1       1.0000 0.07900  0.16240  0.12440  Biso   1.000  O
  O2       1.0000 0.08600  0.28050  0.20510  Biso   1.000  O
  O3       1.0000 0.19490  0.28170  0.09880  Biso   1.000  O
  C4       1.0000 0.79520  0.95130  0.11080  Biso   1.000  C
  C5       1.0000 0.50540  0.68040  0.88530  Biso   1.000  C
  C6       1.0000 0.41070  0.57790  0.93230  Biso   1.000  C
  H4       1.0000 0.35830  0.53920  0.94760  Biso   1.000  H
  N5       1.0000 0.48110  0.57860  0.94300  Biso   1.000  N
  N6       1.0000 0.42060  0.63920  0.89630  Biso   1.000  N
  N7       1.0000 0.54420  0.64460  0.91240  Biso   1.000  N
  N8       1.0000 0.54450  0.74920  0.85370  Biso   1.000  N
  H5       1.0000 0.59910  0.77460  0.84940  Biso   1.000  H
  H6       1.0000 0.51510  0.76830  0.83760  Biso   1.000  H
  O4       1.0000 0.83760  0.91660  0.12440  Biso   1.000  O
  O5       1.0000 0.71950  0.80550  0.20510  Biso   1.000  O
  O6       1.0000 0.71830  0.91320  0.09880  Biso   1.000  O
  C7       1.0000 0.04870  0.84390  0.11080  Biso   1.000  C
  C8       1.0000 0.31960  0.82500  0.88530  Biso   1.000  C
  C9       1.0000 0.42210  0.83280  0.93230  Biso   1.000  C
  H7       1.0000 0.46080  0.81910  0.94760  Biso   1.000  H
  N9       1.0000 0.42140  0.90250  0.94300  Biso   1.000  N
  N10      1.0000 0.36080  0.78140  0.89630  Biso   1.000  N
  N11      1.0000 0.35540  0.89960  0.91240  Biso   1.000  N
  N12      1.0000 0.25080  0.79530  0.85370  Biso   1.000  N
  H8       1.0000 0.22540  0.82450  0.84940  Biso   1.000  H
  H9       1.0000 0.23170  0.74680  0.83760  Biso   1.000  H
  O7       1.0000 0.08340  0.92100  0.12440  Biso   1.000  O
  O8       1.0000 0.19450  0.91400  0.20510  Biso   1.000  O
  O9       1.0000 0.08680  0.80510  0.09880  Biso   1.000  O
  C10      1.0000 0.84390  0.79520  0.61080  Biso   1.000  C
  C11      1.0000 0.82500  0.50540  0.38530  Biso   1.000  C
  C12      1.0000 0.83280  0.41070  0.43230  Biso   1.000  C
  H10      1.0000 0.81910  0.35830  0.44760  Biso   1.000  H
  N13      1.0000 0.90250  0.48110  0.44300  Biso   1.000  N
  N14      1.0000 0.78140  0.42060  0.39630  Biso   1.000  N
  N15      1.0000 0.89960  0.54420  0.41240  Biso   1.000  N
  N16      1.0000 0.79530  0.54450  0.35370  Biso   1.000  N
  H11      1.0000 0.82450  0.59910  0.34940  Biso   1.000  H
  H12      1.0000 0.74680  0.51510  0.33760  Biso   1.000  H
  O10      1.0000 0.92100  0.83760  0.62440  Biso   1.000  O
  O11      1.0000 0.91400  0.71950  0.70510  Biso   1.000  O
  O12      1.0000 0.80510  0.71830  0.59880  Biso   1.000  O
  C13      1.0000 0.20480  0.04870  0.61080  Biso   1.000  C
  C14      1.0000 0.49460  0.31960  0.38530  Biso   1.000  C
  C15      1.0000 0.58930  0.42210  0.43230  Biso   1.000  C
  H13      1.0000 0.64170  0.46080  0.44760  Biso   1.000  H
  N17      1.0000 0.51890  0.42140  0.44300  Biso   1.000  N
  N18      1.0000 0.57940  0.36080  0.39630  Biso   1.000  N
  N19      1.0000 0.45580  0.35540  0.41240  Biso   1.000  N
  N20      1.0000 0.45550  0.25080  0.35370  Biso   1.000  N
  H14      1.0000 0.40090  0.22540  0.34940  Biso   1.000  H
  H15      1.0000 0.48490  0.23170  0.33760  Biso   1.000  H
  O13      1.0000 0.16240  0.08340  0.62440  Biso   1.000  O
  O14      1.0000 0.28050  0.19450  0.70510  Biso   1.000  O
  O15      1.0000 0.28170  0.08680  0.59880  Biso   1.000  O
  C16      1.0000 0.95130  0.15610  0.61080  Biso   1.000  C
  C17      1.0000 0.68040  0.17500  0.38530  Biso   1.000  C
  C18      1.0000 0.57790  0.16720  0.43230  Biso   1.000  C
  H16      1.0000 0.53920  0.18090  0.44760  Biso   1.000  H
  N21      1.0000 0.57860  0.09750  0.44300  Biso   1.000  N
  N22      1.0000 0.63920  0.21860  0.39630  Biso   1.000  N
  N23      1.0000 0.64460  0.10040  0.41240  Biso   1.000  N
  N24      1.0000 0.74920  0.20470  0.35370  Biso   1.000  N
  H17      1.0000 0.77460  0.17550  0.34940  Biso   1.000  H
  H18      1.0000 0.76830  0.25320  0.33760  Biso   1.000  H
  O16      1.0000 0.91660  0.07900  0.62440  Biso   1.000  O
  O17      1.0000 0.80550  0.08600  0.70510  Biso   1.000  O
  O18      1.0000 0.91320  0.19490  0.59880  Biso   1.000  O
  C19      1.0000 0.20480  0.15610  0.38920  Biso   1.000  C
  C20      1.0000 0.49460  0.17500  0.61470  Biso   1.000  C
  C21      1.0000 0.58930  0.16720  0.56770  Biso   1.000  C
  H19      1.0000 0.64170  0.18090  0.55240  Biso   1.000  H
  N25      1.0000 0.51890  0.09750  0.55700  Biso   1.000  N
  N26      1.0000 0.57940  0.21860  0.60370  Biso   1.000  N
  N27      1.0000 0.45580  0.10040  0.58760  Biso   1.000  N
  N28      1.0000 0.45550  0.20470  0.64630  Biso   1.000  N
  H20      1.0000 0.40090  0.17550  0.65060  Biso   1.000  H
  H21      1.0000 0.48490  0.25320  0.66240  Biso   1.000  H
  O19      1.0000 0.16240  0.07900  0.37560  Biso   1.000  O
  O20      1.0000 0.28050  0.08600  0.29490  Biso   1.000  O
  O21      1.0000 0.28170  0.19490  0.40120  Biso   1.000  O
  C22      1.0000 0.95130  0.79520  0.38920  Biso   1.000  C
  C23      1.0000 0.68040  0.50540  0.61470  Biso   1.000  C
  C24      1.0000 0.57790  0.41070  0.56770  Biso   1.000  C
  H22      1.0000 0.53920  0.35830  0.55240  Biso   1.000  H
  N29      1.0000 0.57860  0.48110  0.55700  Biso   1.000  N
  N30      1.0000 0.63920  0.42060  0.60370  Biso   1.000  N
  N31      1.0000 0.64460  0.54420  0.58760  Biso   1.000  N
  N32      1.0000 0.74920  0.54450  0.64630  Biso   1.000  N
  H23      1.0000 0.77460  0.59910  0.65060  Biso   1.000  H
  H24      1.0000 0.76830  0.51510  0.66240  Biso   1.000  H
  O22      1.0000 0.91660  0.83760  0.37560  Biso   1.000  O
  O23      1.0000 0.80550  0.71950  0.29490  Biso   1.000  O
  O24      1.0000 0.91320  0.71830  0.40120  Biso   1.000  O
  C25      1.0000 0.84390  0.04870  0.38920  Biso   1.000  C
  C26      1.0000 0.82500  0.31960  0.61470  Biso   1.000  C
  C27      1.0000 0.83280  0.42210  0.56770  Biso   1.000  C
  H25      1.0000 0.81910  0.46080  0.55240  Biso   1.000  H
  N33      1.0000 0.90250  0.42140  0.55700  Biso   1.000  N
  N34      1.0000 0.78140  0.36080  0.60370  Biso   1.000  N
  N35      1.0000 0.89960  0.35540  0.58760  Biso   1.000  N
  N36      1.0000 0.79530  0.25080  0.64630  Biso   1.000  N
  H26      1.0000 0.82450  0.22540  0.65060  Biso   1.000  H
  H27      1.0000 0.74680  0.23170  0.66240  Biso   1.000  H
  O25      1.0000 0.92100  0.08340  0.37560  Biso   1.000  O
  O26      1.0000 0.91400  0.19450  0.29490  Biso   1.000  O
  O27      1.0000 0.80510  0.08680  0.40120  Biso   1.000  O
  C28      1.0000 0.79520  0.84390  0.88920  Biso   1.000  C
  C29      1.0000 0.50540  0.82500  0.11470  Biso   1.000  C
  C30      1.0000 0.41070  0.83280  0.06770  Biso   1.000  C
  H28      1.0000 0.35830  0.81910  0.05240  Biso   1.000  H
  N37      1.0000 0.48110  0.90250  0.05700  Biso   1.000  N
  N38      1.0000 0.42060  0.78140  0.10370  Biso   1.000  N
  N39      1.0000 0.54420  0.89960  0.08760  Biso   1.000  N
  N40      1.0000 0.54450  0.79530  0.14630  Biso   1.000  N
  H29      1.0000 0.59910  0.82450  0.15060  Biso   1.000  H
  H30      1.0000 0.51510  0.74680  0.16240  Biso   1.000  H
  O28      1.0000 0.83760  0.92100  0.87560  Biso   1.000  O
  O29      1.0000 0.71950  0.91400  0.79490  Biso   1.000  O
  O30      1.0000 0.71830  0.80510  0.90120  Biso   1.000  O
  C31      1.0000 0.04870  0.20480  0.88920  Biso   1.000  C
  C32      1.0000 0.31960  0.49460  0.11470  Biso   1.000  C
  C33      1.0000 0.42210  0.58930  0.06770  Biso   1.000  C
  H31      1.0000 0.46080  0.64170  0.05240  Biso   1.000  H
  N41      1.0000 0.42140  0.51890  0.05700  Biso   1.000  N
  N42      1.0000 0.36080  0.57940  0.10370  Biso   1.000  N
  N43      1.0000 0.35540  0.45580  0.08760  Biso   1.000  N
  N44      1.0000 0.25080  0.45550  0.14630  Biso   1.000  N
  H32      1.0000 0.22540  0.40090  0.15060  Biso   1.000  H
  H33      1.0000 0.23170  0.48490  0.16240  Biso   1.000  H
  O31      1.0000 0.08340  0.16240  0.87560  Biso   1.000  O
  O32      1.0000 0.19450  0.28050  0.79490  Biso   1.000  O
  O33      1.0000 0.08680  0.28170  0.90120  Biso   1.000  O
  C34      1.0000 0.15610  0.95130  0.88920  Biso   1.000  C
  C35      1.0000 0.17500  0.68040  0.11470  Biso   1.000  C
  C36      1.0000 0.16720  0.57790  0.06770  Biso   1.000  C
  H34      1.0000 0.18090  0.53920  0.05240  Biso   1.000  H
  N45      1.0000 0.09750  0.57860  0.05700  Biso   1.000  N
  N46      1.0000 0.21860  0.63920  0.10370  Biso   1.000  N
  N47      1.0000 0.10040  0.64460  0.08760  Biso   1.000  N
  N48      1.0000 0.20470  0.74920  0.14630  Biso   1.000  N
  H35      1.0000 0.17550  0.77460  0.15060  Biso   1.000  H
  H36      1.0000 0.25320  0.76830  0.16240  Biso   1.000  H
  O34      1.0000 0.07900  0.91660  0.87560  Biso   1.000  O
  O35      1.0000 0.08600  0.80550  0.79490  Biso   1.000  O
  O36      1.0000 0.19490  0.91320  0.90120  Biso   1.000  O
  C37      1.0000 0.84390  0.79520  0.88920  Biso   1.000  C
  C38      1.0000 0.82500  0.50540  0.11470  Biso   1.000  C
  C39      1.0000 0.83280  0.41070  0.06770  Biso   1.000  C
  H37      1.0000 0.81910  0.35830  0.05240  Biso   1.000  H
  N49      1.0000 0.90250  0.48110  0.05700  Biso   1.000  N
  N50      1.0000 0.78140  0.42060  0.10370  Biso   1.000  N
  N51      1.0000 0.89960  0.54420  0.08760  Biso   1.000  N
  N52      1.0000 0.79530  0.54450  0.14630  Biso   1.000  N
  H38      1.0000 0.82450  0.59910  0.15060  Biso   1.000  H
  H39      1.0000 0.74680  0.51510  0.16240  Biso   1.000  H
  O37      1.0000 0.92100  0.83760  0.87560  Biso   1.000  O
  O38      1.0000 0.91400  0.71950  0.79490  Biso   1.000  O
  O39      1.0000 0.80510  0.71830  0.90120  Biso   1.000  O
  C40      1.0000 0.20480  0.04870  0.88920  Biso   1.000  C
  C41      1.0000 0.49460  0.31960  0.11470  Biso   1.000  C
  C42      1.0000 0.58930  0.42210  0.06770  Biso   1.000  C
  H40      1.0000 0.64170  0.46080  0.05240  Biso   1.000  H
  N53      1.0000 0.51890  0.42140  0.05700  Biso   1.000  N
  N54      1.0000 0.57940  0.36080  0.10370  Biso   1.000  N
  N55      1.0000 0.45580  0.35540  0.08760  Biso   1.000  N
  N56      1.0000 0.45550  0.25080  0.14630  Biso   1.000  N
  H41      1.0000 0.40090  0.22540  0.15060  Biso   1.000  H
  H42      1.0000 0.48490  0.23170  0.16240  Biso   1.000  H
  O40      1.0000 0.16240  0.08340  0.87560  Biso   1.000  O
  O41      1.0000 0.28050  0.19450  0.79490  Biso   1.000  O
  O42      1.0000 0.28170  0.08680  0.90120  Biso   1.000  O
  C43      1.0000 0.95130  0.15610  0.88920  Biso   1.000  C
  C44      1.0000 0.68040  0.17500  0.11470  Biso   1.000  C
  C45      1.0000 0.57790  0.16720  0.06770  Biso   1.000  C
  H43      1.0000 0.53920  0.18090  0.05240  Biso   1.000  H
  N57      1.0000 0.57860  0.09750  0.05700  Biso   1.000  N
  N58      1.0000 0.63920  0.21860  0.10370  Biso   1.000  N
  N59      1.0000 0.64460  0.10040  0.08760  Biso   1.000  N
  N60      1.0000 0.74920  0.20470  0.14630  Biso   1.000  N
  H44      1.0000 0.77460  0.17550  0.15060  Biso   1.000  H
  H45      1.0000 0.76830  0.25320  0.16240  Biso   1.000  H
  O43      1.0000 0.91660  0.07900  0.87560  Biso   1.000  O
  O44      1.0000 0.80550  0.08600  0.79490  Biso   1.000  O
  O45      1.0000 0.91320  0.19490  0.90120  Biso   1.000  O
  C46      1.0000 0.15610  0.20480  0.38920  Biso   1.000  C
  C47      1.0000 0.17500  0.49460  0.61470  Biso   1.000  C
  C48      1.0000 0.16720  0.58930  0.56770  Biso   1.000  C
  H46      1.0000 0.18090  0.64170  0.55240  Biso   1.000  H
  N61      1.0000 0.09750  0.51890  0.55700  Biso   1.000  N
  N62      1.0000 0.21860  0.57940  0.60370  Biso   1.000  N
  N63      1.0000 0.10040  0.45580  0.58760  Biso   1.000  N
  N64      1.0000 0.20470  0.45550  0.64630  Biso   1.000  N
  H47      1.0000 0.17550  0.40090  0.65060  Biso   1.000  H
  H48      1.0000 0.25320  0.48490  0.66240  Biso   1.000  H
  O46      1.0000 0.07900  0.16240  0.37560  Biso   1.000  O
  O47      1.0000 0.08600  0.28050  0.29490  Biso   1.000  O
  O48      1.0000 0.19490  0.28170  0.40120  Biso   1.000  O
  C49      1.0000 0.79520  0.95130  0.38920  Biso   1.000  C
  C50      1.0000 0.50540  0.68040  0.61470  Biso   1.000  C
  C51      1.0000 0.41070  0.57790  0.56770  Biso   1.000  C
  H49      1.0000 0.35830  0.53920  0.55240  Biso   1.000  H
  N65      1.0000 0.48110  0.57860  0.55700  Biso   1.000  N
  N66      1.0000 0.42060  0.63920  0.60370  Biso   1.000  N
  N67      1.0000 0.54420  0.64460  0.58760  Biso   1.000  N
  N68      1.0000 0.54450  0.74920  0.64630  Biso   1.000  N
  H50      1.0000 0.59910  0.77460  0.65060  Biso   1.000  H
  H51      1.0000 0.51510  0.76830  0.66240  Biso   1.000  H
  O49      1.0000 0.83760  0.91660  0.37560  Biso   1.000  O
  O50      1.0000 0.71950  0.80550  0.29490  Biso   1.000  O
  O51      1.0000 0.71830  0.91320  0.40120  Biso   1.000  O
  C52      1.0000 0.04870  0.84390  0.38920  Biso   1.000  C
  C53      1.0000 0.31960  0.82500  0.61470  Biso   1.000  C
  C54      1.0000 0.42210  0.83280  0.56770  Biso   1.000  C
  H52      1.0000 0.46080  0.81910  0.55240  Biso   1.000  H
  N69      1.0000 0.42140  0.90250  0.55700  Biso   1.000  N
  N70      1.0000 0.36080  0.78140  0.60370  Biso   1.000  N
  N71      1.0000 0.35540  0.89960  0.58760  Biso   1.000  N
  N72      1.0000 0.25080  0.79530  0.64630  Biso   1.000  N
  H53      1.0000 0.22540  0.82450  0.65060  Biso   1.000  H
  H54      1.0000 0.23170  0.74680  0.66240  Biso   1.000  H
  O52      1.0000 0.08340  0.92100  0.37560  Biso   1.000  O
  O53      1.0000 0.19450  0.91400  0.29490  Biso   1.000  O
  O54      1.0000 0.08680  0.80510  0.40120  Biso   1.000  O
  C55      1.0000 0.79520  0.84390  0.61080  Biso   1.000  C
  C56      1.0000 0.50540  0.82500  0.38530  Biso   1.000  C
  C57      1.0000 0.41070  0.83280  0.43230  Biso   1.000  C
  H55      1.0000 0.35830  0.81910  0.44760  Biso   1.000  H
  N73      1.0000 0.48110  0.90250  0.44300  Biso   1.000  N
  N74      1.0000 0.42060  0.78140  0.39630  Biso   1.000  N
  N75      1.0000 0.54420  0.89960  0.41240  Biso   1.000  N
  N76      1.0000 0.54450  0.79530  0.35370  Biso   1.000  N
  H56      1.0000 0.59910  0.82450  0.34940  Biso   1.000  H
  H57      1.0000 0.51510  0.74680  0.33760  Biso   1.000  H
  O55      1.0000 0.83760  0.92100  0.62440  Biso   1.000  O
  O56      1.0000 0.71950  0.91400  0.70510  Biso   1.000  O
  O57      1.0000 0.71830  0.80510  0.59880  Biso   1.000  O
  C58      1.0000 0.04870  0.20480  0.61080  Biso   1.000  C
  C59      1.0000 0.31960  0.49460  0.38530  Biso   1.000  C
  C60      1.0000 0.42210  0.58930  0.43230  Biso   1.000  C
  H58      1.0000 0.46080  0.64170  0.44760  Biso   1.000  H
  N77      1.0000 0.42140  0.51890  0.44300  Biso   1.000  N
  N78      1.0000 0.36080  0.57940  0.39630  Biso   1.000  N
  N79      1.0000 0.35540  0.45580  0.41240  Biso   1.000  N
  N80      1.0000 0.25080  0.45550  0.35370  Biso   1.000  N
  H59      1.0000 0.22540  0.40090  0.34940  Biso   1.000  H
  H60      1.0000 0.23170  0.48490  0.33760  Biso   1.000  H
  O58      1.0000 0.08340  0.16240  0.62440  Biso   1.000  O
  O59      1.0000 0.19450  0.28050  0.70510  Biso   1.000  O
  O60      1.0000 0.08680  0.28170  0.59880  Biso   1.000  O
  C61      1.0000 0.15610  0.95130  0.61080  Biso   1.000  C
  C62      1.0000 0.17500  0.68040  0.38530  Biso   1.000  C
  C63      1.0000 0.16720  0.57790  0.43230  Biso   1.000  C
  H61      1.0000 0.18090  0.53920  0.44760  Biso   1.000  H
  N81      1.0000 0.09750  0.57860  0.44300  Biso   1.000  N
  N82      1.0000 0.21860  0.63920  0.39630  Biso   1.000  N
  N83      1.0000 0.10040  0.64460  0.41240  Biso   1.000  N
  N84      1.0000 0.20470  0.74920  0.35370  Biso   1.000  N
  H62      1.0000 0.17550  0.77460  0.34940  Biso   1.000  H
  H63      1.0000 0.25320  0.76830  0.33760  Biso   1.000  H
  O61      1.0000 0.07900  0.91660  0.62440  Biso   1.000  O
  O62      1.0000 0.08600  0.80550  0.70510  Biso   1.000  O
  O63      1.0000 0.19490  0.91320  0.59880  Biso   1.000  O
  C64      1.0000 0.20480  0.15610  0.11080  Biso   1.000  C
  C65      1.0000 0.49460  0.17500  0.88530  Biso   1.000  C
  C66      1.0000 0.58930  0.16720  0.93230  Biso   1.000  C
  H64      1.0000 0.64170  0.18090  0.94760  Biso   1.000  H
  N85      1.0000 0.51890  0.09750  0.94300  Biso   1.000  N
  N86      1.0000 0.57940  0.21860  0.89630  Biso   1.000  N
  N87      1.0000 0.45580  0.10040  0.91240  Biso   1.000  N
  N88      1.0000 0.45550  0.20470  0.85370  Biso   1.000  N
  H65      1.0000 0.40090  0.17550  0.84940  Biso   1.000  H
  H66      1.0000 0.48490  0.25320  0.83760  Biso   1.000  H
  O64      1.0000 0.16240  0.07900  0.12440  Biso   1.000  O
  O65      1.0000 0.28050  0.08600  0.20510  Biso   1.000  O
  O66      1.0000 0.28170  0.19490  0.09880  Biso   1.000  O
  C67      1.0000 0.95130  0.79520  0.11080  Biso   1.000  C
  C68      1.0000 0.68040  0.50540  0.88530  Biso   1.000  C
  C69      1.0000 0.57790  0.41070  0.93230  Biso   1.000  C
  H67      1.0000 0.53920  0.35830  0.94760  Biso   1.000  H
  N89      1.0000 0.57860  0.48110  0.94300  Biso   1.000  N
  N90      1.0000 0.63920  0.42060  0.89630  Biso   1.000  N
  N91      1.0000 0.64460  0.54420  0.91240  Biso   1.000  N
  N92      1.0000 0.74920  0.54450  0.85370  Biso   1.000  N
  H68      1.0000 0.77460  0.59910  0.84940  Biso   1.000  H
  H69      1.0000 0.76830  0.51510  0.83760  Biso   1.000  H
  O67      1.0000 0.91660  0.83760  0.12440  Biso   1.000  O
  O68      1.0000 0.80550  0.71950  0.20510  Biso   1.000  O
  O69      1.0000 0.91320  0.71830  0.09880  Biso   1.000  O
  C70      1.0000 0.84390  0.04870  0.11080  Biso   1.000  C
  C71      1.0000 0.82500  0.31960  0.88530  Biso   1.000  C
  C72      1.0000 0.83280  0.42210  0.93230  Biso   1.000  C
  H70      1.0000 0.81910  0.46080  0.94760  Biso   1.000  H
  N93      1.0000 0.90250  0.42140  0.94300  Biso   1.000  N
  N94      1.0000 0.78140  0.36080  0.89630  Biso   1.000  N
  N95      1.0000 0.89960  0.35540  0.91240  Biso   1.000  N
  N96      1.0000 0.79530  0.25080  0.85370  Biso   1.000  N
  H71      1.0000 0.82450  0.22540  0.84940  Biso   1.000  H
  H72      1.0000 0.74680  0.23170  0.83760  Biso   1.000  H
  O70      1.0000 0.92100  0.08340  0.12440  Biso   1.000  O
  O71      1.0000 0.91400  0.19450  0.20510  Biso   1.000  O
  O72      1.0000 0.80510  0.08680  0.09880  Biso   1.000  O
  C73      1.0000 0.04910  0.26250  0.25000  Biso   1.000  C
  C74      1.0000 0.73750  0.78660  0.25000  Biso   1.000  C
  C75      1.0000 0.21340  0.95090  0.25000  Biso   1.000  C
  C76      1.0000 0.95090  0.73750  0.75000  Biso   1.000  C
  C77      1.0000 0.26250  0.21340  0.75000  Biso   1.000  C
  C78      1.0000 0.78660  0.04910  0.75000  Biso   1.000  C
  C79      1.0000 0.26250  0.04910  0.25000  Biso   1.000  C
  C80      1.0000 0.78660  0.73750  0.25000  Biso   1.000  C
  C81      1.0000 0.95090  0.21340  0.25000  Biso   1.000  C
  C82      1.0000 0.73750  0.95090  0.75000  Biso   1.000  C
  C83      1.0000 0.21340  0.26250  0.75000  Biso   1.000  C
  C84      1.0000 0.04910  0.78660  0.75000  Biso   1.000  C
  C85      1.0000 0.00000  0.26280  0.03050  Biso   1.000  C
  H73      1.0000 0.00000  0.21410  0.01810  Biso   1.000  H
  C86      1.0000 0.00000  0.35810  0.08220  Biso   1.000  C
  N97      1.0000 0.00000  0.28200  0.08300  Biso   1.000  N
  N98      1.0000 0.00000  0.32240  0.99810  Biso   1.000  N
  N99      1.0000 0.00000  0.38380  0.03260  Biso   1.000  N
  N100     1.0000 0.00000  0.39900  0.12850  Biso   1.000  N
  H74      1.0000 0.00000  0.44660  0.12680  Biso   1.000  H
  H75      1.0000 0.00000  0.37710  0.15940  Biso   1.000  H
  Cl1      1.0000 0.00000  0.33670  0.82110  Biso   1.000  Cl
  Zn1      1.0000 0.00000  0.21069  0.14329  Biso   1.000  Zn
  Zn2      1.0000 0.00000  0.33285  0.91356  Biso   1.000  Zn
  C87      1.0000 0.73720  0.73720  0.03050  Biso   1.000  C
  H76      1.0000 0.78590  0.78590  0.01810  Biso   1.000  H
  C88      1.0000 0.64190  0.64190  0.08220  Biso   1.000  C
  N101     1.0000 0.71800  0.71800  0.08300  Biso   1.000  N
  N102     1.0000 0.67760  0.67760  0.99810  Biso   1.000  N
  N103     1.0000 0.61620  0.61620  0.03260  Biso   1.000  N
  N104     1.0000 0.60100  0.60100  0.12850  Biso   1.000  N
  H77      1.0000 0.55340  0.55340  0.12680  Biso   1.000  H
  H78      1.0000 0.62290  0.62290  0.15940  Biso   1.000  H
  Cl2      1.0000 0.66330  0.66330  0.82110  Biso   1.000  Cl
  Zn3      1.0000 0.78931  0.78931  0.14329  Biso   1.000  Zn
  Zn4      1.0000 0.66715  0.66715  0.91356  Biso   1.000  Zn
  C89      1.0000 0.26280  0.00000  0.03050  Biso   1.000  C
  H79      1.0000 0.21410  0.00000  0.01810  Biso   1.000  H
  C90      1.0000 0.35810  0.00000  0.08220  Biso   1.000  C
  N105     1.0000 0.28200  0.00000  0.08300  Biso   1.000  N
  N106     1.0000 0.32240  0.00000  0.99810  Biso   1.000  N
  N107     1.0000 0.38380  0.00000  0.03260  Biso   1.000  N
  N108     1.0000 0.39900  0.00000  0.12850  Biso   1.000  N
  H80      1.0000 0.44660  0.00000  0.12680  Biso   1.000  H
  H81      1.0000 0.37710  0.00000  0.15940  Biso   1.000  H
  Cl3      1.0000 0.33670  0.00000  0.82110  Biso   1.000  Cl
  Zn5      1.0000 0.21069  0.00000  0.14329  Biso   1.000  Zn
  Zn6      1.0000 0.33285  0.00000  0.91356  Biso   1.000  Zn
  C91      1.0000 0.00000  0.73720  0.53050  Biso   1.000  C
  H82      1.0000 1.00000  0.78590  0.51810  Biso   1.000  H
  C92      1.0000 0.00000  0.64190  0.58220  Biso   1.000  C
  N109     1.0000 0.00000  0.71800  0.58300  Biso   1.000  N
  N110     1.0000 0.00000  0.67760  0.49810  Biso   1.000  N
  N111     1.0000 0.00000  0.61620  0.53260  Biso   1.000  N
  N112     1.0000 0.00000  0.60100  0.62850  Biso   1.000  N
  H83      1.0000 0.00000  0.55340  0.62680  Biso   1.000  H
  H84      1.0000 0.00000  0.62290  0.65940  Biso   1.000  H
  Cl4      1.0000 0.00000  0.66330  0.32110  Biso   1.000  Cl
  Zn7      1.0000 0.00000  0.78931  0.64329  Biso   1.000  Zn
  Zn8      1.0000 0.00000  0.66715  0.41356  Biso   1.000  Zn
  C93      1.0000 0.26280  0.26280  0.53050  Biso   1.000  C
  H85      1.0000 0.21410  0.21410  0.51810  Biso   1.000  H
  C94      1.0000 0.35810  0.35810  0.58220  Biso   1.000  C
  N113     1.0000 0.28200  0.28200  0.58300  Biso   1.000  N
  N114     1.0000 0.32240  0.32240  0.49810  Biso   1.000  N
  N115     1.0000 0.38380  0.38380  0.53260  Biso   1.000  N
  N116     1.0000 0.39900  0.39900  0.62850  Biso   1.000  N
  H86      1.0000 0.44660  0.44660  0.62680  Biso   1.000  H
  H87      1.0000 0.37710  0.37710  0.65940  Biso   1.000  H
  Cl5      1.0000 0.33670  0.33670  0.32110  Biso   1.000  Cl
  Zn9      1.0000 0.21069  0.21069  0.64329  Biso   1.000  Zn
  Zn10     1.0000 0.33285  0.33285  0.41356  Biso   1.000  Zn
  C95      1.0000 0.73720  0.00000  0.53050  Biso   1.000  C
  H88      1.0000 0.78590  0.00000  0.51810  Biso   1.000  H
  C96      1.0000 0.64190  0.00000  0.58220  Biso   1.000  C
  N117     1.0000 0.71800  0.00000  0.58300  Biso   1.000  N
  N118     1.0000 0.67760  0.00000  0.49810  Biso   1.000  N
  N119     1.0000 0.61620  0.00000  0.53260  Biso   1.000  N
  N120     1.0000 0.60100  0.00000  0.62850  Biso   1.000  N
  H89      1.0000 0.55340  0.00000  0.62680  Biso   1.000  H
  H90      1.0000 0.62290  0.00000  0.65940  Biso   1.000  H
  Cl6      1.0000 0.66330  0.00000  0.32110  Biso   1.000  Cl
  Zn11     1.0000 0.78931  0.00000  0.64329  Biso   1.000  Zn
  Zn12     1.0000 0.66715  0.00000  0.41356  Biso   1.000  Zn
  C97      1.0000 0.26280  0.00000  0.46950  Biso   1.000  C
  H91      1.0000 0.21410  0.00000  0.48190  Biso   1.000  H
  C98      1.0000 0.35810  0.00000  0.41780  Biso   1.000  C
  N121     1.0000 0.28200  0.00000  0.41700  Biso   1.000  N
  N122     1.0000 0.32240  0.00000  0.50190  Biso   1.000  N
  N123     1.0000 0.38380  0.00000  0.46740  Biso   1.000  N
  N124     1.0000 0.39900  0.00000  0.37150  Biso   1.000  N
  H92      1.0000 0.44660  0.00000  0.37320  Biso   1.000  H
  H93      1.0000 0.37710  0.00000  0.34060  Biso   1.000  H
  Cl7      1.0000 0.33670  0.00000  0.67890  Biso   1.000  Cl
  Zn13     1.0000 0.21069  0.00000  0.35671  Biso   1.000  Zn
  Zn14     1.0000 0.33285  0.00000  0.58644  Biso   1.000  Zn
  C99      1.0000 0.73720  0.73720  0.46950  Biso   1.000  C
  H94      1.0000 0.78590  0.78590  0.48190  Biso   1.000  H
  C100     1.0000 0.64190  0.64190  0.41780  Biso   1.000  C
  N125     1.0000 0.71800  0.71800  0.41700  Biso   1.000  N
  N126     1.0000 0.67760  0.67760  0.50190  Biso   1.000  N
  N127     1.0000 0.61620  0.61620  0.46740  Biso   1.000  N
  N128     1.0000 0.60100  0.60100  0.37150  Biso   1.000  N
  H95      1.0000 0.55340  0.55340  0.37320  Biso   1.000  H
  H96      1.0000 0.62290  0.62290  0.34060  Biso   1.000  H
  Cl8      1.0000 0.66330  0.66330  0.67890  Biso   1.000  Cl
  Zn15     1.0000 0.78931  0.78931  0.35671  Biso   1.000  Zn
  Zn16     1.0000 0.66715  0.66715  0.58644  Biso   1.000  Zn
  C101     1.0000 0.00000  0.26280  0.46950  Biso   1.000  C
  H97      1.0000 0.00000  0.21410  0.48190  Biso   1.000  H
  C102     1.0000 0.00000  0.35810  0.41780  Biso   1.000  C
  N129     1.0000 0.00000  0.28200  0.41700  Biso   1.000  N
  N130     1.0000 0.00000  0.32240  0.50190  Biso   1.000  N
  N131     1.0000 0.00000  0.38380  0.46740  Biso   1.000  N
  N132     1.0000 0.00000  0.39900  0.37150  Biso   1.000  N
  H98      1.0000 0.00000  0.44660  0.37320  Biso   1.000  H
  H99      1.0000 0.00000  0.37710  0.34060  Biso   1.000  H
  Cl9      1.0000 0.00000  0.33670  0.67890  Biso   1.000  Cl
  Zn17     1.0000 0.00000  0.21069  0.35671  Biso   1.000  Zn
  Zn18     1.0000 0.00000  0.33285  0.58644  Biso   1.000  Zn
  C103     1.0000 0.73720  0.00000  0.96950  Biso   1.000  C
  H100     1.0000 0.78590  0.00000  0.98190  Biso   1.000  H
  C104     1.0000 0.64190  0.00000  0.91780  Biso   1.000  C
  N133     1.0000 0.71800  0.00000  0.91700  Biso   1.000  N
  N134     1.0000 0.67760  0.00000  0.00190  Biso   1.000  N
  N135     1.0000 0.61620  0.00000  0.96740  Biso   1.000  N
  N136     1.0000 0.60100  0.00000  0.87150  Biso   1.000  N
  H101     1.0000 0.55340  0.00000  0.87320  Biso   1.000  H
  H102     1.0000 0.62290  0.00000  0.84060  Biso   1.000  H
  Cl10     1.0000 0.66330  0.00000  0.17890  Biso   1.000  Cl
  Zn19     1.0000 0.78931  0.00000  0.85671  Biso   1.000  Zn
  Zn20     1.0000 0.66715  0.00000  0.08644  Biso   1.000  Zn
  C105     1.0000 0.26280  0.26280  0.96950  Biso   1.000  C
  H103     1.0000 0.21410  0.21410  0.98190  Biso   1.000  H
  C106     1.0000 0.35810  0.35810  0.91780  Biso   1.000  C
  N137     1.0000 0.28200  0.28200  0.91700  Biso   1.000  N
  N138     1.0000 0.32240  0.32240  0.00190  Biso   1.000  N
  N139     1.0000 0.38380  0.38380  0.96740  Biso   1.000  N
  N140     1.0000 0.39900  0.39900  0.87150  Biso   1.000  N
  H104     1.0000 0.44660  0.44660  0.87320  Biso   1.000  H
  H105     1.0000 0.37710  0.37710  0.84060  Biso   1.000  H
  Cl11     1.0000 0.33670  0.33670  0.17890  Biso   1.000  Cl
  Zn21     1.0000 0.21069  0.21069  0.85671  Biso   1.000  Zn
  Zn22     1.0000 0.33285  0.33285  0.08644  Biso   1.000  Zn
  C107     1.0000 0.00000  0.73720  0.96950  Biso   1.000  C
  H106     1.0000 1.00000  0.78590  0.98190  Biso   1.000  H
  C108     1.0000 0.00000  0.64190  0.91780  Biso   1.000  C
  N141     1.0000 0.00000  0.71800  0.91700  Biso   1.000  N
  N142     1.0000 0.00000  0.67760  0.00190  Biso   1.000  N
  N143     1.0000 0.00000  0.61620  0.96740  Biso   1.000  N
  N144     1.0000 0.00000  0.60100  0.87150  Biso   1.000  N
  H107     1.0000 0.00000  0.55340  0.87320  Biso   1.000  H
  H108     1.0000 0.00000  0.62290  0.84060  Biso   1.000  H
  Cl12     1.0000 0.00000  0.66330  0.17890  Biso   1.000  Cl
  Zn23     1.0000 0.00000  0.78931  0.85671  Biso   1.000  Zn
  Zn24     1.0000 0.00000  0.66715  0.08644  Biso   1.000  Zn
  Cl13     1.0000 0.00000  0.00000  0.25000  Biso   1.000  Cl
  Cl14     1.0000 0.00000  0.00000  0.75000  Biso   1.000  Cl
  Cl15     1.0000 0.00000  0.00000  0.00000  Biso   1.000  Cl
  Cl16     1.0000 0.00000  0.00000  0.50000  Biso   1.000  Cl
  Tb1      1.0000 0.00000  0.00000  0.12452  Biso   1.000  Tb
  Tb2      1.0000 0.00000  0.00000  0.62452  Biso   1.000  Tb
  Tb3      1.0000 0.00000  0.00000  0.37548  Biso   1.000  Tb
  Tb4      1.0000 0.00000  0.00000  0.87548  Biso   1.000  Tb
  Zn25     1.0000 0.00000  0.50000  0.00000  Biso   1.000  Zn
  Zn26     1.0000 0.50000  0.50000  0.00000  Biso   1.000  Zn
  Zn27     1.0000 0.50000  0.00000  0.00000  Biso   1.000  Zn
  Zn28     1.0000 0.00000  0.50000  0.50000  Biso   1.000  Zn
  Zn29     1.0000 0.50000  0.50000  0.50000  Biso   1.000  Zn
  Zn30     1.0000 0.50000  0.00000  0.50000  Biso   1.000  Zn
  Zn31     1.0000 0.33333  0.66667  0.87266  Biso   1.000  Zn
  Zn32     1.0000 0.66667  0.33333  0.37266  Biso   1.000  Zn
  Zn33     1.0000 0.66667  0.33333  0.62734  Biso   1.000  Zn
  Zn34     1.0000 0.33333  0.66667  0.12734  Biso   1.000  Zn
  Zn35     1.0000 0.66667  0.33333  0.12734  Biso   1.000  Zn
  Zn36     1.0000 0.33333  0.66667  0.62734  Biso   1.000  Zn
  Zn37     1.0000 0.33333  0.66667  0.37266  Biso   1.000  Zn
  Zn38     1.0000 0.66667  0.33333  0.87266  Biso   1.000  Zn
