data_image0
_cell_length_a       18.1152
_cell_length_b       18.1152
_cell_length_c       24.8515
_cell_angle_alpha    90
_cell_angle_beta     90
_cell_angle_gamma    120

_symmetry_space_group_name_H-M    "P 1"
_symmetry_int_tables_number       1

loop_
  _symmetry_equiv_pos_as_xyz
  'x, y, z'

loop_
  _atom_site_label
  _atom_site_occupancy
  _atom_site_fract_x
  _atom_site_fract_y
  _atom_site_fract_z
  _atom_site_thermal_displace_type
  _atom_site_B_iso_or_equiv
  _atom_site_type_symbol
  C1       1.0000 0.15640  0.20560  0.11090  Biso   1.000  C
  C2       1.0000 0.17480  0.49460  0.88490  Biso   1.000  C
  C3       1.0000 0.16710  0.58910  0.93220  Biso   1.000  C
  H1       1.0000 0.18120  0.64130  0.94800  Biso   1.000  H
  N1       1.0000 0.09760  0.51900  0.94270  Biso   1.000  N
  N2       1.0000 0.21790  0.57950  0.89580  Biso   1.000  N
  N3       1.0000 0.10050  0.45620  0.91310  Biso   1.000  N
  N4       1.0000 0.20410  0.45600  0.85300  Biso   1.000  N
  H2       1.0000 0.25330  0.48520  0.83780  Biso   1.000  H
  H3       1.0000 0.17380  0.40170  0.84740  Biso   1.000  H
  O1       1.0000 0.07920  0.16270  0.12420  Biso   1.000  O
  O2       1.0000 0.08560  0.28090  0.20550  Biso   1.000  O
  O3       1.0000 0.19560  0.28200  0.09880  Biso   1.000  O
  C4       1.0000 0.79440  0.95080  0.11090  Biso   1.000  C
  C5       1.0000 0.50540  0.68020  0.88490  Biso   1.000  C
  C6       1.0000 0.41090  0.57800  0.93220  Biso   1.000  C
  H4       1.0000 0.35870  0.53990  0.94800  Biso   1.000  H
  N5       1.0000 0.48100  0.57860  0.94270  Biso   1.000  N
  N6       1.0000 0.42050  0.63840  0.89580  Biso   1.000  N
  N7       1.0000 0.54380  0.64430  0.91310  Biso   1.000  N
  N8       1.0000 0.54400  0.74810  0.85300  Biso   1.000  N
  H5       1.0000 0.51480  0.76810  0.83780  Biso   1.000  H
  H6       1.0000 0.59830  0.77210  0.84740  Biso   1.000  H
  O4       1.0000 0.83730  0.91650  0.12420  Biso   1.000  O
  O5       1.0000 0.71910  0.80470  0.20550  Biso   1.000  O
  O6       1.0000 0.71800  0.91360  0.09880  Biso   1.000  O
  C7       1.0000 0.04920  0.84360  0.11090  Biso   1.000  C
  C8       1.0000 0.31980  0.82520  0.88490  Biso   1.000  C
  C9       1.0000 0.42200  0.83290  0.93220  Biso   1.000  C
  H7       1.0000 0.46010  0.81880  0.94800  Biso   1.000  H
  N9       1.0000 0.42140  0.90240  0.94270  Biso   1.000  N
  N10      1.0000 0.36160  0.78210  0.89580  Biso   1.000  N
  N11      1.0000 0.35570  0.89950  0.91310  Biso   1.000  N
  N12      1.0000 0.25190  0.79590  0.85300  Biso   1.000  N
  H8       1.0000 0.23190  0.74670  0.83780  Biso   1.000  H
  H9       1.0000 0.22790  0.82620  0.84740  Biso   1.000  H
  O7       1.0000 0.08350  0.92080  0.12420  Biso   1.000  O
  O8       1.0000 0.19530  0.91440  0.20550  Biso   1.000  O
  O9       1.0000 0.08640  0.80440  0.09880  Biso   1.000  O
  C10      1.0000 0.84360  0.79440  0.61090  Biso   1.000  C
  C11      1.0000 0.82520  0.50540  0.38490  Biso   1.000  C
  C12      1.0000 0.83290  0.41090  0.43220  Biso   1.000  C
  H10      1.0000 0.81880  0.35870  0.44800  Biso   1.000  H
  N13      1.0000 0.90240  0.48100  0.44270  Biso   1.000  N
  N14      1.0000 0.78210  0.42050  0.39580  Biso   1.000  N
  N15      1.0000 0.89950  0.54380  0.41310  Biso   1.000  N
  N16      1.0000 0.79590  0.54400  0.35300  Biso   1.000  N
  H11      1.0000 0.74670  0.51480  0.33780  Biso   1.000  H
  H12      1.0000 0.82620  0.59830  0.34740  Biso   1.000  H
  O10      1.0000 0.92080  0.83730  0.62420  Biso   1.000  O
  O11      1.0000 0.91440  0.71910  0.70550  Biso   1.000  O
  O12      1.0000 0.80440  0.71800  0.59880  Biso   1.000  O
  C13      1.0000 0.20560  0.04920  0.61090  Biso   1.000  C
  C14      1.0000 0.49460  0.31980  0.38490  Biso   1.000  C
  C15      1.0000 0.58910  0.42200  0.43220  Biso   1.000  C
  H13      1.0000 0.64130  0.46010  0.44800  Biso   1.000  H
  N17      1.0000 0.51900  0.42140  0.44270  Biso   1.000  N
  N18      1.0000 0.57950  0.36160  0.39580  Biso   1.000  N
  N19      1.0000 0.45620  0.35570  0.41310  Biso   1.000  N
  N20      1.0000 0.45600  0.25190  0.35300  Biso   1.000  N
  H14      1.0000 0.48520  0.23190  0.33780  Biso   1.000  H
  H15      1.0000 0.40170  0.22790  0.34740  Biso   1.000  H
  O13      1.0000 0.16270  0.08350  0.62420  Biso   1.000  O
  O14      1.0000 0.28090  0.19530  0.70550  Biso   1.000  O
  O15      1.0000 0.28200  0.08640  0.59880  Biso   1.000  O
  C16      1.0000 0.95080  0.15640  0.61090  Biso   1.000  C
  C17      1.0000 0.68020  0.17480  0.38490  Biso   1.000  C
  C18      1.0000 0.57800  0.16710  0.43220  Biso   1.000  C
  H16      1.0000 0.53990  0.18120  0.44800  Biso   1.000  H
  N21      1.0000 0.57860  0.09760  0.44270  Biso   1.000  N
  N22      1.0000 0.63840  0.21790  0.39580  Biso   1.000  N
  N23      1.0000 0.64430  0.10050  0.41310  Biso   1.000  N
  N24      1.0000 0.74810  0.20410  0.35300  Biso   1.000  N
  H17      1.0000 0.76810  0.25330  0.33780  Biso   1.000  H
  H18      1.0000 0.77210  0.17380  0.34740  Biso   1.000  H
  O16      1.0000 0.91650  0.07920  0.62420  Biso   1.000  O
  O17      1.0000 0.80470  0.08560  0.70550  Biso   1.000  O
  O18      1.0000 0.91360  0.19560  0.59880  Biso   1.000  O
  C19      1.0000 0.20560  0.15640  0.38910  Biso   1.000  C
  C20      1.0000 0.49460  0.17480  0.61510  Biso   1.000  C
  C21      1.0000 0.58910  0.16710  0.56780  Biso   1.000  C
  H19      1.0000 0.64130  0.18120  0.55200  Biso   1.000  H
  N25      1.0000 0.51900  0.09760  0.55730  Biso   1.000  N
  N26      1.0000 0.57950  0.21790  0.60420  Biso   1.000  N
  N27      1.0000 0.45620  0.10050  0.58690  Biso   1.000  N
  N28      1.0000 0.45600  0.20410  0.64700  Biso   1.000  N
  H20      1.0000 0.48520  0.25330  0.66220  Biso   1.000  H
  H21      1.0000 0.40170  0.17380  0.65260  Biso   1.000  H
  O19      1.0000 0.16270  0.07920  0.37580  Biso   1.000  O
  O20      1.0000 0.28090  0.08560  0.29450  Biso   1.000  O
  O21      1.0000 0.28200  0.19560  0.40120  Biso   1.000  O
  C22      1.0000 0.95080  0.79440  0.38910  Biso   1.000  C
  C23      1.0000 0.68020  0.50540  0.61510  Biso   1.000  C
  C24      1.0000 0.57800  0.41090  0.56780  Biso   1.000  C
  H22      1.0000 0.53990  0.35870  0.55200  Biso   1.000  H
  N29      1.0000 0.57860  0.48100  0.55730  Biso   1.000  N
  N30      1.0000 0.63840  0.42050  0.60420  Biso   1.000  N
  N31      1.0000 0.64430  0.54380  0.58690  Biso   1.000  N
  N32      1.0000 0.74810  0.54400  0.64700  Biso   1.000  N
  H23      1.0000 0.76810  0.51480  0.66220  Biso   1.000  H
  H24      1.0000 0.77210  0.59830  0.65260  Biso   1.000  H
  O22      1.0000 0.91650  0.83730  0.37580  Biso   1.000  O
  O23      1.0000 0.80470  0.71910  0.29450  Biso   1.000  O
  O24      1.0000 0.91360  0.71800  0.40120  Biso   1.000  O
  C25      1.0000 0.84360  0.04920  0.38910  Biso   1.000  C
  C26      1.0000 0.82520  0.31980  0.61510  Biso   1.000  C
  C27      1.0000 0.83290  0.42200  0.56780  Biso   1.000  C
  H25      1.0000 0.81880  0.46010  0.55200  Biso   1.000  H
  N33      1.0000 0.90240  0.42140  0.55730  Biso   1.000  N
  N34      1.0000 0.78210  0.36160  0.60420  Biso   1.000  N
  N35      1.0000 0.89950  0.35570  0.58690  Biso   1.000  N
  N36      1.0000 0.79590  0.25190  0.64700  Biso   1.000  N
  H26      1.0000 0.74670  0.23190  0.66220  Biso   1.000  H
  H27      1.0000 0.82620  0.22790  0.65260  Biso   1.000  H
  O25      1.0000 0.92080  0.08350  0.37580  Biso   1.000  O
  O26      1.0000 0.91440  0.19530  0.29450  Biso   1.000  O
  O27      1.0000 0.80440  0.08640  0.40120  Biso   1.000  O
  C28      1.0000 0.79440  0.84360  0.88910  Biso   1.000  C
  C29      1.0000 0.50540  0.82520  0.11510  Biso   1.000  C
  C30      1.0000 0.41090  0.83290  0.06780  Biso   1.000  C
  H28      1.0000 0.35870  0.81880  0.05200  Biso   1.000  H
  N37      1.0000 0.48100  0.90240  0.05730  Biso   1.000  N
  N38      1.0000 0.42050  0.78210  0.10420  Biso   1.000  N
  N39      1.0000 0.54380  0.89950  0.08690  Biso   1.000  N
  N40      1.0000 0.54400  0.79590  0.14700  Biso   1.000  N
  H29      1.0000 0.51480  0.74670  0.16220  Biso   1.000  H
  H30      1.0000 0.59830  0.82620  0.15260  Biso   1.000  H
  O28      1.0000 0.83730  0.92080  0.87580  Biso   1.000  O
  O29      1.0000 0.71910  0.91440  0.79450  Biso   1.000  O
  O30      1.0000 0.71800  0.80440  0.90120  Biso   1.000  O
  C31      1.0000 0.04920  0.20560  0.88910  Biso   1.000  C
  C32      1.0000 0.31980  0.49460  0.11510  Biso   1.000  C
  C33      1.0000 0.42200  0.58910  0.06780  Biso   1.000  C
  H31      1.0000 0.46010  0.64130  0.05200  Biso   1.000  H
  N41      1.0000 0.42140  0.51900  0.05730  Biso   1.000  N
  N42      1.0000 0.36160  0.57950  0.10420  Biso   1.000  N
  N43      1.0000 0.35570  0.45620  0.08690  Biso   1.000  N
  N44      1.0000 0.25190  0.45600  0.14700  Biso   1.000  N
  H32      1.0000 0.23190  0.48520  0.16220  Biso   1.000  H
  H33      1.0000 0.22790  0.40170  0.15260  Biso   1.000  H
  O31      1.0000 0.08350  0.16270  0.87580  Biso   1.000  O
  O32      1.0000 0.19530  0.28090  0.79450  Biso   1.000  O
  O33      1.0000 0.08640  0.28200  0.90120  Biso   1.000  O
  C34      1.0000 0.15640  0.95080  0.88910  Biso   1.000  C
  C35      1.0000 0.17480  0.68020  0.11510  Biso   1.000  C
  C36      1.0000 0.16710  0.57800  0.06780  Biso   1.000  C
  H34      1.0000 0.18120  0.53990  0.05200  Biso   1.000  H
  N45      1.0000 0.09760  0.57860  0.05730  Biso   1.000  N
  N46      1.0000 0.21790  0.63840  0.10420  Biso   1.000  N
  N47      1.0000 0.10050  0.64430  0.08690  Biso   1.000  N
  N48      1.0000 0.20410  0.74810  0.14700  Biso   1.000  N
  H35      1.0000 0.25330  0.76810  0.16220  Biso   1.000  H
  H36      1.0000 0.17380  0.77210  0.15260  Biso   1.000  H
  O34      1.0000 0.07920  0.91650  0.87580  Biso   1.000  O
  O35      1.0000 0.08560  0.80470  0.79450  Biso   1.000  O
  O36      1.0000 0.19560  0.91360  0.90120  Biso   1.000  O
  C37      1.0000 0.84360  0.79440  0.88910  Biso   1.000  C
  C38      1.0000 0.82520  0.50540  0.11510  Biso   1.000  C
  C39      1.0000 0.83290  0.41090  0.06780  Biso   1.000  C
  H37      1.0000 0.81880  0.35870  0.05200  Biso   1.000  H
  N49      1.0000 0.90240  0.48100  0.05730  Biso   1.000  N
  N50      1.0000 0.78210  0.42050  0.10420  Biso   1.000  N
  N51      1.0000 0.89950  0.54380  0.08690  Biso   1.000  N
  N52      1.0000 0.79590  0.54400  0.14700  Biso   1.000  N
  H38      1.0000 0.74670  0.51480  0.16220  Biso   1.000  H
  H39      1.0000 0.82620  0.59830  0.15260  Biso   1.000  H
  O37      1.0000 0.92080  0.83730  0.87580  Biso   1.000  O
  O38      1.0000 0.91440  0.71910  0.79450  Biso   1.000  O
  O39      1.0000 0.80440  0.71800  0.90120  Biso   1.000  O
  C40      1.0000 0.20560  0.04920  0.88910  Biso   1.000  C
  C41      1.0000 0.49460  0.31980  0.11510  Biso   1.000  C
  C42      1.0000 0.58910  0.42200  0.06780  Biso   1.000  C
  H40      1.0000 0.64130  0.46010  0.05200  Biso   1.000  H
  N53      1.0000 0.51900  0.42140  0.05730  Biso   1.000  N
  N54      1.0000 0.57950  0.36160  0.10420  Biso   1.000  N
  N55      1.0000 0.45620  0.35570  0.08690  Biso   1.000  N
  N56      1.0000 0.45600  0.25190  0.14700  Biso   1.000  N
  H41      1.0000 0.48520  0.23190  0.16220  Biso   1.000  H
  H42      1.0000 0.40170  0.22790  0.15260  Biso   1.000  H
  O40      1.0000 0.16270  0.08350  0.87580  Biso   1.000  O
  O41      1.0000 0.28090  0.19530  0.79450  Biso   1.000  O
  O42      1.0000 0.28200  0.08640  0.90120  Biso   1.000  O
  C43      1.0000 0.95080  0.15640  0.88910  Biso   1.000  C
  C44      1.0000 0.68020  0.17480  0.11510  Biso   1.000  C
  C45      1.0000 0.57800  0.16710  0.06780  Biso   1.000  C
  H43      1.0000 0.53990  0.18120  0.05200  Biso   1.000  H
  N57      1.0000 0.57860  0.09760  0.05730  Biso   1.000  N
  N58      1.0000 0.63840  0.21790  0.10420  Biso   1.000  N
  N59      1.0000 0.64430  0.10050  0.08690  Biso   1.000  N
  N60      1.0000 0.74810  0.20410  0.14700  Biso   1.000  N
  H44      1.0000 0.76810  0.25330  0.16220  Biso   1.000  H
  H45      1.0000 0.77210  0.17380  0.15260  Biso   1.000  H
  O43      1.0000 0.91650  0.07920  0.87580  Biso   1.000  O
  O44      1.0000 0.80470  0.08560  0.79450  Biso   1.000  O
  O45      1.0000 0.91360  0.19560  0.90120  Biso   1.000  O
  C46      1.0000 0.15640  0.20560  0.38910  Biso   1.000  C
  C47      1.0000 0.17480  0.49460  0.61510  Biso   1.000  C
  C48      1.0000 0.16710  0.58910  0.56780  Biso   1.000  C
  H46      1.0000 0.18120  0.64130  0.55200  Biso   1.000  H
  N61      1.0000 0.09760  0.51900  0.55730  Biso   1.000  N
  N62      1.0000 0.21790  0.57950  0.60420  Biso   1.000  N
  N63      1.0000 0.10050  0.45620  0.58690  Biso   1.000  N
  N64      1.0000 0.20410  0.45600  0.64700  Biso   1.000  N
  H47      1.0000 0.25330  0.48520  0.66220  Biso   1.000  H
  H48      1.0000 0.17380  0.40170  0.65260  Biso   1.000  H
  O46      1.0000 0.07920  0.16270  0.37580  Biso   1.000  O
  O47      1.0000 0.08560  0.28090  0.29450  Biso   1.000  O
  O48      1.0000 0.19560  0.28200  0.40120  Biso   1.000  O
  C49      1.0000 0.79440  0.95080  0.38910  Biso   1.000  C
  C50      1.0000 0.50540  0.68020  0.61510  Biso   1.000  C
  C51      1.0000 0.41090  0.57800  0.56780  Biso   1.000  C
  H49      1.0000 0.35870  0.53990  0.55200  Biso   1.000  H
  N65      1.0000 0.48100  0.57860  0.55730  Biso   1.000  N
  N66      1.0000 0.42050  0.63840  0.60420  Biso   1.000  N
  N67      1.0000 0.54380  0.64430  0.58690  Biso   1.000  N
  N68      1.0000 0.54400  0.74810  0.64700  Biso   1.000  N
  H50      1.0000 0.51480  0.76810  0.66220  Biso   1.000  H
  H51      1.0000 0.59830  0.77210  0.65260  Biso   1.000  H
  O49      1.0000 0.83730  0.91650  0.37580  Biso   1.000  O
  O50      1.0000 0.71910  0.80470  0.29450  Biso   1.000  O
  O51      1.0000 0.71800  0.91360  0.40120  Biso   1.000  O
  C52      1.0000 0.04920  0.84360  0.38910  Biso   1.000  C
  C53      1.0000 0.31980  0.82520  0.61510  Biso   1.000  C
  C54      1.0000 0.42200  0.83290  0.56780  Biso   1.000  C
  H52      1.0000 0.46010  0.81880  0.55200  Biso   1.000  H
  N69      1.0000 0.42140  0.90240  0.55730  Biso   1.000  N
  N70      1.0000 0.36160  0.78210  0.60420  Biso   1.000  N
  N71      1.0000 0.35570  0.89950  0.58690  Biso   1.000  N
  N72      1.0000 0.25190  0.79590  0.64700  Biso   1.000  N
  H53      1.0000 0.23190  0.74670  0.66220  Biso   1.000  H
  H54      1.0000 0.22790  0.82620  0.65260  Biso   1.000  H
  O52      1.0000 0.08350  0.92080  0.37580  Biso   1.000  O
  O53      1.0000 0.19530  0.91440  0.29450  Biso   1.000  O
  O54      1.0000 0.08640  0.80440  0.40120  Biso   1.000  O
  C55      1.0000 0.79440  0.84360  0.61090  Biso   1.000  C
  C56      1.0000 0.50540  0.82520  0.38490  Biso   1.000  C
  C57      1.0000 0.41090  0.83290  0.43220  Biso   1.000  C
  H55      1.0000 0.35870  0.81880  0.44800  Biso   1.000  H
  N73      1.0000 0.48100  0.90240  0.44270  Biso   1.000  N
  N74      1.0000 0.42050  0.78210  0.39580  Biso   1.000  N
  N75      1.0000 0.54380  0.89950  0.41310  Biso   1.000  N
  N76      1.0000 0.54400  0.79590  0.35300  Biso   1.000  N
  H56      1.0000 0.51480  0.74670  0.33780  Biso   1.000  H
  H57      1.0000 0.59830  0.82620  0.34740  Biso   1.000  H
  O55      1.0000 0.83730  0.92080  0.62420  Biso   1.000  O
  O56      1.0000 0.71910  0.91440  0.70550  Biso   1.000  O
  O57      1.0000 0.71800  0.80440  0.59880  Biso   1.000  O
  C58      1.0000 0.04920  0.20560  0.61090  Biso   1.000  C
  C59      1.0000 0.31980  0.49460  0.38490  Biso   1.000  C
  C60      1.0000 0.42200  0.58910  0.43220  Biso   1.000  C
  H58      1.0000 0.46010  0.64130  0.44800  Biso   1.000  H
  N77      1.0000 0.42140  0.51900  0.44270  Biso   1.000  N
  N78      1.0000 0.36160  0.57950  0.39580  Biso   1.000  N
  N79      1.0000 0.35570  0.45620  0.41310  Biso   1.000  N
  N80      1.0000 0.25190  0.45600  0.35300  Biso   1.000  N
  H59      1.0000 0.23190  0.48520  0.33780  Biso   1.000  H
  H60      1.0000 0.22790  0.40170  0.34740  Biso   1.000  H
  O58      1.0000 0.08350  0.16270  0.62420  Biso   1.000  O
  O59      1.0000 0.19530  0.28090  0.70550  Biso   1.000  O
  O60      1.0000 0.08640  0.28200  0.59880  Biso   1.000  O
  C61      1.0000 0.15640  0.95080  0.61090  Biso   1.000  C
  C62      1.0000 0.17480  0.68020  0.38490  Biso   1.000  C
  C63      1.0000 0.16710  0.57800  0.43220  Biso   1.000  C
  H61      1.0000 0.18120  0.53990  0.44800  Biso   1.000  H
  N81      1.0000 0.09760  0.57860  0.44270  Biso   1.000  N
  N82      1.0000 0.21790  0.63840  0.39580  Biso   1.000  N
  N83      1.0000 0.10050  0.64430  0.41310  Biso   1.000  N
  N84      1.0000 0.20410  0.74810  0.35300  Biso   1.000  N
  H62      1.0000 0.25330  0.76810  0.33780  Biso   1.000  H
  H63      1.0000 0.17380  0.77210  0.34740  Biso   1.000  H
  O61      1.0000 0.07920  0.91650  0.62420  Biso   1.000  O
  O62      1.0000 0.08560  0.80470  0.70550  Biso   1.000  O
  O63      1.0000 0.19560  0.91360  0.59880  Biso   1.000  O
  C64      1.0000 0.20560  0.15640  0.11090  Biso   1.000  C
  C65      1.0000 0.49460  0.17480  0.88490  Biso   1.000  C
  C66      1.0000 0.58910  0.16710  0.93220  Biso   1.000  C
  H64      1.0000 0.64130  0.18120  0.94800  Biso   1.000  H
  N85      1.0000 0.51900  0.09760  0.94270  Biso   1.000  N
  N86      1.0000 0.57950  0.21790  0.89580  Biso   1.000  N
  N87      1.0000 0.45620  0.10050  0.91310  Biso   1.000  N
  N88      1.0000 0.45600  0.20410  0.85300  Biso   1.000  N
  H65      1.0000 0.48520  0.25330  0.83780  Biso   1.000  H
  H66      1.0000 0.40170  0.17380  0.84740  Biso   1.000  H
  O64      1.0000 0.16270  0.07920  0.12420  Biso   1.000  O
  O65      1.0000 0.28090  0.08560  0.20550  Biso   1.000  O
  O66      1.0000 0.28200  0.19560  0.09880  Biso   1.000  O
  C67      1.0000 0.95080  0.79440  0.11090  Biso   1.000  C
  C68      1.0000 0.68020  0.50540  0.88490  Biso   1.000  C
  C69      1.0000 0.57800  0.41090  0.93220  Biso   1.000  C
  H67      1.0000 0.53990  0.35870  0.94800  Biso   1.000  H
  N89      1.0000 0.57860  0.48100  0.94270  Biso   1.000  N
  N90      1.0000 0.63840  0.42050  0.89580  Biso   1.000  N
  N91      1.0000 0.64430  0.54380  0.91310  Biso   1.000  N
  N92      1.0000 0.74810  0.54400  0.85300  Biso   1.000  N
  H68      1.0000 0.76810  0.51480  0.83780  Biso   1.000  H
  H69      1.0000 0.77210  0.59830  0.84740  Biso   1.000  H
  O67      1.0000 0.91650  0.83730  0.12420  Biso   1.000  O
  O68      1.0000 0.80470  0.71910  0.20550  Biso   1.000  O
  O69      1.0000 0.91360  0.71800  0.09880  Biso   1.000  O
  C70      1.0000 0.84360  0.04920  0.11090  Biso   1.000  C
  C71      1.0000 0.82520  0.31980  0.88490  Biso   1.000  C
  C72      1.0000 0.83290  0.42200  0.93220  Biso   1.000  C
  H70      1.0000 0.81880  0.46010  0.94800  Biso   1.000  H
  N93      1.0000 0.90240  0.42140  0.94270  Biso   1.000  N
  N94      1.0000 0.78210  0.36160  0.89580  Biso   1.000  N
  N95      1.0000 0.89950  0.35570  0.91310  Biso   1.000  N
  N96      1.0000 0.79590  0.25190  0.85300  Biso   1.000  N
  H71      1.0000 0.74670  0.23190  0.83780  Biso   1.000  H
  H72      1.0000 0.82620  0.22790  0.84740  Biso   1.000  H
  O70      1.0000 0.92080  0.08350  0.12420  Biso   1.000  O
  O71      1.0000 0.91440  0.19530  0.20550  Biso   1.000  O
  O72      1.0000 0.80440  0.08640  0.09880  Biso   1.000  O
  C73      1.0000 0.04910  0.26310  0.25000  Biso   1.000  C
  C74      1.0000 0.73690  0.78600  0.25000  Biso   1.000  C
  C75      1.0000 0.21400  0.95090  0.25000  Biso   1.000  C
  C76      1.0000 0.95090  0.73690  0.75000  Biso   1.000  C
  C77      1.0000 0.26310  0.21400  0.75000  Biso   1.000  C
  C78      1.0000 0.78600  0.04910  0.75000  Biso   1.000  C
  C79      1.0000 0.26310  0.04910  0.25000  Biso   1.000  C
  C80      1.0000 0.78600  0.73690  0.25000  Biso   1.000  C
  C81      1.0000 0.95090  0.21400  0.25000  Biso   1.000  C
  C82      1.0000 0.73690  0.95090  0.75000  Biso   1.000  C
  C83      1.0000 0.21400  0.26310  0.75000  Biso   1.000  C
  C84      1.0000 0.04910  0.78600  0.75000  Biso   1.000  C
  C85      1.0000 0.00000  0.26220  0.03100  Biso   1.000  C
  H73      1.0000 0.00000  0.21350  0.01850  Biso   1.000  H
  C86      1.0000 0.00000  0.35730  0.08230  Biso   1.000  C
  N97      1.0000 0.00000  0.28140  0.08330  Biso   1.000  N
  N98      1.0000 0.00000  0.32270  0.99840  Biso   1.000  N
  N99      1.0000 0.00000  0.38410  0.03250  Biso   1.000  N
  N100     1.0000 0.00000  0.39900  0.12820  Biso   1.000  N
  H74      1.0000 0.00000  0.44660  0.12610  Biso   1.000  H
  H75      1.0000 0.00000  0.37770  0.15930  Biso   1.000  H
  Cl1      1.0000 0.00000  0.33690  0.82080  Biso   1.000  Cl
  Zn1      1.0000 0.00000  0.21104  0.14349  Biso   1.000  Zn
  Zn2      1.0000 0.00000  0.33291  0.91416  Biso   1.000  Zn
  C87      1.0000 0.73780  0.73780  0.03100  Biso   1.000  C
  H76      1.0000 0.78650  0.78650  0.01850  Biso   1.000  H
  C88      1.0000 0.64270  0.64270  0.08230  Biso   1.000  C
  N101     1.0000 0.71860  0.71860  0.08330  Biso   1.000  N
  N102     1.0000 0.67730  0.67730  0.99840  Biso   1.000  N
  N103     1.0000 0.61590  0.61590  0.03250  Biso   1.000  N
  N104     1.0000 0.60100  0.60100  0.12820  Biso   1.000  N
  H77      1.0000 0.55340  0.55340  0.12610  Biso   1.000  H
  H78      1.0000 0.62230  0.62230  0.15930  Biso   1.000  H
  Cl2      1.0000 0.66310  0.66310  0.82080  Biso   1.000  Cl
  Zn3      1.0000 0.78896  0.78896  0.14349  Biso   1.000  Zn
  Zn4      1.0000 0.66709  0.66709  0.91416  Biso   1.000  Zn
  C89      1.0000 0.26220  0.00000  0.03100  Biso   1.000  C
  H79      1.0000 0.21350  0.00000  0.01850  Biso   1.000  H
  C90      1.0000 0.35730  0.00000  0.08230  Biso   1.000  C
  N105     1.0000 0.28140  0.00000  0.08330  Biso   1.000  N
  N106     1.0000 0.32270  0.00000  0.99840  Biso   1.000  N
  N107     1.0000 0.38410  0.00000  0.03250  Biso   1.000  N
  N108     1.0000 0.39900  0.00000  0.12820  Biso   1.000  N
  H80      1.0000 0.44660  0.00000  0.12610  Biso   1.000  H
  H81      1.0000 0.37770  0.00000  0.15930  Biso   1.000  H
  Cl3      1.0000 0.33690  0.00000  0.82080  Biso   1.000  Cl
  Zn5      1.0000 0.21104  0.00000  0.14349  Biso   1.000  Zn
  Zn6      1.0000 0.33291  0.00000  0.91416  Biso   1.000  Zn
  C91      1.0000 0.00000  0.73780  0.53100  Biso   1.000  C
  H82      1.0000 0.00000  0.78650  0.51850  Biso   1.000  H
  C92      1.0000 0.00000  0.64270  0.58230  Biso   1.000  C
  N109     1.0000 0.00000  0.71860  0.58330  Biso   1.000  N
  N110     1.0000 0.00000  0.67730  0.49840  Biso   1.000  N
  N111     1.0000 0.00000  0.61590  0.53250  Biso   1.000  N
  N112     1.0000 0.00000  0.60100  0.62820  Biso   1.000  N
  H83      1.0000 0.00000  0.55340  0.62610  Biso   1.000  H
  H84      1.0000 0.00000  0.62230  0.65930  Biso   1.000  H
  Cl4      1.0000 0.00000  0.66310  0.32080  Biso   1.000  Cl
  Zn7      1.0000 0.00000  0.78896  0.64349  Biso   1.000  Zn
  Zn8      1.0000 0.00000  0.66709  0.41416  Biso   1.000  Zn
  C93      1.0000 0.26220  0.26220  0.53100  Biso   1.000  C
  H85      1.0000 0.21350  0.21350  0.51850  Biso   1.000  H
  C94      1.0000 0.35730  0.35730  0.58230  Biso   1.000  C
  N113     1.0000 0.28140  0.28140  0.58330  Biso   1.000  N
  N114     1.0000 0.32270  0.32270  0.49840  Biso   1.000  N
  N115     1.0000 0.38410  0.38410  0.53250  Biso   1.000  N
  N116     1.0000 0.39900  0.39900  0.62820  Biso   1.000  N
  H86      1.0000 0.44660  0.44660  0.62610  Biso   1.000  H
  H87      1.0000 0.37770  0.37770  0.65930  Biso   1.000  H
  Cl5      1.0000 0.33690  0.33690  0.32080  Biso   1.000  Cl
  Zn9      1.0000 0.21104  0.21104  0.64349  Biso   1.000  Zn
  Zn10     1.0000 0.33291  0.33291  0.41416  Biso   1.000  Zn
  C95      1.0000 0.73780  0.00000  0.53100  Biso   1.000  C
  H88      1.0000 0.78650  0.00000  0.51850  Biso   1.000  H
  C96      1.0000 0.64270  0.00000  0.58230  Biso   1.000  C
  N117     1.0000 0.71860  0.00000  0.58330  Biso   1.000  N
  N118     1.0000 0.67730  0.00000  0.49840  Biso   1.000  N
  N119     1.0000 0.61590  0.00000  0.53250  Biso   1.000  N
  N120     1.0000 0.60100  0.00000  0.62820  Biso   1.000  N
  H89      1.0000 0.55340  0.00000  0.62610  Biso   1.000  H
  H90      1.0000 0.62230  0.00000  0.65930  Biso   1.000  H
  Cl6      1.0000 0.66310  0.00000  0.32080  Biso   1.000  Cl
  Zn11     1.0000 0.78896  0.00000  0.64349  Biso   1.000  Zn
  Zn12     1.0000 0.66709  0.00000  0.41416  Biso   1.000  Zn
  C97      1.0000 0.26220  0.00000  0.46900  Biso   1.000  C
  H91      1.0000 0.21350  0.00000  0.48150  Biso   1.000  H
  C98      1.0000 0.35730  0.00000  0.41770  Biso   1.000  C
  N121     1.0000 0.28140  0.00000  0.41670  Biso   1.000  N
  N122     1.0000 0.32270  0.00000  0.50160  Biso   1.000  N
  N123     1.0000 0.38410  0.00000  0.46750  Biso   1.000  N
  N124     1.0000 0.39900  0.00000  0.37180  Biso   1.000  N
  H92      1.0000 0.44660  0.00000  0.37390  Biso   1.000  H
  H93      1.0000 0.37770  0.00000  0.34070  Biso   1.000  H
  Cl7      1.0000 0.33690  0.00000  0.67920  Biso   1.000  Cl
  Zn13     1.0000 0.21104  0.00000  0.35651  Biso   1.000  Zn
  Zn14     1.0000 0.33291  0.00000  0.58584  Biso   1.000  Zn
  C99      1.0000 0.73780  0.73780  0.46900  Biso   1.000  C
  H94      1.0000 0.78650  0.78650  0.48150  Biso   1.000  H
  C100     1.0000 0.64270  0.64270  0.41770  Biso   1.000  C
  N125     1.0000 0.71860  0.71860  0.41670  Biso   1.000  N
  N126     1.0000 0.67730  0.67730  0.50160  Biso   1.000  N
  N127     1.0000 0.61590  0.61590  0.46750  Biso   1.000  N
  N128     1.0000 0.60100  0.60100  0.37180  Biso   1.000  N
  H95      1.0000 0.55340  0.55340  0.37390  Biso   1.000  H
  H96      1.0000 0.62230  0.62230  0.34070  Biso   1.000  H
  Cl8      1.0000 0.66310  0.66310  0.67920  Biso   1.000  Cl
  Zn15     1.0000 0.78896  0.78896  0.35651  Biso   1.000  Zn
  Zn16     1.0000 0.66709  0.66709  0.58584  Biso   1.000  Zn
  C101     1.0000 0.00000  0.26220  0.46900  Biso   1.000  C
  H97      1.0000 0.00000  0.21350  0.48150  Biso   1.000  H
  C102     1.0000 0.00000  0.35730  0.41770  Biso   1.000  C
  N129     1.0000 0.00000  0.28140  0.41670  Biso   1.000  N
  N130     1.0000 0.00000  0.32270  0.50160  Biso   1.000  N
  N131     1.0000 0.00000  0.38410  0.46750  Biso   1.000  N
  N132     1.0000 0.00000  0.39900  0.37180  Biso   1.000  N
  H98      1.0000 0.00000  0.44660  0.37390  Biso   1.000  H
  H99      1.0000 0.00000  0.37770  0.34070  Biso   1.000  H
  Cl9      1.0000 0.00000  0.33690  0.67920  Biso   1.000  Cl
  Zn17     1.0000 0.00000  0.21104  0.35651  Biso   1.000  Zn
  Zn18     1.0000 0.00000  0.33291  0.58584  Biso   1.000  Zn
  C103     1.0000 0.73780  0.00000  0.96900  Biso   1.000  C
  H100     1.0000 0.78650  0.00000  0.98150  Biso   1.000  H
  C104     1.0000 0.64270  0.00000  0.91770  Biso   1.000  C
  N133     1.0000 0.71860  0.00000  0.91670  Biso   1.000  N
  N134     1.0000 0.67730  0.00000  0.00160  Biso   1.000  N
  N135     1.0000 0.61590  0.00000  0.96750  Biso   1.000  N
  N136     1.0000 0.60100  0.00000  0.87180  Biso   1.000  N
  H101     1.0000 0.55340  0.00000  0.87390  Biso   1.000  H
  H102     1.0000 0.62230  0.00000  0.84070  Biso   1.000  H
  Cl10     1.0000 0.66310  0.00000  0.17920  Biso   1.000  Cl
  Zn19     1.0000 0.78896  0.00000  0.85651  Biso   1.000  Zn
  Zn20     1.0000 0.66709  0.00000  0.08584  Biso   1.000  Zn
  C105     1.0000 0.26220  0.26220  0.96900  Biso   1.000  C
  H103     1.0000 0.21350  0.21350  0.98150  Biso   1.000  H
  C106     1.0000 0.35730  0.35730  0.91770  Biso   1.000  C
  N137     1.0000 0.28140  0.28140  0.91670  Biso   1.000  N
  N138     1.0000 0.32270  0.32270  0.00160  Biso   1.000  N
  N139     1.0000 0.38410  0.38410  0.96750  Biso   1.000  N
  N140     1.0000 0.39900  0.39900  0.87180  Biso   1.000  N
  H104     1.0000 0.44660  0.44660  0.87390  Biso   1.000  H
  H105     1.0000 0.37770  0.37770  0.84070  Biso   1.000  H
  Cl11     1.0000 0.33690  0.33690  0.17920  Biso   1.000  Cl
  Zn21     1.0000 0.21104  0.21104  0.85651  Biso   1.000  Zn
  Zn22     1.0000 0.33291  0.33291  0.08584  Biso   1.000  Zn
  C107     1.0000 0.00000  0.73780  0.96900  Biso   1.000  C
  H106     1.0000 0.00000  0.78650  0.98150  Biso   1.000  H
  C108     1.0000 0.00000  0.64270  0.91770  Biso   1.000  C
  N141     1.0000 0.00000  0.71860  0.91670  Biso   1.000  N
  N142     1.0000 0.00000  0.67730  0.00160  Biso   1.000  N
  N143     1.0000 0.00000  0.61590  0.96750  Biso   1.000  N
  N144     1.0000 0.00000  0.60100  0.87180  Biso   1.000  N
  H107     1.0000 0.00000  0.55340  0.87390  Biso   1.000  H
  H108     1.0000 0.00000  0.62230  0.84070  Biso   1.000  H
  Cl12     1.0000 0.00000  0.66310  0.17920  Biso   1.000  Cl
  Zn23     1.0000 0.00000  0.78896  0.85651  Biso   1.000  Zn
  Zn24     1.0000 0.00000  0.66709  0.08584  Biso   1.000  Zn
  Cl13     1.0000 0.00000  0.00000  0.25000  Biso   1.000  Cl
  Cl14     1.0000 0.00000  0.00000  0.75000  Biso   1.000  Cl
  Cl15     1.0000 0.00000  0.00000  0.00000  Biso   1.000  Cl
  Cl16     1.0000 0.00000  0.00000  0.50000  Biso   1.000  Cl
  Gd1      1.0000 0.00000  0.00000  0.12464  Biso   1.000  Gd
  Gd2      1.0000 0.00000  0.00000  0.62464  Biso   1.000  Gd
  Gd3      1.0000 0.00000  0.00000  0.37536  Biso   1.000  Gd
  Gd4      1.0000 0.00000  0.00000  0.87536  Biso   1.000  Gd
  Zn25     1.0000 0.00000  0.50000  0.00000  Biso   1.000  Zn
  Zn26     1.0000 0.50000  0.50000  0.00000  Biso   1.000  Zn
  Zn27     1.0000 0.50000  0.00000  0.00000  Biso   1.000  Zn
  Zn28     1.0000 0.00000  0.50000  0.50000  Biso   1.000  Zn
  Zn29     1.0000 0.50000  0.50000  0.50000  Biso   1.000  Zn
  Zn30     1.0000 0.50000  0.00000  0.50000  Biso   1.000  Zn
  Zn31     1.0000 0.33333  0.66667  0.87244  Biso   1.000  Zn
  Zn32     1.0000 0.66667  0.33333  0.37244  Biso   1.000  Zn
  Zn33     1.0000 0.66667  0.33333  0.62756  Biso   1.000  Zn
  Zn34     1.0000 0.33333  0.66667  0.12756  Biso   1.000  Zn
  Zn35     1.0000 0.66667  0.33333  0.12756  Biso   1.000  Zn
  Zn36     1.0000 0.33333  0.66667  0.62756  Biso   1.000  Zn
  Zn37     1.0000 0.33333  0.66667  0.37244  Biso   1.000  Zn
  Zn38     1.0000 0.66667  0.33333  0.87244  Biso   1.000  Zn
