data_image0
_cell_length_a       18.1128
_cell_length_b       8.7931
_cell_length_c       19.2053
_cell_angle_alpha    90
_cell_angle_beta     102.909
_cell_angle_gamma    90

_symmetry_space_group_name_H-M    "P 1"
_symmetry_int_tables_number       1

loop_
  _symmetry_equiv_pos_as_xyz
  'x, y, z'

loop_
  _atom_site_label
  _atom_site_occupancy
  _atom_site_fract_x
  _atom_site_fract_y
  _atom_site_fract_z
  _atom_site_thermal_displace_type
  _atom_site_B_iso_or_equiv
  _atom_site_type_symbol
  Cd1      1.0000 0.20866  0.90703  0.04758  Biso   1.000  Cd
  O1       1.0000 0.07630  0.15980  0.95520  Biso   1.000  O
  C1       1.0000 0.11710  0.41960  0.65060  Biso   1.000  C
  C2       1.0000 0.12930  0.21730  0.85600  Biso   1.000  C
  O2       1.0000 0.17830  0.43420  0.62970  Biso   1.000  O
  O3       1.0000 0.19080  0.06650  0.95280  Biso   1.000  O
  C3       1.0000 0.05860  0.34920  0.75250  Biso   1.000  C
  O4       1.0000 0.05360  0.46130  0.61630  Biso   1.000  O
  O5       1.0000 0.08740  0.81500  0.00540  Biso   1.000  O
  C4       1.0000 0.06200  0.28260  0.81840  Biso   1.000  C
  C5       1.0000 0.09790  0.69630  0.97140  Biso   1.000  C
  O6       1.0000 0.31690  0.82640  0.00870  Biso   1.000  O
  C6       1.0000 0.18860  0.28690  0.76060  Biso   1.000  C
  C7       1.0000 0.13270  0.14250  0.92670  Biso   1.000  C
  C8       1.0000 0.47650  0.09000  0.04820  Biso   1.000  C
  O7       1.0000 0.33420  0.02390  0.08010  Biso   1.000  O
  C9       1.0000 0.03100  0.61670  0.92910  Biso   1.000  C
  H1       1.0000 0.98790  0.63650  0.94920  Biso   1.000  H
  H2       1.0000 0.04060  0.50930  0.92990  Biso   1.000  H
  H3       1.0000 0.02080  0.65240  0.88070  Biso   1.000  H
  C10      1.0000 0.19200  0.21810  0.82620  Biso   1.000  C
  C11      1.0000 0.12200  0.35080  0.72280  Biso   1.000  C
  C12      1.0000 0.35580  0.93710  0.03760  Biso   1.000  C
  C13      1.0000 0.43170  0.97000  0.01890  Biso   1.000  C
  C14      1.0000 0.54390  0.11920  0.03130  Biso   1.000  C
  O8       1.0000 0.25920  0.14060  0.85500  Biso   1.000  O
  H4       1.0000 0.25700  0.10490  0.89400  Biso   1.000  H
  O9       1.0000 0.99300  0.40870  0.72220  Biso   1.000  O
  H5       1.0000 0.99440  0.44000  0.68230  Biso   1.000  H
  O10      1.0000 0.46210  0.16610  0.10100  Biso   1.000  O
  O11      1.0000 0.99230  0.28280  0.83800  Biso   1.000  O
  H6       1.0000 0.99340  0.22140  0.87030  Biso   1.000  H
  O12      1.0000 0.25510  0.30500  0.73980  Biso   1.000  O
  H7       1.0000 0.24630  0.32320  0.69680  Biso   1.000  H
  O13      1.0000 0.58020  0.24930  0.05810  Biso   1.000  O
  H8       1.0000 0.61810  0.26060  0.04190  Biso   1.000  H
  O14      1.0000 0.16350  0.65400  0.97220  Biso   1.000  O
  Cd2      1.0000 0.79134  0.40703  0.45242  Biso   1.000  Cd
  O15      1.0000 0.92370  0.65980  0.54480  Biso   1.000  O
  C15      1.0000 0.88290  0.91960  0.84940  Biso   1.000  C
  C16      1.0000 0.87070  0.71730  0.64400  Biso   1.000  C
  O16      1.0000 0.82170  0.93420  0.87030  Biso   1.000  O
  O17      1.0000 0.80920  0.56650  0.54720  Biso   1.000  O
  C17      1.0000 0.94140  0.84920  0.74750  Biso   1.000  C
  O18      1.0000 0.94640  0.96130  0.88370  Biso   1.000  O
  O19      1.0000 0.91260  0.31500  0.49460  Biso   1.000  O
  C18      1.0000 0.93800  0.78260  0.68160  Biso   1.000  C
  C19      1.0000 0.90210  0.19630  0.52860  Biso   1.000  C
  O20      1.0000 0.68310  0.32640  0.49130  Biso   1.000  O
  C20      1.0000 0.81140  0.78690  0.73940  Biso   1.000  C
  C21      1.0000 0.86730  0.64250  0.57330  Biso   1.000  C
  C22      1.0000 0.52350  0.59000  0.45180  Biso   1.000  C
  O21      1.0000 0.66580  0.52390  0.41990  Biso   1.000  O
  C23      1.0000 0.96900  0.11670  0.57090  Biso   1.000  C
  H9       1.0000 0.01210  0.13650  0.55080  Biso   1.000  H
  H10      1.0000 0.95940  0.00930  0.57010  Biso   1.000  H
  H11      1.0000 0.97920  0.15240  0.61930  Biso   1.000  H
  C24      1.0000 0.80800  0.71810  0.67380  Biso   1.000  C
  C25      1.0000 0.87800  0.85080  0.77720  Biso   1.000  C
  C26      1.0000 0.64420  0.43710  0.46240  Biso   1.000  C
  C27      1.0000 0.56830  0.47000  0.48110  Biso   1.000  C
  C28      1.0000 0.45610  0.61920  0.46870  Biso   1.000  C
  O22      1.0000 0.74080  0.64060  0.64500  Biso   1.000  O
  H12      1.0000 0.74300  0.60490  0.60600  Biso   1.000  H
  O23      1.0000 0.00700  0.90870  0.77780  Biso   1.000  O
  H13      1.0000 0.00560  0.94000  0.81770  Biso   1.000  H
  O24      1.0000 0.53790  0.66610  0.39900  Biso   1.000  O
  O25      1.0000 0.00770  0.78280  0.66200  Biso   1.000  O
  H14      1.0000 0.00660  0.72140  0.62970  Biso   1.000  H
  O26      1.0000 0.74490  0.80500  0.76020  Biso   1.000  O
  H15      1.0000 0.75370  0.82320  0.80320  Biso   1.000  H
  O27      1.0000 0.41980  0.74930  0.44190  Biso   1.000  O
  H16      1.0000 0.38190  0.76060  0.45810  Biso   1.000  H
  O28      1.0000 0.83650  0.15400  0.52780  Biso   1.000  O
  Cd3      1.0000 0.79134  0.09297  0.95242  Biso   1.000  Cd
  O29      1.0000 0.92370  0.84020  0.04480  Biso   1.000  O
  C29      1.0000 0.88290  0.58040  0.34940  Biso   1.000  C
  C30      1.0000 0.87070  0.78270  0.14400  Biso   1.000  C
  O30      1.0000 0.82170  0.56580  0.37030  Biso   1.000  O
  O31      1.0000 0.80920  0.93350  0.04720  Biso   1.000  O
  C31      1.0000 0.94140  0.65080  0.24750  Biso   1.000  C
  O32      1.0000 0.94640  0.53870  0.38370  Biso   1.000  O
  O33      1.0000 0.91260  0.18500  0.99460  Biso   1.000  O
  C32      1.0000 0.93800  0.71740  0.18160  Biso   1.000  C
  C33      1.0000 0.90210  0.30370  0.02860  Biso   1.000  C
  O34      1.0000 0.68310  0.17360  0.99130  Biso   1.000  O
  C34      1.0000 0.81140  0.71310  0.23940  Biso   1.000  C
  C35      1.0000 0.86730  0.85750  0.07330  Biso   1.000  C
  C36      1.0000 0.52350  0.91000  0.95180  Biso   1.000  C
  O35      1.0000 0.66580  0.97610  0.91990  Biso   1.000  O
  C37      1.0000 0.96900  0.38330  0.07090  Biso   1.000  C
  H17      1.0000 0.01210  0.36350  0.05080  Biso   1.000  H
  H18      1.0000 0.95940  0.49070  0.07010  Biso   1.000  H
  H19      1.0000 0.97920  0.34760  0.11930  Biso   1.000  H
  C38      1.0000 0.80800  0.78190  0.17380  Biso   1.000  C
  C39      1.0000 0.87800  0.64920  0.27720  Biso   1.000  C
  C40      1.0000 0.64420  0.06290  0.96240  Biso   1.000  C
  C41      1.0000 0.56830  0.03000  0.98110  Biso   1.000  C
  C42      1.0000 0.45610  0.88080  0.96870  Biso   1.000  C
  O36      1.0000 0.74080  0.85940  0.14500  Biso   1.000  O
  H20      1.0000 0.74300  0.89510  0.10600  Biso   1.000  H
  O37      1.0000 0.00700  0.59130  0.27780  Biso   1.000  O
  H21      1.0000 0.00560  0.56000  0.31770  Biso   1.000  H
  O38      1.0000 0.53790  0.83390  0.89900  Biso   1.000  O
  O39      1.0000 0.00770  0.71720  0.16200  Biso   1.000  O
  H22      1.0000 0.00660  0.77860  0.12970  Biso   1.000  H
  O40      1.0000 0.74490  0.69500  0.26020  Biso   1.000  O
  H23      1.0000 0.75370  0.67680  0.30320  Biso   1.000  H
  O41      1.0000 0.41980  0.75070  0.94190  Biso   1.000  O
  H24      1.0000 0.38190  0.73940  0.95810  Biso   1.000  H
  O42      1.0000 0.83650  0.34600  0.02780  Biso   1.000  O
  Cd4      1.0000 0.20866  0.59297  0.54758  Biso   1.000  Cd
  O43      1.0000 0.07630  0.34020  0.45520  Biso   1.000  O
  C43      1.0000 0.11710  0.08040  0.15060  Biso   1.000  C
  C44      1.0000 0.12930  0.28270  0.35600  Biso   1.000  C
  O44      1.0000 0.17830  0.06580  0.12970  Biso   1.000  O
  O45      1.0000 0.19080  0.43350  0.45280  Biso   1.000  O
  C45      1.0000 0.05860  0.15080  0.25250  Biso   1.000  C
  O46      1.0000 0.05360  0.03870  0.11630  Biso   1.000  O
  O47      1.0000 0.08740  0.68500  0.50540  Biso   1.000  O
  C46      1.0000 0.06200  0.21740  0.31840  Biso   1.000  C
  C47      1.0000 0.09790  0.80370  0.47140  Biso   1.000  C
  O48      1.0000 0.31690  0.67360  0.50870  Biso   1.000  O
  C48      1.0000 0.18860  0.21310  0.26060  Biso   1.000  C
  C49      1.0000 0.13270  0.35750  0.42670  Biso   1.000  C
  C50      1.0000 0.47650  0.41000  0.54820  Biso   1.000  C
  O49      1.0000 0.33420  0.47610  0.58010  Biso   1.000  O
  C51      1.0000 0.03100  0.88330  0.42910  Biso   1.000  C
  H25      1.0000 0.98790  0.86350  0.44920  Biso   1.000  H
  H26      1.0000 0.04060  0.99070  0.42990  Biso   1.000  H
  H27      1.0000 0.02080  0.84760  0.38070  Biso   1.000  H
  C52      1.0000 0.19200  0.28190  0.32620  Biso   1.000  C
  C53      1.0000 0.12200  0.14920  0.22280  Biso   1.000  C
  C54      1.0000 0.35580  0.56290  0.53760  Biso   1.000  C
  C55      1.0000 0.43170  0.53000  0.51890  Biso   1.000  C
  C56      1.0000 0.54390  0.38080  0.53130  Biso   1.000  C
  O50      1.0000 0.25920  0.35940  0.35500  Biso   1.000  O
  H28      1.0000 0.25700  0.39510  0.39400  Biso   1.000  H
  O51      1.0000 0.99300  0.09130  0.22220  Biso   1.000  O
  H29      1.0000 0.99440  0.06000  0.18230  Biso   1.000  H
  O52      1.0000 0.46210  0.33390  0.60100  Biso   1.000  O
  O53      1.0000 0.99230  0.21720  0.33800  Biso   1.000  O
  H30      1.0000 0.99340  0.27860  0.37030  Biso   1.000  H
  O54      1.0000 0.25510  0.19500  0.23980  Biso   1.000  O
  H31      1.0000 0.24630  0.17680  0.19680  Biso   1.000  H
  O55      1.0000 0.58020  0.25070  0.55810  Biso   1.000  O
  H32      1.0000 0.61810  0.23940  0.54190  Biso   1.000  H
  O56      1.0000 0.16350  0.84600  0.47220  Biso   1.000  O
  Cd5      1.0000 0.00000  0.00000  0.00000  Biso   1.000  Cd
  Cd6      1.0000 0.00000  0.50000  0.50000  Biso   1.000  Cd
