data_VOBQEK_clean
_audit_creation_date              2015-10-16
_audit_creation_method            'Materials Studio'
_symmetry_space_group_name_H-M    'P1'
_symmetry_Int_Tables_number       1
_symmetry_cell_setting            triclinic
loop_
_symmetry_equiv_pos_as_xyz
  x,y,z
_cell_length_a                    9.8060
_cell_length_b                    9.9980
_cell_length_c                    10.6740
_cell_angle_alpha                 99.9800
_cell_angle_beta                  111.3800
_cell_angle_gamma                 108.5600
loop_
_atom_site_label
_atom_site_type_symbol
_atom_site_fract_x
_atom_site_fract_y
_atom_site_fract_z
_atom_site_U_iso_or_equiv
_atom_site_adp_type
_atom_site_occupancy
Mn1    Mn    0.07009   0.88684   0.70196   0.01267  Uiso   1.00
Mn2    Mn    0.92991   0.11316   0.29804   0.01267  Uiso   1.00
Mn3    Mn    0.00000   0.00000   0.00000   0.01267  Uiso   1.00
H1     H     0.65290   0.92910   0.40330   0.01267  Uiso   1.00
H2     H     0.48250   0.31220   0.82630   0.01267  Uiso   1.00
H3     H     0.42820   0.95540   0.25990   0.01267  Uiso   1.00
H4     H     0.51750   0.68780   0.17370   0.01267  Uiso   1.00
H5     H     0.16070   0.60550   0.24380   0.01267  Uiso   1.00
H6     H     0.34710   0.07090   0.59670   0.01267  Uiso   1.00
H7     H     0.85520   0.24390   0.89760   0.01267  Uiso   1.00
H8     H     0.14480   0.75610   0.10240   0.01267  Uiso   1.00
H9     H     0.32530   0.44760   0.10120   0.01267  Uiso   1.00
H10    H     0.57180   0.04460   0.74010   0.01267  Uiso   1.00
H11    H     0.83930   0.39450   0.75620   0.01267  Uiso   1.00
H12    H     0.67470   0.55240   0.89880   0.01267  Uiso   1.00
C1     C     0.61760   0.64480   0.04460   0.01267  Uiso   1.00
C2     C     0.39510   0.46840   0.06010   0.01267  Uiso   1.00
C3     C     0.36440   0.01590   0.41290   0.01267  Uiso   1.00
C4     C     0.08620   0.65320   0.06130   0.01267  Uiso   1.00
C5     C     0.91380   0.34680   0.93870   0.01267  Uiso   1.00
C6     C     0.25510   0.19890   0.90690   0.01267  Uiso   1.00
C7     C     0.01080   0.40880   0.08460   0.01267  Uiso   1.00
C8     C     0.21800   0.03300   0.31830   0.01267  Uiso   1.00
C9     C     0.48910   0.38760   0.89590   0.01267  Uiso   1.00
C10    C     0.78200   0.96700   0.68170   0.01267  Uiso   1.00
C11    C     0.63560   0.98410   0.58710   0.01267  Uiso   1.00
C12    C     0.60490   0.53160   0.93990   0.01267  Uiso   1.00
C13    C     0.45700   0.97340   0.35650   0.01267  Uiso   1.00
C14    C     0.98400   0.69040   0.82560   0.01267  Uiso   1.00
C15    C     0.38240   0.35520   0.95540   0.01267  Uiso   1.00
C16    C     0.74490   0.80110   0.09310   0.01267  Uiso   1.00
C17    C     0.54300   0.02660   0.64350   0.01267  Uiso   1.00
C18    C     0.59160   0.95750   0.44210   0.01267  Uiso   1.00
C19    C     0.01600   0.30960   0.17440   0.01267  Uiso   1.00
C20    C     0.09650   0.56300   0.14590   0.01267  Uiso   1.00
C21    C     0.98920   0.59120   0.91540   0.01267  Uiso   1.00
C22    C     0.51090   0.61240   0.10410   0.01267  Uiso   1.00
C23    C     0.90350   0.43700   0.85410   0.01267  Uiso   1.00
C24    C     0.40840   0.04250   0.55790   0.01267  Uiso   1.00
O1     O     0.12110   0.04350   0.36892   0.01267  Uiso   1.00
O2     O     0.24580   0.10422   0.80589   0.01267  Uiso   1.00
O3     O     0.80060   0.96501   0.80326   0.01267  Uiso   1.00
O4     O     0.83142   0.82602   0.03041   0.01267  Uiso   1.00
O5     O     0.94489   0.16831   0.11155   0.01267  Uiso   1.00
O6     O     0.92120   0.63848   0.69279   0.01267  Uiso   1.00
O7     O     0.75420   0.89578   0.19411   0.01267  Uiso   1.00
O8     O     0.19940   0.03499   0.19674   0.01267  Uiso   1.00
O9     O     0.16858   0.17398   0.96959   0.01267  Uiso   1.00
O10    O     0.87890   0.95650   0.63108   0.01267  Uiso   1.00
O11    O     0.07880   0.36152   0.30721   0.01267  Uiso   1.00
O12    O     0.05511   0.83169   0.88845   0.01267  Uiso   1.00
