data_image0
_cell_length_a       17.7637
_cell_length_b       11.7135
_cell_length_c       11.2193
_cell_angle_alpha    90
_cell_angle_beta     109.508
_cell_angle_gamma    90

_symmetry_space_group_name_H-M    "P 1"
_symmetry_int_tables_number       1

loop_
  _symmetry_equiv_pos_as_xyz
  'x, y, z'

loop_
  _atom_site_label
  _atom_site_occupancy
  _atom_site_fract_x
  _atom_site_fract_y
  _atom_site_fract_z
  _atom_site_thermal_displace_type
  _atom_site_B_iso_or_equiv
  _atom_site_type_symbol
  O1       1.0000 0.07353  0.98443  0.22779  Biso   1.000  O
  O2       1.0000 0.11396  0.95262  0.43388  Biso   1.000  O
  O3       1.0000 0.44317  0.30870  0.47574  Biso   1.000  O
  O4       1.0000 0.43194  0.24915  0.28090  Biso   1.000  O
  C1       1.0000 0.20056  0.05570  0.35010  Biso   1.000  C
  C2       1.0000 0.22059  0.07910  0.24320  Biso   1.000  C
  H1       1.0000 0.18770  0.05380  0.16450  Biso   1.000  H
  C3       1.0000 0.28932  0.13990  0.25280  Biso   1.000  C
  H2       1.0000 0.30280  0.15340  0.18080  Biso   1.000  H
  C4       1.0000 0.33833  0.18080  0.36910  Biso   1.000  C
  C5       1.0000 0.31828  0.15610  0.47580  Biso   1.000  C
  H3       1.0000 0.35070  0.18230  0.55450  Biso   1.000  H
  C6       1.0000 0.25060  0.09290  0.46670  Biso   1.000  C
  H4       1.0000 0.23870  0.07550  0.53930  Biso   1.000  H
  C7       1.0000 0.12446  0.99320  0.33870  Biso   1.000  C
  C8       1.0000 0.41069  0.25320  0.37960  Biso   1.000  C
  O5       1.0000 0.57353  0.48443  0.22779  Biso   1.000  O
  O6       1.0000 0.61396  0.45262  0.43388  Biso   1.000  O
  O7       1.0000 0.94317  0.80870  0.47574  Biso   1.000  O
  O8       1.0000 0.93194  0.74915  0.28090  Biso   1.000  O
  C9       1.0000 0.70056  0.55570  0.35010  Biso   1.000  C
  C10      1.0000 0.72059  0.57910  0.24320  Biso   1.000  C
  H5       1.0000 0.68770  0.55380  0.16450  Biso   1.000  H
  C11      1.0000 0.78932  0.63990  0.25280  Biso   1.000  C
  H6       1.0000 0.80280  0.65340  0.18080  Biso   1.000  H
  C12      1.0000 0.83833  0.68080  0.36910  Biso   1.000  C
  C13      1.0000 0.81828  0.65610  0.47580  Biso   1.000  C
  H7       1.0000 0.85070  0.68230  0.55450  Biso   1.000  H
  C14      1.0000 0.75060  0.59290  0.46670  Biso   1.000  C
  H8       1.0000 0.73870  0.57550  0.53930  Biso   1.000  H
  C15      1.0000 0.62446  0.49320  0.33870  Biso   1.000  C
  C16      1.0000 0.91069  0.75320  0.37960  Biso   1.000  C
  O9       1.0000 0.92647  0.98443  0.27221  Biso   1.000  O
  O10      1.0000 0.88604  0.95262  0.06612  Biso   1.000  O
  O11      1.0000 0.55683  0.30870  0.02426  Biso   1.000  O
  O12      1.0000 0.56806  0.24915  0.21910  Biso   1.000  O
  C17      1.0000 0.79944  0.05570  0.14990  Biso   1.000  C
  C18      1.0000 0.77941  0.07910  0.25680  Biso   1.000  C
  H9       1.0000 0.81230  0.05380  0.33550  Biso   1.000  H
  C19      1.0000 0.71068  0.13990  0.24720  Biso   1.000  C
  H10      1.0000 0.69720  0.15340  0.31920  Biso   1.000  H
  C20      1.0000 0.66167  0.18080  0.13090  Biso   1.000  C
  C21      1.0000 0.68172  0.15610  0.02420  Biso   1.000  C
  H11      1.0000 0.64930  0.18230  0.94550  Biso   1.000  H
  C22      1.0000 0.74940  0.09290  0.03330  Biso   1.000  C
  H12      1.0000 0.76130  0.07550  0.96070  Biso   1.000  H
  C23      1.0000 0.87554  0.99320  0.16130  Biso   1.000  C
  C24      1.0000 0.58931  0.25320  0.12040  Biso   1.000  C
  O13      1.0000 0.42647  0.48443  0.27221  Biso   1.000  O
  O14      1.0000 0.38604  0.45262  0.06612  Biso   1.000  O
  O15      1.0000 0.05683  0.80870  0.02426  Biso   1.000  O
  O16      1.0000 0.06806  0.74915  0.21910  Biso   1.000  O
  C25      1.0000 0.29944  0.55570  0.14990  Biso   1.000  C
  C26      1.0000 0.27941  0.57910  0.25680  Biso   1.000  C
  H13      1.0000 0.31230  0.55380  0.33550  Biso   1.000  H
  C27      1.0000 0.21068  0.63990  0.24720  Biso   1.000  C
  H14      1.0000 0.19720  0.65340  0.31920  Biso   1.000  H
  C28      1.0000 0.16167  0.68080  0.13090  Biso   1.000  C
  C29      1.0000 0.18172  0.65610  0.02420  Biso   1.000  C
  H15      1.0000 0.14930  0.68230  0.94550  Biso   1.000  H
  C30      1.0000 0.24940  0.59290  0.03330  Biso   1.000  C
  H16      1.0000 0.26130  0.57550  0.96070  Biso   1.000  H
  C31      1.0000 0.37554  0.49320  0.16130  Biso   1.000  C
  C32      1.0000 0.08931  0.75320  0.12040  Biso   1.000  C
  O17      1.0000 0.92647  0.01557  0.77221  Biso   1.000  O
  O18      1.0000 0.88604  0.04738  0.56612  Biso   1.000  O
  O19      1.0000 0.55683  0.69130  0.52426  Biso   1.000  O
  O20      1.0000 0.56806  0.75085  0.71910  Biso   1.000  O
  C33      1.0000 0.79944  0.94430  0.64990  Biso   1.000  C
  C34      1.0000 0.77941  0.92090  0.75680  Biso   1.000  C
  H17      1.0000 0.81230  0.94620  0.83550  Biso   1.000  H
  C35      1.0000 0.71068  0.86010  0.74720  Biso   1.000  C
  H18      1.0000 0.69720  0.84660  0.81920  Biso   1.000  H
  C36      1.0000 0.66167  0.81920  0.63090  Biso   1.000  C
  C37      1.0000 0.68172  0.84390  0.52420  Biso   1.000  C
  H19      1.0000 0.64930  0.81770  0.44550  Biso   1.000  H
  C38      1.0000 0.74940  0.90710  0.53330  Biso   1.000  C
  H20      1.0000 0.76130  0.92450  0.46070  Biso   1.000  H
  C39      1.0000 0.87554  0.00680  0.66130  Biso   1.000  C
  C40      1.0000 0.58931  0.74680  0.62040  Biso   1.000  C
  O21      1.0000 0.42647  0.51557  0.77221  Biso   1.000  O
  O22      1.0000 0.38604  0.54738  0.56612  Biso   1.000  O
  O23      1.0000 0.05683  0.19130  0.52426  Biso   1.000  O
  O24      1.0000 0.06806  0.25085  0.71910  Biso   1.000  O
  C41      1.0000 0.29944  0.44430  0.64990  Biso   1.000  C
  C42      1.0000 0.27941  0.42090  0.75680  Biso   1.000  C
  H21      1.0000 0.31230  0.44620  0.83550  Biso   1.000  H
  C43      1.0000 0.21068  0.36010  0.74720  Biso   1.000  C
  H22      1.0000 0.19720  0.34660  0.81920  Biso   1.000  H
  C44      1.0000 0.16167  0.31920  0.63090  Biso   1.000  C
  C45      1.0000 0.18172  0.34390  0.52420  Biso   1.000  C
  H23      1.0000 0.14930  0.31770  0.44550  Biso   1.000  H
  C46      1.0000 0.24940  0.40710  0.53330  Biso   1.000  C
  H24      1.0000 0.26130  0.42450  0.46070  Biso   1.000  H
  C47      1.0000 0.37554  0.50680  0.66130  Biso   1.000  C
  C48      1.0000 0.08931  0.24680  0.62040  Biso   1.000  C
  O25      1.0000 0.07353  0.01557  0.72779  Biso   1.000  O
  O26      1.0000 0.11396  0.04738  0.93388  Biso   1.000  O
  O27      1.0000 0.44317  0.69130  0.97574  Biso   1.000  O
  O28      1.0000 0.43194  0.75085  0.78090  Biso   1.000  O
  C49      1.0000 0.20056  0.94430  0.85010  Biso   1.000  C
  C50      1.0000 0.22059  0.92090  0.74320  Biso   1.000  C
  H25      1.0000 0.18770  0.94620  0.66450  Biso   1.000  H
  C51      1.0000 0.28932  0.86010  0.75280  Biso   1.000  C
  H26      1.0000 0.30280  0.84660  0.68080  Biso   1.000  H
  C52      1.0000 0.33833  0.81920  0.86910  Biso   1.000  C
  C53      1.0000 0.31828  0.84390  0.97580  Biso   1.000  C
  H27      1.0000 0.35070  0.81770  0.05450  Biso   1.000  H
  C54      1.0000 0.25060  0.90710  0.96670  Biso   1.000  C
  H28      1.0000 0.23870  0.92450  0.03930  Biso   1.000  H
  C55      1.0000 0.12446  0.00680  0.83870  Biso   1.000  C
  C56      1.0000 0.41069  0.74680  0.87960  Biso   1.000  C
  O29      1.0000 0.57353  0.51557  0.72779  Biso   1.000  O
  O30      1.0000 0.61396  0.54738  0.93388  Biso   1.000  O
  O31      1.0000 0.94317  0.19130  0.97574  Biso   1.000  O
  O32      1.0000 0.93194  0.25085  0.78090  Biso   1.000  O
  C57      1.0000 0.70056  0.44430  0.85010  Biso   1.000  C
  C58      1.0000 0.72059  0.42090  0.74320  Biso   1.000  C
  H29      1.0000 0.68770  0.44620  0.66450  Biso   1.000  H
  C59      1.0000 0.78932  0.36010  0.75280  Biso   1.000  C
  H30      1.0000 0.80280  0.34660  0.68080  Biso   1.000  H
  C60      1.0000 0.83833  0.31920  0.86910  Biso   1.000  C
  C61      1.0000 0.81828  0.34390  0.97580  Biso   1.000  C
  H31      1.0000 0.85070  0.31770  0.05450  Biso   1.000  H
  C62      1.0000 0.75060  0.40710  0.96670  Biso   1.000  C
  H32      1.0000 0.73870  0.42450  0.03930  Biso   1.000  H
  C63      1.0000 0.62446  0.50680  0.83870  Biso   1.000  C
  C64      1.0000 0.91069  0.24680  0.87960  Biso   1.000  C
  Cu1      1.0000 0.00000  0.86472  0.25000  Biso   1.000  Cu
  Cu2      1.0000 0.50000  0.36472  0.25000  Biso   1.000  Cu
  Cu3      1.0000 0.00000  0.13528  0.75000  Biso   1.000  Cu
  Cu4      1.0000 0.50000  0.63528  0.75000  Biso   1.000  Cu
  Na1      1.0000 0.00000  0.00000  0.50000  Biso   1.000  Na
  Na2      1.0000 0.50000  0.50000  0.50000  Biso   1.000  Na
  Na3      1.0000 0.00000  0.00000  0.00000  Biso   1.000  Na
  Na4      1.0000 0.50000  0.50000  0.00000  Biso   1.000  Na
