data_image0
_cell_length_a       14.726
_cell_length_b       9.221
_cell_length_c       16.969
_cell_angle_alpha    90
_cell_angle_beta     90.332
_cell_angle_gamma    90

_symmetry_space_group_name_H-M    "P 1"
_symmetry_int_tables_number       1

loop_
  _symmetry_equiv_pos_as_xyz
  'x, y, z'

loop_
  _atom_site_label
  _atom_site_occupancy
  _atom_site_fract_x
  _atom_site_fract_y
  _atom_site_fract_z
  _atom_site_thermal_displace_type
  _atom_site_B_iso_or_equiv
  _atom_site_type_symbol
  Ni1      1.0000 0.98095  0.83756  0.99514  Biso   1.000  Ni
  Ni2      1.0000 0.19465  0.90655  0.03851  Biso   1.000  Ni
  O1       1.0000 0.05380  0.80460  0.89050  Biso   1.000  O
  O2       1.0000 0.19190  0.77600  0.94300  Biso   1.000  O
  O3       1.0000 0.39560  0.64760  0.59090  Biso   1.000  O
  O4       1.0000 0.26410  0.57750  0.53380  Biso   1.000  O
  O5       1.0000 0.83570  0.62950  0.57450  Biso   1.000  O
  O6       1.0000 0.74460  0.48450  0.63890  Biso   1.000  O
  O7       1.0000 0.83670  0.26410  0.88940  Biso   1.000  O
  O8       1.0000 0.96360  0.33970  0.95030  Biso   1.000  O
  O9       1.0000 0.06830  0.97630  0.05020  Biso   1.000  O
  H1       1.0000 0.05390  0.97530  0.10660  Biso   1.000  H
  C1       1.0000 0.12770  0.65360  0.74780  Biso   1.000  C
  C2       1.0000 0.17520  0.72730  0.80820  Biso   1.000  C
  C3       1.0000 0.26530  0.76890  0.79510  Biso   1.000  C
  H2       1.0000 0.29690  0.81780  0.83460  Biso   1.000  H
  C4       1.0000 0.30860  0.73930  0.72480  Biso   1.000  C
  H3       1.0000 0.36870  0.76740  0.71790  Biso   1.000  H
  C5       1.0000 0.26270  0.66800  0.66490  Biso   1.000  C
  C6       1.0000 0.17290  0.62750  0.67660  Biso   1.000  C
  H4       1.0000 0.14160  0.58160  0.63590  Biso   1.000  H
  C7       1.0000 0.03550  0.59050  0.75580  Biso   1.000  C
  C8       1.0000 0.97220  0.60420  0.69480  Biso   1.000  C
  H5       1.0000 0.98610  0.66160  0.65140  Biso   1.000  H
  C9       1.0000 0.88820  0.53290  0.69750  Biso   1.000  C
  C10      1.0000 0.86740  0.45040  0.76320  Biso   1.000  C
  H6       1.0000 0.81120  0.40490  0.76650  Biso   1.000  H
  C11      1.0000 0.93000  0.43490  0.82440  Biso   1.000  C
  C12      1.0000 0.01370  0.50490  0.82120  Biso   1.000  C
  H7       1.0000 0.05500  0.49480  0.86250  Biso   1.000  H
  C13      1.0000 0.13520  0.77280  0.88620  Biso   1.000  C
  C14      1.0000 0.31110  0.62840  0.59010  Biso   1.000  C
  C15      1.0000 0.82030  0.55000  0.63340  Biso   1.000  C
  C16      1.0000 0.90870  0.33710  0.89370  Biso   1.000  C
  Ni3      1.0000 0.51905  0.33756  0.50486  Biso   1.000  Ni
  Ni4      1.0000 0.30535  0.40655  0.46149  Biso   1.000  Ni
  O10      1.0000 0.44620  0.30460  0.60950  Biso   1.000  O
  O11      1.0000 0.30810  0.27600  0.55700  Biso   1.000  O
  O12      1.0000 0.10440  0.14760  0.90910  Biso   1.000  O
  O13      1.0000 0.23590  0.07750  0.96620  Biso   1.000  O
  O14      1.0000 0.66430  0.12950  0.92550  Biso   1.000  O
  O15      1.0000 0.75540  0.98450  0.86110  Biso   1.000  O
  O16      1.0000 0.66330  0.76410  0.61060  Biso   1.000  O
  O17      1.0000 0.53640  0.83970  0.54970  Biso   1.000  O
  O18      1.0000 0.43170  0.47630  0.44980  Biso   1.000  O
  H8       1.0000 0.44610  0.47530  0.39340  Biso   1.000  H
  C17      1.0000 0.37230  0.15360  0.75220  Biso   1.000  C
  C18      1.0000 0.32480  0.22730  0.69180  Biso   1.000  C
  C19      1.0000 0.23470  0.26890  0.70490  Biso   1.000  C
  H9       1.0000 0.20310  0.31780  0.66540  Biso   1.000  H
  C20      1.0000 0.19140  0.23930  0.77520  Biso   1.000  C
  H10      1.0000 0.13130  0.26740  0.78210  Biso   1.000  H
  C21      1.0000 0.23730  0.16800  0.83510  Biso   1.000  C
  C22      1.0000 0.32710  0.12750  0.82340  Biso   1.000  C
  H11      1.0000 0.35840  0.08160  0.86410  Biso   1.000  H
  C23      1.0000 0.46450  0.09050  0.74420  Biso   1.000  C
  C24      1.0000 0.52780  0.10420  0.80520  Biso   1.000  C
  H12      1.0000 0.51390  0.16160  0.84860  Biso   1.000  H
  C25      1.0000 0.61180  0.03290  0.80250  Biso   1.000  C
  C26      1.0000 0.63260  0.95040  0.73680  Biso   1.000  C
  H13      1.0000 0.68880  0.90490  0.73350  Biso   1.000  H
  C27      1.0000 0.57000  0.93490  0.67560  Biso   1.000  C
  C28      1.0000 0.48630  0.00490  0.67880  Biso   1.000  C
  H14      1.0000 0.44500  0.99480  0.63750  Biso   1.000  H
  C29      1.0000 0.36480  0.27280  0.61380  Biso   1.000  C
  C30      1.0000 0.18890  0.12840  0.90990  Biso   1.000  C
  C31      1.0000 0.67970  0.05000  0.86660  Biso   1.000  C
  C32      1.0000 0.59130  0.83710  0.60630  Biso   1.000  C
  Ni5      1.0000 0.01905  0.16244  0.00486  Biso   1.000  Ni
  Ni6      1.0000 0.80535  0.09345  0.96149  Biso   1.000  Ni
  O19      1.0000 0.94620  0.19540  0.10950  Biso   1.000  O
  O20      1.0000 0.80810  0.22400  0.05700  Biso   1.000  O
  O21      1.0000 0.60440  0.35240  0.40910  Biso   1.000  O
  O22      1.0000 0.73590  0.42250  0.46620  Biso   1.000  O
  O23      1.0000 0.16430  0.37050  0.42550  Biso   1.000  O
  O24      1.0000 0.25540  0.51550  0.36110  Biso   1.000  O
  O25      1.0000 0.16330  0.73590  0.11060  Biso   1.000  O
  O26      1.0000 0.03640  0.66030  0.04970  Biso   1.000  O
  O27      1.0000 0.93170  0.02370  0.94980  Biso   1.000  O
  H15      1.0000 0.94610  0.02470  0.89340  Biso   1.000  H
  C33      1.0000 0.87230  0.34640  0.25220  Biso   1.000  C
  C34      1.0000 0.82480  0.27270  0.19180  Biso   1.000  C
  C35      1.0000 0.73470  0.23110  0.20490  Biso   1.000  C
  H16      1.0000 0.70310  0.18220  0.16540  Biso   1.000  H
  C36      1.0000 0.69140  0.26070  0.27520  Biso   1.000  C
  H17      1.0000 0.63130  0.23260  0.28210  Biso   1.000  H
  C37      1.0000 0.73730  0.33200  0.33510  Biso   1.000  C
  C38      1.0000 0.82710  0.37250  0.32340  Biso   1.000  C
  H18      1.0000 0.85840  0.41840  0.36410  Biso   1.000  H
  C39      1.0000 0.96450  0.40950  0.24420  Biso   1.000  C
  C40      1.0000 0.02780  0.39580  0.30520  Biso   1.000  C
  H19      1.0000 0.01390  0.33840  0.34860  Biso   1.000  H
  C41      1.0000 0.11180  0.46710  0.30250  Biso   1.000  C
  C42      1.0000 0.13260  0.54960  0.23680  Biso   1.000  C
  H20      1.0000 0.18880  0.59510  0.23350  Biso   1.000  H
  C43      1.0000 0.07000  0.56510  0.17560  Biso   1.000  C
  C44      1.0000 0.98630  0.49510  0.17880  Biso   1.000  C
  H21      1.0000 0.94500  0.50520  0.13750  Biso   1.000  H
  C45      1.0000 0.86480  0.22720  0.11380  Biso   1.000  C
  C46      1.0000 0.68890  0.37160  0.40990  Biso   1.000  C
  C47      1.0000 0.17970  0.45000  0.36660  Biso   1.000  C
  C48      1.0000 0.09130  0.66290  0.10630  Biso   1.000  C
  Ni7      1.0000 0.48095  0.66244  0.49514  Biso   1.000  Ni
  Ni8      1.0000 0.69465  0.59345  0.53851  Biso   1.000  Ni
  O28      1.0000 0.55380  0.69540  0.39050  Biso   1.000  O
  O29      1.0000 0.69190  0.72400  0.44300  Biso   1.000  O
  O30      1.0000 0.89560  0.85240  0.09090  Biso   1.000  O
  O31      1.0000 0.76410  0.92250  0.03380  Biso   1.000  O
  O32      1.0000 0.33570  0.87050  0.07450  Biso   1.000  O
  O33      1.0000 0.24460  0.01550  0.13890  Biso   1.000  O
  O34      1.0000 0.33670  0.23590  0.38940  Biso   1.000  O
  O35      1.0000 0.46360  0.16030  0.45030  Biso   1.000  O
  O36      1.0000 0.56830  0.52370  0.55020  Biso   1.000  O
  H22      1.0000 0.55390  0.52470  0.60660  Biso   1.000  H
  C49      1.0000 0.62770  0.84640  0.24780  Biso   1.000  C
  C50      1.0000 0.67520  0.77270  0.30820  Biso   1.000  C
  C51      1.0000 0.76530  0.73110  0.29510  Biso   1.000  C
  H23      1.0000 0.79690  0.68220  0.33460  Biso   1.000  H
  C52      1.0000 0.80860  0.76070  0.22480  Biso   1.000  C
  H24      1.0000 0.86870  0.73260  0.21790  Biso   1.000  H
  C53      1.0000 0.76270  0.83200  0.16490  Biso   1.000  C
  C54      1.0000 0.67290  0.87250  0.17660  Biso   1.000  C
  H25      1.0000 0.64160  0.91840  0.13590  Biso   1.000  H
  C55      1.0000 0.53550  0.90950  0.25580  Biso   1.000  C
  C56      1.0000 0.47220  0.89580  0.19480  Biso   1.000  C
  H26      1.0000 0.48610  0.83840  0.15140  Biso   1.000  H
  C57      1.0000 0.38820  0.96710  0.19750  Biso   1.000  C
  C58      1.0000 0.36740  0.04960  0.26320  Biso   1.000  C
  H27      1.0000 0.31120  0.09510  0.26650  Biso   1.000  H
  C59      1.0000 0.43000  0.06510  0.32440  Biso   1.000  C
  C60      1.0000 0.51370  0.99510  0.32120  Biso   1.000  C
  H28      1.0000 0.55500  0.00520  0.36250  Biso   1.000  H
  C61      1.0000 0.63520  0.72720  0.38620  Biso   1.000  C
  C62      1.0000 0.81110  0.87160  0.09010  Biso   1.000  C
  C63      1.0000 0.32030  0.95000  0.13340  Biso   1.000  C
  C64      1.0000 0.40870  0.16290  0.39370  Biso   1.000  C
