data_VOCKUT_clean
_audit_creation_date              2014-07-02
_audit_creation_method            'Materials Studio'
_symmetry_space_group_name_H-M    'P1'
_symmetry_Int_Tables_number       1
_symmetry_cell_setting            triclinic
loop_
_symmetry_equiv_pos_as_xyz
  x,y,z
_cell_length_a                    10.5344
_cell_length_b                    11.9073
_cell_length_c                    14.0461
_cell_angle_alpha                 106.6450
_cell_angle_beta                  101.9770
_cell_angle_gamma                 112.0780
loop_
_atom_site_label
_atom_site_type_symbol
_atom_site_fract_x
_atom_site_fract_y
_atom_site_fract_z
_atom_site_U_iso_or_equiv
_atom_site_adp_type
_atom_site_occupancy
Co1    Co    0.80851   0.00864   0.78720   0.01267  Uiso   1.00
Co2    Co    0.44871   0.72920   0.68837   0.01267  Uiso   1.00
Co3    Co    0.19149   0.99136   0.21280   0.01267  Uiso   1.00
Co4    Co    0.55129   0.27080   0.31163   0.01267  Uiso   1.00
H1     H     0.56400   0.97500   0.79000   0.01267  Uiso   1.00
H2     H     0.52400   0.95500   0.68900   0.01267  Uiso   1.00
H3     H     0.84580   0.85060   0.46990   0.01267  Uiso   1.00
H4     H     0.86120   0.72310   0.31510   0.01267  Uiso   1.00
H5     H     0.74490   0.49600   0.25360   0.01267  Uiso   1.00
H6     H     0.61420   0.51230   0.49640   0.01267  Uiso   1.00
H7     H     0.86180   0.43040   0.63880   0.01267  Uiso   1.00
H8     H     0.00630   0.48160   0.81170   0.01267  Uiso   1.00
H9     H     0.98270   0.31250   0.86680   0.01267  Uiso   1.00
H10    H     0.69440   0.04430   0.58560   0.01267  Uiso   1.00
H11    H     0.56040   0.81940   0.03890   0.01267  Uiso   1.00
H12    H     0.67680   0.89410   0.22390   0.01267  Uiso   1.00
H13    H     0.92320   0.95620   0.29250   0.01267  Uiso   1.00
H14    H     0.95270   0.89280   0.01020   0.01267  Uiso   1.00
H15    H     0.00670   0.22620   0.13840   0.01267  Uiso   1.00
H16    H     0.05940   0.30740   0.32320   0.01267  Uiso   1.00
H17    H     0.88210   0.32540   0.38930   0.01267  Uiso   1.00
H18    H     0.59290   0.16580   0.10040   0.01267  Uiso   1.00
H19    H     0.43600   0.02500   0.21000   0.01267  Uiso   1.00
H20    H     0.47600   0.04500   0.31100   0.01267  Uiso   1.00
H21    H     0.15420   0.14940   0.53010   0.01267  Uiso   1.00
H22    H     0.13880   0.27690   0.68490   0.01267  Uiso   1.00
H23    H     0.25510   0.50400   0.74640   0.01267  Uiso   1.00
H24    H     0.38580   0.48770   0.50360   0.01267  Uiso   1.00
H25    H     0.13820   0.56960   0.36120   0.01267  Uiso   1.00
H26    H     0.99370   0.51840   0.18830   0.01267  Uiso   1.00
H27    H     0.01730   0.68750   0.13320   0.01267  Uiso   1.00
H28    H     0.30560   0.95570   0.41440   0.01267  Uiso   1.00
H29    H     0.43960   0.18060   0.96110   0.01267  Uiso   1.00
H30    H     0.32320   0.10590   0.77610   0.01267  Uiso   1.00
H31    H     0.07680   0.04380   0.70750   0.01267  Uiso   1.00
H32    H     0.04730   0.10720   0.98980   0.01267  Uiso   1.00
H33    H     0.99330   0.77380   0.86160   0.01267  Uiso   1.00
H34    H     0.94060   0.69260   0.67680   0.01267  Uiso   1.00
H35    H     0.11790   0.67460   0.61070   0.01267  Uiso   1.00
H36    H     0.40710   0.83420   0.89960   0.01267  Uiso   1.00
C1     C     0.70040   0.76670   0.59390   0.01267  Uiso   1.00
C2     C     0.72420   0.69240   0.49810   0.01267  Uiso   1.00
C3     C     0.80040   0.75680   0.44440   0.01267  Uiso   1.00
C4     C     0.80890   0.68160   0.35320   0.01267  Uiso   1.00
C5     C     0.74110   0.54640   0.31800   0.01267  Uiso   1.00
C6     C     0.66380   0.55640   0.45840   0.01267  Uiso   1.00
C7     C     0.66690   0.19060   0.48130   0.01267  Uiso   1.00
C8     C     0.76290   0.23000   0.59390   0.01267  Uiso   1.00
C9     C     0.85610   0.36190   0.66220   0.01267  Uiso   1.00
C10    C     0.94020   0.39240   0.76440   0.01267  Uiso   1.00
C11    C     0.92600   0.29100   0.79600   0.01267  Uiso   1.00
C12    C     0.75720   0.13450   0.63210   0.01267  Uiso   1.00
C13    C     0.69080   0.81700   0.88820   0.01267  Uiso   1.00
C14    C     0.74740   0.85030   0.00560   0.01267  Uiso   1.00
C15    C     0.66250   0.84870   0.06890   0.01267  Uiso   1.00
C16    C     0.73120   0.89120   0.17790   0.01267  Uiso   1.00
C17    C     0.87820   0.92880   0.21820   0.01267  Uiso   1.00
C18    C     0.89460   0.89110   0.05370   0.01267  Uiso   1.00
C19    C     0.74310   0.13070   0.98040   0.01267  Uiso   1.00
C20    C     0.79240   0.18920   0.10010   0.01267  Uiso   1.00
C21    C     0.93350   0.23100   0.16670   0.01267  Uiso   1.00
C22    C     0.96460   0.28010   0.27570   0.01267  Uiso   1.00
C23    C     0.85800   0.28910   0.31450   0.01267  Uiso   1.00
C24    C     0.69030   0.19780   0.14600   0.01267  Uiso   1.00
C25    C     0.29960   0.23330   0.40610   0.01267  Uiso   1.00
C26    C     0.27580   0.30760   0.50190   0.01267  Uiso   1.00
C27    C     0.19960   0.24320   0.55560   0.01267  Uiso   1.00
C28    C     0.19110   0.31840   0.64680   0.01267  Uiso   1.00
C29    C     0.25890   0.45360   0.68200   0.01267  Uiso   1.00
C30    C     0.33620   0.44360   0.54160   0.01267  Uiso   1.00
C31    C     0.33310   0.80940   0.51870   0.01267  Uiso   1.00
C32    C     0.23710   0.77000   0.40610   0.01267  Uiso   1.00
C33    C     0.14390   0.63810   0.33780   0.01267  Uiso   1.00
C34    C     0.05980   0.60760   0.23560   0.01267  Uiso   1.00
C35    C     0.07400   0.70900   0.20400   0.01267  Uiso   1.00
C36    C     0.24280   0.86550   0.36790   0.01267  Uiso   1.00
C37    C     0.30920   0.18300   0.11180   0.01267  Uiso   1.00
C38    C     0.25260   0.14970   0.99440   0.01267  Uiso   1.00
C39    C     0.33750   0.15130   0.93110   0.01267  Uiso   1.00
C40    C     0.26880   0.10880   0.82210   0.01267  Uiso   1.00
C41    C     0.12180   0.07120   0.78180   0.01267  Uiso   1.00
C42    C     0.10540   0.10890   0.94630   0.01267  Uiso   1.00
C43    C     0.25690   0.86930   0.01960   0.01267  Uiso   1.00
C44    C     0.20760   0.81080   0.89990   0.01267  Uiso   1.00
C45    C     0.06650   0.76900   0.83330   0.01267  Uiso   1.00
C46    C     0.03540   0.71990   0.72430   0.01267  Uiso   1.00
C47    C     0.14200   0.71090   0.68550   0.01267  Uiso   1.00
C48    C     0.30970   0.80220   0.85400   0.01267  Uiso   1.00
N1     N     0.67070   0.48230   0.36900   0.01267  Uiso   1.00
N2     N     0.83600   0.16240   0.73210   0.01267  Uiso   1.00
N3     N     0.96050   0.92860   0.15810   0.01267  Uiso   1.00
N4     N     0.72140   0.24890   0.25160   0.01267  Uiso   1.00
N5     N     0.32930   0.51770   0.63100   0.01267  Uiso   1.00
N6     N     0.16400   0.83760   0.26790   0.01267  Uiso   1.00
N7     N     0.03950   0.07140   0.84190   0.01267  Uiso   1.00
N8     N     0.27860   0.75110   0.74840   0.01267  Uiso   1.00
O1     O     0.59880   0.69950   0.61820   0.01267  Uiso   1.00
O2     O     0.78480   0.88880   0.63980   0.01267  Uiso   1.00
O3     O     0.59730   0.07050   0.42370   0.01267  Uiso   1.00
O4     O     0.66650   0.28430   0.45650   0.01267  Uiso   1.00
O5     O     0.78410   0.86420   0.84920   0.01267  Uiso   1.00
O6     O     0.55340   0.74590   0.83770   0.01267  Uiso   1.00
O7     O     0.83900   0.13360   0.94020   0.01267  Uiso   1.00
O8     O     0.60820   0.08050   0.93080   0.01267  Uiso   1.00
O9     O     0.57480   0.93980   0.74160   0.01267  Uiso   1.00
O10    O     0.40120   0.30050   0.38180   0.01267  Uiso   1.00
O11    O     0.21520   0.11120   0.36020   0.01267  Uiso   1.00
O12    O     0.40270   0.92950   0.57630   0.01267  Uiso   1.00
O13    O     0.33350   0.71570   0.54350   0.01267  Uiso   1.00
O14    O     0.21590   0.13580   0.15080   0.01267  Uiso   1.00
O15    O     0.44660   0.25410   0.16230   0.01267  Uiso   1.00
O16    O     0.16100   0.86640   0.05980   0.01267  Uiso   1.00
O17    O     0.39180   0.91950   0.06920   0.01267  Uiso   1.00
O18    O     0.42520   0.06020   0.25840   0.01267  Uiso   1.00
