data_VOCPEK_clean
_audit_creation_date              2015-10-16
_audit_creation_method            'Materials Studio'
_symmetry_space_group_name_H-M    'P1'
_symmetry_Int_Tables_number       1
_symmetry_cell_setting            triclinic
loop_
_symmetry_equiv_pos_as_xyz
  x,y,z
_cell_length_a                    18.0330
_cell_length_b                    18.0330
_cell_length_c                    24.7430
_cell_angle_alpha                 90.0000
_cell_angle_beta                  90.0000
_cell_angle_gamma                 120.0000
loop_
_atom_site_label
_atom_site_type_symbol
_atom_site_fract_x
_atom_site_fract_y
_atom_site_fract_z
_atom_site_U_iso_or_equiv
_atom_site_adp_type
_atom_site_occupancy
Eu1    Eu    0.00000   0.00000   0.37534   0.01267  Uiso   1.00
Eu2    Eu    0.00000   0.00000   0.12466   0.01267  Uiso   1.00
Eu3    Eu    0.00000   0.00000   0.87534   0.01267  Uiso   1.00
Eu4    Eu    0.00000   0.00000   0.62466   0.01267  Uiso   1.00
Zn1    Zn    0.00000   0.66686   0.91407   0.01267  Uiso   1.00
Zn2    Zn    0.78890   0.78890   0.85652   0.01267  Uiso   1.00
Zn3    Zn    0.50000   0.50000   0.50000   0.01267  Uiso   1.00
Zn4    Zn    0.33333   0.66666   0.37254   0.01267  Uiso   1.00
Zn5    Zn    0.00000   0.50000   0.50000   0.01267  Uiso   1.00
Zn6    Zn    0.33314  -0.00000   0.08593   0.01267  Uiso   1.00
Zn7    Zn    0.21110   0.21110   0.35652   0.01267  Uiso   1.00
Zn8    Zn    0.00000   0.33314   0.41407   0.01267  Uiso   1.00
Zn9    Zn    0.50000   0.00000   0.50000   0.01267  Uiso   1.00
Zn10   Zn    0.33314  -0.00000   0.41407   0.01267  Uiso   1.00
Zn11   Zn    0.21110   0.21110   0.14348   0.01267  Uiso   1.00
Zn12   Zn    0.33333   0.66666   0.12746   0.01267  Uiso   1.00
Zn13   Zn    0.00000   0.66686   0.58593   0.01267  Uiso   1.00
Zn14   Zn    0.66667   0.33334   0.62746   0.01267  Uiso   1.00
Zn15   Zn    0.33314   0.33314   0.58593   0.01267  Uiso   1.00
Zn16   Zn    0.00000   0.21110   0.64348   0.01267  Uiso   1.00
Zn17   Zn    0.33333   0.66666   0.87254   0.01267  Uiso   1.00
Zn18   Zn    0.00000   0.50000   0.00000   0.01267  Uiso   1.00
Zn19   Zn    0.66667   0.33334   0.37254   0.01267  Uiso   1.00
Zn20   Zn    0.66686   0.66686   0.08593   0.01267  Uiso   1.00
Zn21   Zn    0.00000   0.33314   0.08593   0.01267  Uiso   1.00
Zn22   Zn    0.00000   0.21110   0.85652   0.01267  Uiso   1.00
Zn23   Zn    0.50000   0.00000   0.00000   0.01267  Uiso   1.00
Zn24   Zn    0.78890  -0.00000   0.14348   0.01267  Uiso   1.00
Zn25   Zn    0.00000   0.78890   0.14348   0.01267  Uiso   1.00
Zn26   Zn    0.50000   0.50000   0.00000   0.01267  Uiso   1.00
Zn27   Zn    0.33333   0.66666   0.62746   0.01267  Uiso   1.00
Zn28   Zn    0.66686   0.00000   0.91407   0.01267  Uiso   1.00
Zn29   Zn    0.00000   0.78890   0.35652   0.01267  Uiso   1.00
Zn30   Zn    0.78890   0.78890   0.64348   0.01267  Uiso   1.00
Zn31   Zn    0.78890  -0.00000   0.35652   0.01267  Uiso   1.00
Zn32   Zn    0.33314   0.33314   0.91407   0.01267  Uiso   1.00
Zn33   Zn    0.66667   0.33334   0.87254   0.01267  Uiso   1.00
Zn34   Zn    0.66686   0.00000   0.58593   0.01267  Uiso   1.00
Zn35   Zn    0.21110   0.00000   0.64348   0.01267  Uiso   1.00
Zn36   Zn    0.66686   0.66686   0.41407   0.01267  Uiso   1.00
Zn37   Zn    0.66667   0.33334   0.12746   0.01267  Uiso   1.00
Zn38   Zn    0.21110   0.00000   0.85652   0.01267  Uiso   1.00
H1     H     0.51380   0.76510   0.16370   0.01267  Uiso   1.00
H2     H     0.78640   0.78640   0.51850   0.01267  Uiso   1.00
H3     H     0.76510   0.51380   0.33630   0.01267  Uiso   1.00
H4     H     0.82540   0.59800   0.65100   0.01267  Uiso   1.00
H5     H     0.78640   0.00000   0.01850   0.01267  Uiso   1.00
H6     H     0.46150   0.82050   0.44620   0.01267  Uiso   1.00
H7     H     0.40200   0.17460   0.34900   0.01267  Uiso   1.00
H8     H     0.21360   0.21360   0.48150   0.01267  Uiso   1.00
H9     H     0.53850   0.35900   0.05380   0.01267  Uiso   1.00
H10    H     0.77260   0.59800   0.15100   0.01267  Uiso   1.00
H11    H     0.44660   0.44660   0.37400   0.01267  Uiso   1.00
H12    H     0.37780  -0.00000   0.84070   0.01267  Uiso   1.00
H13    H     0.82050   0.35900   0.94620   0.01267  Uiso   1.00
H14    H     0.35900   0.53850   0.44620   0.01267  Uiso   1.00
H15    H     0.51380   0.74870   0.66370   0.01267  Uiso   1.00
H16    H     0.82050   0.46150   0.05380   0.01267  Uiso   1.00
H17    H     0.25130   0.48620   0.16370   0.01267  Uiso   1.00
H18    H     0.25130   0.48620   0.33630   0.01267  Uiso   1.00
H19    H     0.82050   0.46150   0.44620   0.01267  Uiso   1.00
H20    H     0.22740   0.40200   0.84900   0.01267  Uiso   1.00
H21    H     0.35900   0.53850   0.05380   0.01267  Uiso   1.00
H22    H     0.76510   0.25130   0.83630   0.01267  Uiso   1.00
H23    H     0.62220   0.62220   0.84070   0.01267  Uiso   1.00
H24    H     0.35900   0.82050   0.94620   0.01267  Uiso   1.00
H25    H     0.48620   0.23490   0.83630   0.01267  Uiso   1.00
H26    H     0.44660   0.00000   0.87400   0.01267  Uiso   1.00
H27    H     0.53850   0.17950   0.94620   0.01267  Uiso   1.00
H28    H     0.21360  -0.00000   0.51850   0.01267  Uiso   1.00
H29    H     0.48620   0.23490   0.66370   0.01267  Uiso   1.00
H30    H     0.44660   0.44660   0.12600   0.01267  Uiso   1.00
H31    H     0.77260   0.59800   0.34900   0.01267  Uiso   1.00
H32    H     0.53850   0.35900   0.44620   0.01267  Uiso   1.00
H33    H     0.21360   0.21360   0.01850   0.01267  Uiso   1.00
H34    H     0.00000   0.37780   0.65930   0.01267  Uiso   1.00
H35    H     0.40200   0.17460   0.15100   0.01267  Uiso   1.00
H36    H     0.78640   0.78640   0.98150   0.01267  Uiso   1.00
H37    H     0.46150   0.82050   0.05380   0.01267  Uiso   1.00
H38    H     0.78640   0.00000   0.48150   0.01267  Uiso   1.00
H39    H     0.59800   0.82540   0.84900   0.01267  Uiso   1.00
H40    H     0.00000   0.21360   0.98150   0.01267  Uiso   1.00
H41    H     0.76510   0.51380   0.16370   0.01267  Uiso   1.00
H42    H     0.17460   0.77260   0.65100   0.01267  Uiso   1.00
H43    H     0.53850   0.17950   0.55380   0.01267  Uiso   1.00
H44    H     0.51380   0.76510   0.33630   0.01267  Uiso   1.00
H45    H     0.00000   0.44660   0.62600   0.01267  Uiso   1.00
H46    H     0.25130   0.76510   0.83630   0.01267  Uiso   1.00
H47    H     0.64100   0.46150   0.55380   0.01267  Uiso   1.00
H48    H     0.37780   0.37780   0.15930   0.01267  Uiso   1.00
H49    H     0.00000   0.55340   0.12600   0.01267  Uiso   1.00
H50    H     0.00000   0.21360   0.51850   0.01267  Uiso   1.00
H51    H     0.44660   0.00000   0.62600   0.01267  Uiso   1.00
H52    H     0.82540   0.22740   0.34900   0.01267  Uiso   1.00
H53    H     0.00000   0.62220   0.15930   0.01267  Uiso   1.00
H54    H     0.17950   0.64100   0.05380   0.01267  Uiso   1.00
H55    H     0.40200   0.22740   0.84900   0.01267  Uiso   1.00
H56    H     0.46150   0.64100   0.94620   0.01267  Uiso   1.00
H57    H     0.64100   0.17950   0.05380   0.01267  Uiso   1.00
H58    H     0.59800   0.82540   0.65100   0.01267  Uiso   1.00
H59    H     0.59800   0.77260   0.34900   0.01267  Uiso   1.00
H60    H     0.25130   0.76510   0.66370   0.01267  Uiso   1.00
H61    H     0.64100   0.46150   0.94620   0.01267  Uiso   1.00
H62    H     0.22740   0.82540   0.34900   0.01267  Uiso   1.00
H63    H     0.40200   0.22740   0.65100   0.01267  Uiso   1.00
H64    H     0.00000   0.78640   0.01850   0.01267  Uiso   1.00
H65    H     0.17460   0.40200   0.34900   0.01267  Uiso   1.00
H66    H     0.23490   0.74870   0.16370   0.01267  Uiso   1.00
H67    H     0.46150   0.64100   0.55380   0.01267  Uiso   1.00
H68    H     0.55340  -0.00000   0.37400   0.01267  Uiso   1.00
H69    H     0.21360  -0.00000   0.98150   0.01267  Uiso   1.00
H70    H     0.55340   0.55340   0.62600   0.01267  Uiso   1.00
H71    H     0.77260   0.17460   0.65100   0.01267  Uiso   1.00
H72    H     0.48620   0.25130   0.16370   0.01267  Uiso   1.00
H73    H     0.74870   0.23490   0.16370   0.01267  Uiso   1.00
H74    H     0.76510   0.25130   0.66370   0.01267  Uiso   1.00
H75    H     0.62220  -0.00000   0.15930   0.01267  Uiso   1.00
H76    H     0.00000   0.37780   0.84070   0.01267  Uiso   1.00
H77    H     0.23490   0.48620   0.66370   0.01267  Uiso   1.00
H78    H     0.17460   0.77260   0.84900   0.01267  Uiso   1.00
H79    H     0.23490   0.48620   0.83630   0.01267  Uiso   1.00
H80    H     0.00000   0.44660   0.87400   0.01267  Uiso   1.00
H81    H     0.37780  -0.00000   0.65930   0.01267  Uiso   1.00
H82    H     0.62220  -0.00000   0.34070   0.01267  Uiso   1.00
H83    H     0.74870   0.23490   0.33630   0.01267  Uiso   1.00
H84    H     0.48620   0.25130   0.33630   0.01267  Uiso   1.00
H85    H     0.82050   0.35900   0.55380   0.01267  Uiso   1.00
H86    H     0.82540   0.59800   0.84900   0.01267  Uiso   1.00
H87    H     0.51380   0.74870   0.83630   0.01267  Uiso   1.00
H88    H     0.17950   0.53850   0.55380   0.01267  Uiso   1.00
H89    H     0.74870   0.51380   0.83630   0.01267  Uiso   1.00
H90    H     0.55340   0.55340   0.87400   0.01267  Uiso   1.00
H91    H     0.77260   0.17460   0.84900   0.01267  Uiso   1.00
H92    H     0.17460   0.40200   0.15100   0.01267  Uiso   1.00
H93    H     0.00000   0.78640   0.48150   0.01267  Uiso   1.00
H94    H     0.22740   0.82540   0.15100   0.01267  Uiso   1.00
H95    H     0.62220   0.62220   0.65930   0.01267  Uiso   1.00
H96    H     0.35900   0.82050   0.55380   0.01267  Uiso   1.00
H97    H     0.23490   0.74870   0.33630   0.01267  Uiso   1.00
H98    H     0.59800   0.77260   0.15100   0.01267  Uiso   1.00
H99    H     0.22740   0.40200   0.65100   0.01267  Uiso   1.00
H100   H     0.64100   0.17950   0.44620   0.01267  Uiso   1.00
H101   H     0.17950   0.64100   0.44620   0.01267  Uiso   1.00
H102   H     0.55340  -0.00000   0.12600   0.01267  Uiso   1.00
H103   H     0.00000   0.62220   0.34070   0.01267  Uiso   1.00
H104   H     0.17950   0.53850   0.94620   0.01267  Uiso   1.00
H105   H     0.82540   0.22740   0.15100   0.01267  Uiso   1.00
H106   H     0.00000   0.55340   0.37400   0.01267  Uiso   1.00
H107   H     0.74870   0.51380   0.66370   0.01267  Uiso   1.00
H108   H     0.37780   0.37780   0.34070   0.01267  Uiso   1.00
C1     C     0.32050   0.49500   0.61540   0.01267  Uiso   1.00
C2     C     0.42200   0.58840   0.93150   0.01267  Uiso   1.00
C3     C     0.95030   0.15620   0.38880   0.01267  Uiso   1.00
C4     C     0.49500   0.17450   0.11540   0.01267  Uiso   1.00
C5     C     0.58840   0.42200   0.56850   0.01267  Uiso   1.00
C6     C     0.20590   0.15620   0.61120   0.01267  Uiso   1.00
C7     C     0.32050   0.49500   0.88460   0.01267  Uiso   1.00
C8     C     0.57800   0.16640   0.93150   0.01267  Uiso   1.00
C9     C     0.73810   0.78670   0.75000   0.01267  Uiso   1.00
C10    C     0.04860   0.26190   0.75000   0.01267  Uiso   1.00
C11    C     0.00000   0.35700   0.58200   0.01267  Uiso   1.00
C12    C     0.21330   0.26190   0.25000   0.01267  Uiso   1.00
C13    C     0.79410   0.95030   0.61120   0.01267  Uiso   1.00
C14    C     0.42200   0.83360   0.06850   0.01267  Uiso   1.00
C15    C     0.79410   0.84380   0.11120   0.01267  Uiso   1.00
C16    C     0.82550   0.32050   0.38460   0.01267  Uiso   1.00
C17    C     0.50500   0.82550   0.61540   0.01267  Uiso   1.00
C18    C     0.04970   0.84380   0.88880   0.01267  Uiso   1.00
C19    C     0.82550   0.32050   0.11540   0.01267  Uiso   1.00
C20    C     0.79410   0.84380   0.38880   0.01267  Uiso   1.00
C21    C     0.58840   0.42200   0.93150   0.01267  Uiso   1.00
C22    C     0.42200   0.83360   0.43150   0.01267  Uiso   1.00
C23    C     0.42200   0.58840   0.56850   0.01267  Uiso   1.00
C24    C     0.95030   0.79410   0.88880   0.01267  Uiso   1.00
C25    C     0.95140   0.21330   0.75000   0.01267  Uiso   1.00
C26    C     0.73780   0.73780   0.96900   0.01267  Uiso   1.00
C27    C     0.00000   0.64300   0.41800   0.01267  Uiso   1.00
C28    C     0.64300   0.64300   0.58200   0.01267  Uiso   1.00
C29    C     0.49500   0.17450   0.38460   0.01267  Uiso   1.00
C30    C     0.35700   0.00000   0.58200   0.01267  Uiso   1.00
C31    C     0.95030   0.15620   0.11120   0.01267  Uiso   1.00
C32    C     0.95030   0.79410   0.61120   0.01267  Uiso   1.00
C33    C     0.20590   0.15620   0.88880   0.01267  Uiso   1.00
C34    C     0.00000   0.26220   0.53100   0.01267  Uiso   1.00
C35    C     0.50500   0.82550   0.88460   0.01267  Uiso   1.00
C36    C     0.78670   0.04860   0.25000   0.01267  Uiso   1.00
C37    C     0.83360   0.41160   0.93150   0.01267  Uiso   1.00
C38    C     0.00000   0.35700   0.91800   0.01267  Uiso   1.00
C39    C     0.83360   0.42200   0.43150   0.01267  Uiso   1.00
C40    C     0.16640   0.57800   0.56850   0.01267  Uiso   1.00
C41    C     0.16640   0.57800   0.93150   0.01267  Uiso   1.00
C42    C     0.35700   0.00000   0.91800   0.01267  Uiso   1.00
C43    C     0.84380   0.04970   0.61120   0.01267  Uiso   1.00
C44    C     0.73810   0.95140   0.25000   0.01267  Uiso   1.00
C45    C     0.32050   0.82550   0.11540   0.01267  Uiso   1.00
C46    C     0.79410   0.95030   0.88880   0.01267  Uiso   1.00
C47    C     0.41160   0.83360   0.93150   0.01267  Uiso   1.00
C48    C     0.17450   0.49500   0.11540   0.01267  Uiso   1.00
C49    C     0.64300   0.00000   0.08200   0.01267  Uiso   1.00
C50    C     0.84380   0.79410   0.38880   0.01267  Uiso   1.00
C51    C     0.67950   0.50500   0.38460   0.01267  Uiso   1.00
C52    C     0.26220   0.26220   0.46900   0.01267  Uiso   1.00
C53    C     0.83360   0.41160   0.56850   0.01267  Uiso   1.00
C54    C     0.57800   0.41160   0.06850   0.01267  Uiso   1.00
C55    C     0.73780   0.00000   0.46900   0.01267  Uiso   1.00
C56    C     0.67950   0.17450   0.88460   0.01267  Uiso   1.00
C57    C     0.41160   0.57800   0.43150   0.01267  Uiso   1.00
C58    C     0.58840   0.16640   0.06850   0.01267  Uiso   1.00
C59    C     0.57800   0.16640   0.56850   0.01267  Uiso   1.00
C60    C     0.35700   0.35700   0.41800   0.01267  Uiso   1.00
C61    C     0.00000   0.73780   0.46900   0.01267  Uiso   1.00
C62    C     0.04970   0.20590   0.38880   0.01267  Uiso   1.00
C63    C     0.00000   0.64300   0.08200   0.01267  Uiso   1.00
C64    C     0.16640   0.58840   0.06850   0.01267  Uiso   1.00
C65    C     0.67950   0.17450   0.61540   0.01267  Uiso   1.00
C66    C     0.20590   0.04970   0.11120   0.01267  Uiso   1.00
C67    C     0.17450   0.67950   0.61540   0.01267  Uiso   1.00
C68    C     0.64300   0.64300   0.91800   0.01267  Uiso   1.00
C69    C     0.00000   0.26220   0.96900   0.01267  Uiso   1.00
C70    C     0.50500   0.67950   0.11540   0.01267  Uiso   1.00
C71    C     0.82550   0.50500   0.61540   0.01267  Uiso   1.00
C72    C     0.95140   0.73810   0.25000   0.01267  Uiso   1.00
C73    C     0.15620   0.95030   0.11120   0.01267  Uiso   1.00
C74    C     0.15620   0.95030   0.38880   0.01267  Uiso   1.00
C75    C     0.50500   0.67950   0.38460   0.01267  Uiso   1.00
C76    C     0.20590   0.04970   0.38880   0.01267  Uiso   1.00
C77    C     0.16640   0.58840   0.43150   0.01267  Uiso   1.00
C78    C     0.04970   0.20590   0.11120   0.01267  Uiso   1.00
C79    C     0.15620   0.20590   0.88880   0.01267  Uiso   1.00
C80    C     0.00000   0.73780   0.03100   0.01267  Uiso   1.00
C81    C     0.35700   0.35700   0.08200   0.01267  Uiso   1.00
C82    C     0.64300   0.00000   0.41800   0.01267  Uiso   1.00
C83    C     0.49500   0.32050   0.88460   0.01267  Uiso   1.00
C84    C     0.58840   0.16640   0.43150   0.01267  Uiso   1.00
C85    C     0.41160   0.57800   0.06850   0.01267  Uiso   1.00
C86    C     0.57800   0.41160   0.43150   0.01267  Uiso   1.00
C87    C     0.26190   0.21330   0.25000   0.01267  Uiso   1.00
C88    C     0.21330   0.95140   0.75000   0.01267  Uiso   1.00
C89    C     0.41160   0.83360   0.56850   0.01267  Uiso   1.00
C90    C     0.49500   0.32050   0.61540   0.01267  Uiso   1.00
C91    C     0.73780   0.00000   0.03100   0.01267  Uiso   1.00
C92    C     0.26220   0.26220   0.03100   0.01267  Uiso   1.00
C93    C     0.67950   0.50500   0.11540   0.01267  Uiso   1.00
C94    C     0.73780   0.73780   0.53100   0.01267  Uiso   1.00
C95    C     0.04860   0.78670   0.25000   0.01267  Uiso   1.00
C96    C     0.84380   0.79410   0.11120   0.01267  Uiso   1.00
C97    C     0.78670   0.73810   0.75000   0.01267  Uiso   1.00
C98    C     0.17450   0.49500   0.38460   0.01267  Uiso   1.00
C99    C     0.26220  -0.00000   0.96900   0.01267  Uiso   1.00
C100   C     0.04970   0.84380   0.61120   0.01267  Uiso   1.00
C101   C     0.15620   0.20590   0.61120   0.01267  Uiso   1.00
C102   C     0.32050   0.82550   0.38460   0.01267  Uiso   1.00
C103   C     0.17450   0.67950   0.88460   0.01267  Uiso   1.00
C104   C     0.26190   0.04860   0.75000   0.01267  Uiso   1.00
C105   C     0.83360   0.42200   0.06850   0.01267  Uiso   1.00
C106   C     0.82550   0.50500   0.88460   0.01267  Uiso   1.00
C107   C     0.26220  -0.00000   0.53100   0.01267  Uiso   1.00
C108   C     0.84380   0.04970   0.88880   0.01267  Uiso   1.00
N1     N     0.79660   0.25320   0.35300   0.01267  Uiso   1.00
N2     N     0.61620  -0.00000   0.46770   0.01267  Uiso   1.00
N3     N     0.28200   0.00000   0.91730   0.01267  Uiso   1.00
N4     N     0.32350  -0.00000   0.49940   0.01267  Uiso   1.00
N5     N     0.64500   0.54440   0.08710   0.01267  Uiso   1.00
N6     N     0.74680   0.54340   0.35300   0.01267  Uiso   1.00
N7     N     0.36130   0.78090   0.39570   0.01267  Uiso   1.00
N8     N     0.54440   0.89940   0.91290   0.01267  Uiso   1.00
N9     N     0.21910   0.63870   0.89570   0.01267  Uiso   1.00
N10    N     0.54340   0.74680   0.14700   0.01267  Uiso   1.00
N11    N     0.71800   0.71800   0.91730   0.01267  Uiso   1.00
N12    N     0.57820   0.09770   0.94360   0.01267  Uiso   1.00
N13    N     0.58040   0.21910   0.10430   0.01267  Uiso   1.00
N14    N     0.10060   0.64500   0.91290   0.01267  Uiso   1.00
N15    N     0.67650   0.67650   0.49940   0.01267  Uiso   1.00
N16    N     0.89940   0.54440   0.58710   0.01267  Uiso   1.00
N17    N     0.90230   0.42180   0.05640   0.01267  Uiso   1.00
N18    N     0.28200   0.28200   0.08270   0.01267  Uiso   1.00
N19    N     0.41960   0.78090   0.60430   0.01267  Uiso   1.00
N20    N     0.00000   0.38380   0.53230   0.01267  Uiso   1.00
N21    N     0.36130   0.58040   0.89570   0.01267  Uiso   1.00
N22    N     0.09770   0.51950   0.44360   0.01267  Uiso   1.00
N23    N     0.09770   0.51950   0.05640   0.01267  Uiso   1.00
N24    N     0.28200   0.28200   0.41730   0.01267  Uiso   1.00
N25    N     0.90230   0.42180   0.44360   0.01267  Uiso   1.00
N26    N     0.60100   0.60100   0.62810   0.01267  Uiso   1.00
N27    N     0.42180   0.51950   0.55640   0.01267  Uiso   1.00
N28    N     0.67650   0.67650   0.00060   0.01267  Uiso   1.00
N29    N     0.58040   0.21910   0.39570   0.01267  Uiso   1.00
N30    N     0.79660   0.54340   0.85300   0.01267  Uiso   1.00
N31    N     0.90230   0.48050   0.55640   0.01267  Uiso   1.00
N32    N     0.54340   0.79660   0.64700   0.01267  Uiso   1.00
N33    N     0.00000   0.67650   0.99940   0.01267  Uiso   1.00
N34    N     0.63870   0.21910   0.89570   0.01267  Uiso   1.00
N35    N     0.54340   0.74680   0.35300   0.01267  Uiso   1.00
N36    N     0.89940   0.54440   0.91290   0.01267  Uiso   1.00
N37    N     0.36130   0.78090   0.10430   0.01267  Uiso   1.00
N38    N     0.74680   0.54340   0.14700   0.01267  Uiso   1.00
N39    N     0.48050   0.57820   0.05640   0.01267  Uiso   1.00
N40    N     0.00000   0.28200   0.91730   0.01267  Uiso   1.00
N41    N     0.00000   0.39900   0.87190   0.01267  Uiso   1.00
N42    N     0.32350  -0.00000   0.00060   0.01267  Uiso   1.00
N43    N     0.38380   0.00000   0.96770   0.01267  Uiso   1.00
N44    N     0.45560   0.35500   0.58710   0.01267  Uiso   1.00
N45    N     0.61620  -0.00000   0.03230   0.01267  Uiso   1.00
N46    N     0.79660   0.25320   0.14700   0.01267  Uiso   1.00
N47    N     0.00000   0.61620   0.03230   0.01267  Uiso   1.00
N48    N     0.45560   0.10060   0.41290   0.01267  Uiso   1.00
N49    N     0.39900   0.39900   0.37190   0.01267  Uiso   1.00
N50    N     0.00000   0.28200   0.58270   0.01267  Uiso   1.00
N51    N     0.54440   0.89940   0.58710   0.01267  Uiso   1.00
N52    N     0.25320   0.45660   0.64700   0.01267  Uiso   1.00
N53    N     0.74680   0.20340   0.85300   0.01267  Uiso   1.00
N54    N     0.45660   0.25320   0.85300   0.01267  Uiso   1.00
N55    N     0.48050   0.57820   0.44360   0.01267  Uiso   1.00
N56    N     0.39900  -0.00000   0.87190   0.01267  Uiso   1.00
N57    N     0.35500   0.45560   0.91290   0.01267  Uiso   1.00
N58    N     0.25320   0.79660   0.35300   0.01267  Uiso   1.00
N59    N     0.79660   0.54340   0.64700   0.01267  Uiso   1.00
N60    N     0.38380   0.38380   0.03230   0.01267  Uiso   1.00
N61    N     0.64500   0.54440   0.41290   0.01267  Uiso   1.00
N62    N     0.38380   0.00000   0.53230   0.01267  Uiso   1.00
N63    N     0.60100   0.60100   0.87190   0.01267  Uiso   1.00
N64    N     0.89940   0.35500   0.41290   0.01267  Uiso   1.00
N65    N     0.21910   0.58040   0.10430   0.01267  Uiso   1.00
N66    N     0.09770   0.57820   0.94360   0.01267  Uiso   1.00
N67    N     0.00000   0.60100   0.12810   0.01267  Uiso   1.00
N68    N     0.67650  -0.00000   0.50060   0.01267  Uiso   1.00
N69    N     0.32350   0.32350   0.99940   0.01267  Uiso   1.00
N70    N     0.42180   0.90230   0.44360   0.01267  Uiso   1.00
N71    N     0.74680   0.20340   0.64700   0.01267  Uiso   1.00
N72    N     0.00000   0.67650   0.50060   0.01267  Uiso   1.00
N73    N     0.10060   0.45560   0.41290   0.01267  Uiso   1.00
N74    N     0.51950   0.42180   0.94360   0.01267  Uiso   1.00
N75    N     0.20340   0.45660   0.35300   0.01267  Uiso   1.00
N76    N     0.60100  -0.00000   0.37190   0.01267  Uiso   1.00
N77    N     0.45660   0.20340   0.14700   0.01267  Uiso   1.00
N78    N     0.78090   0.36130   0.39570   0.01267  Uiso   1.00
N79    N     0.00000   0.32350   0.49940   0.01267  Uiso   1.00
N80    N     0.64500   0.10060   0.58710   0.01267  Uiso   1.00
N81    N     0.71800   0.00000   0.08270   0.01267  Uiso   1.00
N82    N     0.71800   0.71800   0.58270   0.01267  Uiso   1.00
N83    N     0.32350   0.32350   0.50060   0.01267  Uiso   1.00
N84    N     0.20340   0.74680   0.85300   0.01267  Uiso   1.00
N85    N     0.48050   0.90230   0.94360   0.01267  Uiso   1.00
N86    N     0.51950   0.42180   0.55640   0.01267  Uiso   1.00
N87    N     0.41960   0.63870   0.10430   0.01267  Uiso   1.00
N88    N     0.35500   0.89940   0.08710   0.01267  Uiso   1.00
N89    N     0.54440   0.64500   0.41290   0.01267  Uiso   1.00
N90    N     0.51950   0.09770   0.44360   0.01267  Uiso   1.00
N91    N     0.78090   0.41960   0.60430   0.01267  Uiso   1.00
N92    N     0.57820   0.48050   0.44360   0.01267  Uiso   1.00
N93    N     0.42180   0.51950   0.94360   0.01267  Uiso   1.00
N94    N     0.00000   0.71800   0.08270   0.01267  Uiso   1.00
N95    N     0.00000   0.71800   0.41730   0.01267  Uiso   1.00
N96    N     0.21910   0.63870   0.60430   0.01267  Uiso   1.00
N97    N     0.61620   0.61620   0.96770   0.01267  Uiso   1.00
N98    N     0.09770   0.57820   0.55640   0.01267  Uiso   1.00
N99    N     0.58040   0.36130   0.89570   0.01267  Uiso   1.00
N100   N     0.63870   0.41960   0.10430   0.01267  Uiso   1.00
N101   N     0.63870   0.41960   0.39570   0.01267  Uiso   1.00
N102   N     0.63870   0.21910   0.60430   0.01267  Uiso   1.00
N103   N     0.10060   0.64500   0.58710   0.01267  Uiso   1.00
N104   N     0.57820   0.48050   0.05640   0.01267  Uiso   1.00
N105   N     0.90230   0.48050   0.94360   0.01267  Uiso   1.00
N106   N     0.00000   0.39900   0.62810   0.01267  Uiso   1.00
N107   N     0.57820   0.09770   0.55640   0.01267  Uiso   1.00
N108   N     0.51950   0.09770   0.05640   0.01267  Uiso   1.00
N109   N     0.54440   0.64500   0.08710   0.01267  Uiso   1.00
N110   N     0.45560   0.35500   0.91290   0.01267  Uiso   1.00
N111   N     0.35500   0.89940   0.41290   0.01267  Uiso   1.00
N112   N     0.41960   0.63870   0.39570   0.01267  Uiso   1.00
N113   N     0.35500   0.45560   0.58710   0.01267  Uiso   1.00
N114   N     0.61620   0.61620   0.53230   0.01267  Uiso   1.00
N115   N     0.54340   0.79660   0.85300   0.01267  Uiso   1.00
N116   N     0.00000   0.38380   0.96770   0.01267  Uiso   1.00
N117   N     0.48050   0.90230   0.55640   0.01267  Uiso   1.00
N118   N     0.39900   0.39900   0.12810   0.01267  Uiso   1.00
N119   N     0.36130   0.58040   0.60430   0.01267  Uiso   1.00
N120   N     0.71800   0.00000   0.41730   0.01267  Uiso   1.00
N121   N     0.58040   0.36130   0.60430   0.01267  Uiso   1.00
N122   N     0.64500   0.10060   0.91290   0.01267  Uiso   1.00
N123   N     0.00000   0.32350   0.00060   0.01267  Uiso   1.00
N124   N     0.41960   0.78090   0.89570   0.01267  Uiso   1.00
N125   N     0.78090   0.36130   0.10430   0.01267  Uiso   1.00
N126   N     0.45660   0.20340   0.35300   0.01267  Uiso   1.00
N127   N     0.60100  -0.00000   0.12810   0.01267  Uiso   1.00
N128   N     0.20340   0.45660   0.14700   0.01267  Uiso   1.00
N129   N     0.78090   0.41960   0.89570   0.01267  Uiso   1.00
N130   N     0.28200   0.00000   0.58270   0.01267  Uiso   1.00
N131   N     0.10060   0.45560   0.08710   0.01267  Uiso   1.00
N132   N     0.42180   0.90230   0.05640   0.01267  Uiso   1.00
N133   N     0.00000   0.60100   0.37190   0.01267  Uiso   1.00
N134   N     0.21910   0.58040   0.39570   0.01267  Uiso   1.00
N135   N     0.89940   0.35500   0.08710   0.01267  Uiso   1.00
N136   N     0.67650  -0.00000   0.99940   0.01267  Uiso   1.00
N137   N     0.38380   0.38380   0.46770   0.01267  Uiso   1.00
N138   N     0.25320   0.45660   0.85300   0.01267  Uiso   1.00
N139   N     0.25320   0.79660   0.14700   0.01267  Uiso   1.00
N140   N     0.20340   0.74680   0.64700   0.01267  Uiso   1.00
N141   N     0.39900  -0.00000   0.62810   0.01267  Uiso   1.00
N142   N     0.45660   0.25320   0.64700   0.01267  Uiso   1.00
N143   N     0.45560   0.10060   0.08710   0.01267  Uiso   1.00
N144   N     0.00000   0.61620   0.46770   0.01267  Uiso   1.00
Cl1    Cl    0.66280   0.66280   0.18060   0.01267  Uiso   1.00
Cl2    Cl    0.00000   0.00000   0.25000   0.01267  Uiso   1.00
Cl3    Cl    0.66280   0.00000   0.81940   0.01267  Uiso   1.00
Cl4    Cl    0.00000   0.33720   0.31940   0.01267  Uiso   1.00
Cl5    Cl    0.33720   0.33720   0.81940   0.01267  Uiso   1.00
Cl6    Cl    0.33720   0.00000   0.31940   0.01267  Uiso   1.00
Cl7    Cl    0.00000   0.66280   0.81940   0.01267  Uiso   1.00
Cl8    Cl    0.00000   0.00000   0.00000   0.01267  Uiso   1.00
Cl9    Cl    0.66280   0.00000   0.68060   0.01267  Uiso   1.00
Cl10   Cl    0.66280   0.66280   0.31940   0.01267  Uiso   1.00
Cl11   Cl    0.00000   0.66280   0.68060   0.01267  Uiso   1.00
Cl12   Cl    0.33720   0.00000   0.18060   0.01267  Uiso   1.00
Cl13   Cl    0.33720   0.33720   0.68060   0.01267  Uiso   1.00
Cl14   Cl    0.00000   0.33720   0.18060   0.01267  Uiso   1.00
Cl15   Cl    0.00000   0.00000   0.50000   0.01267  Uiso   1.00
Cl16   Cl    0.00000   0.00000   0.75000   0.01267  Uiso   1.00
O1     O     0.71950   0.80600   0.70620   0.01267  Uiso   1.00
O2     O     0.28050   0.08650   0.70620   0.01267  Uiso   1.00
O3     O     0.71780   0.91360   0.90170   0.01267  Uiso   1.00
O4     O     0.16480   0.07970   0.62380   0.01267  Uiso   1.00
O5     O     0.28220   0.19580   0.90170   0.01267  Uiso   1.00
O6     O     0.28220   0.08640   0.40170   0.01267  Uiso   1.00
O7     O     0.08510   0.16480   0.12380   0.01267  Uiso   1.00
O8     O     0.91490   0.83520   0.87620   0.01267  Uiso   1.00
O9     O     0.80420   0.71780   0.09830   0.01267  Uiso   1.00
O10    O     0.71780   0.91360   0.59830   0.01267  Uiso   1.00
O11    O     0.92030   0.08510   0.62380   0.01267  Uiso   1.00
O12    O     0.16480   0.08510   0.12380   0.01267  Uiso   1.00
O13    O     0.83520   0.91490   0.87620   0.01267  Uiso   1.00
O14    O     0.83520   0.91490   0.62380   0.01267  Uiso   1.00
O15    O     0.80600   0.08650   0.20620   0.01267  Uiso   1.00
O16    O     0.80600   0.08650   0.29380   0.01267  Uiso   1.00
O17    O     0.16480   0.08510   0.37620   0.01267  Uiso   1.00
O18    O     0.80420   0.71780   0.40170   0.01267  Uiso   1.00
O19    O     0.08510   0.16480   0.37620   0.01267  Uiso   1.00
O20    O     0.28050   0.08650   0.79380   0.01267  Uiso   1.00
O21    O     0.80600   0.71950   0.70620   0.01267  Uiso   1.00
O22    O     0.07970   0.16480   0.62380   0.01267  Uiso   1.00
O23    O     0.28050   0.19400   0.29380   0.01267  Uiso   1.00
O24    O     0.08640   0.80420   0.59830   0.01267  Uiso   1.00
O25    O     0.19400   0.91350   0.79380   0.01267  Uiso   1.00
O26    O     0.91350   0.71950   0.20620   0.01267  Uiso   1.00
O27    O     0.08640   0.80420   0.90170   0.01267  Uiso   1.00
O28    O     0.71950   0.91350   0.20620   0.01267  Uiso   1.00
O29    O     0.91360   0.19580   0.40170   0.01267  Uiso   1.00
O30    O     0.19580   0.91360   0.40170   0.01267  Uiso   1.00
O31    O     0.71780   0.80420   0.40170   0.01267  Uiso   1.00
O32    O     0.08640   0.28220   0.09830   0.01267  Uiso   1.00
O33    O     0.71950   0.80600   0.79380   0.01267  Uiso   1.00
O34    O     0.19400   0.28050   0.29380   0.01267  Uiso   1.00
O35    O     0.91490   0.07970   0.12380   0.01267  Uiso   1.00
O36    O     0.08650   0.80600   0.20620   0.01267  Uiso   1.00
O37    O     0.19580   0.28220   0.90170   0.01267  Uiso   1.00
O38    O     0.83520   0.92030   0.37620   0.01267  Uiso   1.00
O39    O     0.07970   0.91490   0.12380   0.01267  Uiso   1.00
O40    O     0.92030   0.83520   0.12380   0.01267  Uiso   1.00
O41    O     0.19580   0.28220   0.59830   0.01267  Uiso   1.00
O42    O     0.91350   0.19400   0.79380   0.01267  Uiso   1.00
O43    O     0.07970   0.16480   0.87620   0.01267  Uiso   1.00
O44    O     0.91360   0.71780   0.90170   0.01267  Uiso   1.00
O45    O     0.28220   0.19580   0.59830   0.01267  Uiso   1.00
O46    O     0.08650   0.28050   0.70620   0.01267  Uiso   1.00
O47    O     0.92030   0.08510   0.87620   0.01267  Uiso   1.00
O48    O     0.16480   0.07970   0.87620   0.01267  Uiso   1.00
O49    O     0.80420   0.08640   0.90170   0.01267  Uiso   1.00
O50    O     0.08650   0.28050   0.79380   0.01267  Uiso   1.00
O51    O     0.92030   0.83520   0.37620   0.01267  Uiso   1.00
O52    O     0.07970   0.91490   0.37620   0.01267  Uiso   1.00
O53    O     0.91350   0.19400   0.70620   0.01267  Uiso   1.00
O54    O     0.83520   0.92030   0.12380   0.01267  Uiso   1.00
O55    O     0.08510   0.92030   0.87620   0.01267  Uiso   1.00
O56    O     0.28220   0.08640   0.09830   0.01267  Uiso   1.00
O57    O     0.91490   0.07970   0.37620   0.01267  Uiso   1.00
O58    O     0.19400   0.28050   0.20620   0.01267  Uiso   1.00
O59    O     0.19400   0.91350   0.70620   0.01267  Uiso   1.00
O60    O     0.91490   0.83520   0.62380   0.01267  Uiso   1.00
O61    O     0.08640   0.28220   0.40170   0.01267  Uiso   1.00
O62    O     0.71780   0.80420   0.09830   0.01267  Uiso   1.00
O63    O     0.80420   0.08640   0.59830   0.01267  Uiso   1.00
O64    O     0.19580   0.91360   0.09830   0.01267  Uiso   1.00
O65    O     0.91360   0.19580   0.09830   0.01267  Uiso   1.00
O66    O     0.71950   0.91350   0.29380   0.01267  Uiso   1.00
O67    O     0.91350   0.71950   0.29380   0.01267  Uiso   1.00
O68    O     0.08510   0.92030   0.62380   0.01267  Uiso   1.00
O69    O     0.28050   0.19400   0.20620   0.01267  Uiso   1.00
O70    O     0.08650   0.80600   0.29380   0.01267  Uiso   1.00
O71    O     0.80600   0.71950   0.79380   0.01267  Uiso   1.00
O72    O     0.91360   0.71780   0.59830   0.01267  Uiso   1.00
