data_image0
_cell_length_a       14.0821
_cell_length_b       15.2498
_cell_length_c       18.6058
_cell_angle_alpha    90
_cell_angle_beta     106.747
_cell_angle_gamma    90

_symmetry_space_group_name_H-M    "P 1"
_symmetry_int_tables_number       1

loop_
  _symmetry_equiv_pos_as_xyz
  'x, y, z'

loop_
  _atom_site_label
  _atom_site_occupancy
  _atom_site_fract_x
  _atom_site_fract_y
  _atom_site_fract_z
  _atom_site_thermal_displace_type
  _atom_site_B_iso_or_equiv
  _atom_site_type_symbol
  Ni1      1.0000 0.36665  0.61992  0.21659  Biso   1.000  Ni
  O1       1.0000 0.32640  0.55400  0.11356  Biso   1.000  O
  O2       1.0000 0.43510  0.71110  0.16466  Biso   1.000  O
  C1       1.0000 0.38320  0.51230  0.08490  Biso   1.000  C
  C2       1.0000 0.51070  0.70310  0.14270  Biso   1.000  C
  O3       1.0000 0.46420  0.47770  0.12080  Biso   1.000  O
  N1       1.0000 0.28800  0.47390  0.76240  Biso   1.000  N
  C3       1.0000 0.17850  0.58740  0.82490  Biso   1.000  C
  H1       1.0000 0.14080  0.62630  0.84580  Biso   1.000  H
  C4       1.0000 0.25270  0.53600  0.87120  Biso   1.000  C
  C5       1.0000 0.27890  0.53990  0.95400  Biso   1.000  C
  H2       1.0000 0.23530  0.57200  0.97480  Biso   1.000  H
  C6       1.0000 0.30520  0.48050  0.83670  Biso   1.000  C
  H3       1.0000 0.35620  0.44530  0.86790  Biso   1.000  H
  C7       1.0000 0.35590  0.50380  0.00140  Biso   1.000  C
  H4       1.0000 0.39810  0.46920  0.98110  Biso   1.000  H
  C8       1.0000 0.16030  0.58120  0.74800  Biso   1.000  C
  H5       1.0000 0.11030  0.61620  0.71540  Biso   1.000  H
  C9       1.0000 0.21530  0.52370  0.71900  Biso   1.000  C
  H6       1.0000 0.20100  0.51920  0.66610  Biso   1.000  H
  O4       1.0000 0.59730  0.68240  0.18221  Biso   1.000  O
  N2       1.0000 0.26310  0.80670  0.82260  Biso   1.000  N
  C10      1.0000 0.38400  0.74740  0.93120  Biso   1.000  C
  C11      1.0000 0.30030  0.79510  0.89690  Biso   1.000  C
  H7       1.0000 0.26610  0.82190  0.92840  Biso   1.000  H
  C12      1.0000 0.41280  0.73980  0.01350  Biso   1.000  C
  H8       1.0000 0.36290  0.75470  0.03650  Biso   1.000  H
  C13      1.0000 0.49910  0.71490  0.06020  Biso   1.000  C
  H9       1.0000 0.55400  0.70450  0.04140  Biso   1.000  H
  C14      1.0000 0.31000  0.76740  0.77910  Biso   1.000  C
  H10      1.0000 0.28540  0.77480  0.72620  Biso   1.000  H
  C15      1.0000 0.39430  0.71570  0.80800  Biso   1.000  C
  H11      1.0000 0.42550  0.68780  0.77510  Biso   1.000  H
  C16      1.0000 0.43200  0.70540  0.88480  Biso   1.000  C
  H12      1.0000 0.48930  0.67050  0.90550  Biso   1.000  H
  Ni2      1.0000 0.86665  0.11992  0.21659  Biso   1.000  Ni
  O5       1.0000 0.82640  0.05400  0.11356  Biso   1.000  O
  O6       1.0000 0.93510  0.21110  0.16466  Biso   1.000  O
  C17      1.0000 0.88320  0.01230  0.08490  Biso   1.000  C
  C18      1.0000 0.01070  0.20310  0.14270  Biso   1.000  C
  O7       1.0000 0.96420  0.97770  0.12080  Biso   1.000  O
  N3       1.0000 0.78800  0.97390  0.76240  Biso   1.000  N
  C19      1.0000 0.67850  0.08740  0.82490  Biso   1.000  C
  H13      1.0000 0.64080  0.12630  0.84580  Biso   1.000  H
  C20      1.0000 0.75270  0.03600  0.87120  Biso   1.000  C
  C21      1.0000 0.77890  0.03990  0.95400  Biso   1.000  C
  H14      1.0000 0.73530  0.07200  0.97480  Biso   1.000  H
  C22      1.0000 0.80520  0.98050  0.83670  Biso   1.000  C
  H15      1.0000 0.85620  0.94530  0.86790  Biso   1.000  H
  C23      1.0000 0.85590  0.00380  0.00140  Biso   1.000  C
  H16      1.0000 0.89810  0.96920  0.98110  Biso   1.000  H
  C24      1.0000 0.66030  0.08120  0.74800  Biso   1.000  C
  H17      1.0000 0.61030  0.11620  0.71540  Biso   1.000  H
  C25      1.0000 0.71530  0.02370  0.71900  Biso   1.000  C
  H18      1.0000 0.70100  0.01920  0.66610  Biso   1.000  H
  O8       1.0000 0.09730  0.18240  0.18221  Biso   1.000  O
  N4       1.0000 0.76310  0.30670  0.82260  Biso   1.000  N
  C26      1.0000 0.88400  0.24740  0.93120  Biso   1.000  C
  C27      1.0000 0.80030  0.29510  0.89690  Biso   1.000  C
  H19      1.0000 0.76610  0.32190  0.92840  Biso   1.000  H
  C28      1.0000 0.91280  0.23980  0.01350  Biso   1.000  C
  H20      1.0000 0.86290  0.25470  0.03650  Biso   1.000  H
  C29      1.0000 0.99910  0.21490  0.06020  Biso   1.000  C
  H21      1.0000 0.05400  0.20450  0.04140  Biso   1.000  H
  C30      1.0000 0.81000  0.26740  0.77910  Biso   1.000  C
  H22      1.0000 0.78540  0.27480  0.72620  Biso   1.000  H
  C31      1.0000 0.89430  0.21570  0.80800  Biso   1.000  C
  H23      1.0000 0.92550  0.18780  0.77510  Biso   1.000  H
  C32      1.0000 0.93200  0.20540  0.88480  Biso   1.000  C
  H24      1.0000 0.98930  0.17050  0.90550  Biso   1.000  H
  Ni3      1.0000 0.63335  0.61992  0.28341  Biso   1.000  Ni
  O9       1.0000 0.67360  0.55400  0.38644  Biso   1.000  O
  O10      1.0000 0.56490  0.71110  0.33534  Biso   1.000  O
  C33      1.0000 0.61680  0.51230  0.41510  Biso   1.000  C
  C34      1.0000 0.48930  0.70310  0.35730  Biso   1.000  C
  O11      1.0000 0.53580  0.47770  0.37920  Biso   1.000  O
  N5       1.0000 0.71200  0.47390  0.73760  Biso   1.000  N
  C35      1.0000 0.82150  0.58740  0.67510  Biso   1.000  C
  H25      1.0000 0.85920  0.62630  0.65420  Biso   1.000  H
  C36      1.0000 0.74730  0.53600  0.62880  Biso   1.000  C
  C37      1.0000 0.72110  0.53990  0.54600  Biso   1.000  C
  H26      1.0000 0.76470  0.57200  0.52520  Biso   1.000  H
  C38      1.0000 0.69480  0.48050  0.66330  Biso   1.000  C
  H27      1.0000 0.64380  0.44530  0.63210  Biso   1.000  H
  C39      1.0000 0.64410  0.50380  0.49860  Biso   1.000  C
  H28      1.0000 0.60190  0.46920  0.51890  Biso   1.000  H
  C40      1.0000 0.83970  0.58120  0.75200  Biso   1.000  C
  H29      1.0000 0.88970  0.61620  0.78460  Biso   1.000  H
  C41      1.0000 0.78470  0.52370  0.78100  Biso   1.000  C
  H30      1.0000 0.79900  0.51920  0.83390  Biso   1.000  H
  O12      1.0000 0.40270  0.68240  0.31779  Biso   1.000  O
  N6       1.0000 0.73690  0.80670  0.67740  Biso   1.000  N
  C42      1.0000 0.61600  0.74740  0.56880  Biso   1.000  C
  C43      1.0000 0.69970  0.79510  0.60310  Biso   1.000  C
  H31      1.0000 0.73390  0.82190  0.57160  Biso   1.000  H
  C44      1.0000 0.58720  0.73980  0.48650  Biso   1.000  C
  H32      1.0000 0.63710  0.75470  0.46350  Biso   1.000  H
  C45      1.0000 0.50090  0.71490  0.43980  Biso   1.000  C
  H33      1.0000 0.44600  0.70450  0.45860  Biso   1.000  H
  C46      1.0000 0.69000  0.76740  0.72090  Biso   1.000  C
  H34      1.0000 0.71460  0.77480  0.77380  Biso   1.000  H
  C47      1.0000 0.60570  0.71570  0.69200  Biso   1.000  C
  H35      1.0000 0.57450  0.68780  0.72490  Biso   1.000  H
  C48      1.0000 0.56800  0.70540  0.61520  Biso   1.000  C
  H36      1.0000 0.51070  0.67050  0.59450  Biso   1.000  H
  Ni4      1.0000 0.13335  0.11992  0.28341  Biso   1.000  Ni
  O13      1.0000 0.17360  0.05400  0.38644  Biso   1.000  O
  O14      1.0000 0.06490  0.21110  0.33534  Biso   1.000  O
  C49      1.0000 0.11680  0.01230  0.41510  Biso   1.000  C
  C50      1.0000 0.98930  0.20310  0.35730  Biso   1.000  C
  O15      1.0000 0.03580  0.97770  0.37920  Biso   1.000  O
  N7       1.0000 0.21200  0.97390  0.73760  Biso   1.000  N
  C51      1.0000 0.32150  0.08740  0.67510  Biso   1.000  C
  H37      1.0000 0.35920  0.12630  0.65420  Biso   1.000  H
  C52      1.0000 0.24730  0.03600  0.62880  Biso   1.000  C
  C53      1.0000 0.22110  0.03990  0.54600  Biso   1.000  C
  H38      1.0000 0.26470  0.07200  0.52520  Biso   1.000  H
  C54      1.0000 0.19480  0.98050  0.66330  Biso   1.000  C
  H39      1.0000 0.14380  0.94530  0.63210  Biso   1.000  H
  C55      1.0000 0.14410  0.00380  0.49860  Biso   1.000  C
  H40      1.0000 0.10190  0.96920  0.51890  Biso   1.000  H
  C56      1.0000 0.33970  0.08120  0.75200  Biso   1.000  C
  H41      1.0000 0.38970  0.11620  0.78460  Biso   1.000  H
  C57      1.0000 0.28470  0.02370  0.78100  Biso   1.000  C
  H42      1.0000 0.29900  0.01920  0.83390  Biso   1.000  H
  O16      1.0000 0.90270  0.18240  0.31779  Biso   1.000  O
  N8       1.0000 0.23690  0.30670  0.67740  Biso   1.000  N
  C58      1.0000 0.11600  0.24740  0.56880  Biso   1.000  C
  C59      1.0000 0.19970  0.29510  0.60310  Biso   1.000  C
  H43      1.0000 0.23390  0.32190  0.57160  Biso   1.000  H
  C60      1.0000 0.08720  0.23980  0.48650  Biso   1.000  C
  H44      1.0000 0.13710  0.25470  0.46350  Biso   1.000  H
  C61      1.0000 0.00090  0.21490  0.43980  Biso   1.000  C
  H45      1.0000 0.94600  0.20450  0.45860  Biso   1.000  H
  C62      1.0000 0.19000  0.26740  0.72090  Biso   1.000  C
  H46      1.0000 0.21460  0.27480  0.77380  Biso   1.000  H
  C63      1.0000 0.10570  0.21570  0.69200  Biso   1.000  C
  H47      1.0000 0.07450  0.18780  0.72490  Biso   1.000  H
  C64      1.0000 0.06800  0.20540  0.61520  Biso   1.000  C
  H48      1.0000 0.01070  0.17050  0.59450  Biso   1.000  H
  Ni5      1.0000 0.63335  0.38008  0.78341  Biso   1.000  Ni
  O17      1.0000 0.67360  0.44600  0.88644  Biso   1.000  O
  O18      1.0000 0.56490  0.28890  0.83534  Biso   1.000  O
  C65      1.0000 0.61680  0.48770  0.91510  Biso   1.000  C
  C66      1.0000 0.48930  0.29690  0.85730  Biso   1.000  C
  O19      1.0000 0.53580  0.52230  0.87920  Biso   1.000  O
  N9       1.0000 0.71200  0.52610  0.23760  Biso   1.000  N
  C67      1.0000 0.82150  0.41260  0.17510  Biso   1.000  C
  H49      1.0000 0.85920  0.37370  0.15420  Biso   1.000  H
  C68      1.0000 0.74730  0.46400  0.12880  Biso   1.000  C
  C69      1.0000 0.72110  0.46010  0.04600  Biso   1.000  C
  H50      1.0000 0.76470  0.42800  0.02520  Biso   1.000  H
  C70      1.0000 0.69480  0.51950  0.16330  Biso   1.000  C
  H51      1.0000 0.64380  0.55470  0.13210  Biso   1.000  H
  C71      1.0000 0.64410  0.49620  0.99860  Biso   1.000  C
  H52      1.0000 0.60190  0.53080  0.01890  Biso   1.000  H
  C72      1.0000 0.83970  0.41880  0.25200  Biso   1.000  C
  H53      1.0000 0.88970  0.38380  0.28460  Biso   1.000  H
  C73      1.0000 0.78470  0.47630  0.28100  Biso   1.000  C
  H54      1.0000 0.79900  0.48080  0.33390  Biso   1.000  H
  O20      1.0000 0.40270  0.31760  0.81779  Biso   1.000  O
  N10      1.0000 0.73690  0.19330  0.17740  Biso   1.000  N
  C74      1.0000 0.61600  0.25260  0.06880  Biso   1.000  C
  C75      1.0000 0.69970  0.20490  0.10310  Biso   1.000  C
  H55      1.0000 0.73390  0.17810  0.07160  Biso   1.000  H
  C76      1.0000 0.58720  0.26020  0.98650  Biso   1.000  C
  H56      1.0000 0.63710  0.24530  0.96350  Biso   1.000  H
  C77      1.0000 0.50090  0.28510  0.93980  Biso   1.000  C
  H57      1.0000 0.44600  0.29550  0.95860  Biso   1.000  H
  C78      1.0000 0.69000  0.23260  0.22090  Biso   1.000  C
  H58      1.0000 0.71460  0.22520  0.27380  Biso   1.000  H
  C79      1.0000 0.60570  0.28430  0.19200  Biso   1.000  C
  H59      1.0000 0.57450  0.31220  0.22490  Biso   1.000  H
  C80      1.0000 0.56800  0.29460  0.11520  Biso   1.000  C
  H60      1.0000 0.51070  0.32950  0.09450  Biso   1.000  H
  Ni6      1.0000 0.13335  0.88008  0.78341  Biso   1.000  Ni
  O21      1.0000 0.17360  0.94600  0.88644  Biso   1.000  O
  O22      1.0000 0.06490  0.78890  0.83534  Biso   1.000  O
  C81      1.0000 0.11680  0.98770  0.91510  Biso   1.000  C
  C82      1.0000 0.98930  0.79690  0.85730  Biso   1.000  C
  O23      1.0000 0.03580  0.02230  0.87920  Biso   1.000  O
  N11      1.0000 0.21200  0.02610  0.23760  Biso   1.000  N
  C83      1.0000 0.32150  0.91260  0.17510  Biso   1.000  C
  H61      1.0000 0.35920  0.87370  0.15420  Biso   1.000  H
  C84      1.0000 0.24730  0.96400  0.12880  Biso   1.000  C
  C85      1.0000 0.22110  0.96010  0.04600  Biso   1.000  C
  H62      1.0000 0.26470  0.92800  0.02520  Biso   1.000  H
  C86      1.0000 0.19480  0.01950  0.16330  Biso   1.000  C
  H63      1.0000 0.14380  0.05470  0.13210  Biso   1.000  H
  C87      1.0000 0.14410  0.99620  0.99860  Biso   1.000  C
  H64      1.0000 0.10190  0.03080  0.01890  Biso   1.000  H
  C88      1.0000 0.33970  0.91880  0.25200  Biso   1.000  C
  H65      1.0000 0.38970  0.88380  0.28460  Biso   1.000  H
  C89      1.0000 0.28470  0.97630  0.28100  Biso   1.000  C
  H66      1.0000 0.29900  0.98080  0.33390  Biso   1.000  H
  O24      1.0000 0.90270  0.81760  0.81779  Biso   1.000  O
  N12      1.0000 0.23690  0.69330  0.17740  Biso   1.000  N
  C90      1.0000 0.11600  0.75260  0.06880  Biso   1.000  C
  C91      1.0000 0.19970  0.70490  0.10310  Biso   1.000  C
  H67      1.0000 0.23390  0.67810  0.07160  Biso   1.000  H
  C92      1.0000 0.08720  0.76020  0.98650  Biso   1.000  C
  H68      1.0000 0.13710  0.74530  0.96350  Biso   1.000  H
  C93      1.0000 0.00090  0.78510  0.93980  Biso   1.000  C
  H69      1.0000 0.94600  0.79550  0.95860  Biso   1.000  H
  C94      1.0000 0.19000  0.73260  0.22090  Biso   1.000  C
  H70      1.0000 0.21460  0.72520  0.27380  Biso   1.000  H
  C95      1.0000 0.10570  0.78430  0.19200  Biso   1.000  C
  H71      1.0000 0.07450  0.81220  0.22490  Biso   1.000  H
  C96      1.0000 0.06800  0.79460  0.11520  Biso   1.000  C
  H72      1.0000 0.01070  0.82950  0.09450  Biso   1.000  H
  Ni7      1.0000 0.36665  0.38008  0.71659  Biso   1.000  Ni
  O25      1.0000 0.32640  0.44600  0.61356  Biso   1.000  O
  O26      1.0000 0.43510  0.28890  0.66466  Biso   1.000  O
  C97      1.0000 0.38320  0.48770  0.58490  Biso   1.000  C
  C98      1.0000 0.51070  0.29690  0.64270  Biso   1.000  C
  O27      1.0000 0.46420  0.52230  0.62080  Biso   1.000  O
  N13      1.0000 0.28800  0.52610  0.26240  Biso   1.000  N
  C99      1.0000 0.17850  0.41260  0.32490  Biso   1.000  C
  H73      1.0000 0.14080  0.37370  0.34580  Biso   1.000  H
  C100     1.0000 0.25270  0.46400  0.37120  Biso   1.000  C
  C101     1.0000 0.27890  0.46010  0.45400  Biso   1.000  C
  H74      1.0000 0.23530  0.42800  0.47480  Biso   1.000  H
  C102     1.0000 0.30520  0.51950  0.33670  Biso   1.000  C
  H75      1.0000 0.35620  0.55470  0.36790  Biso   1.000  H
  C103     1.0000 0.35590  0.49620  0.50140  Biso   1.000  C
  H76      1.0000 0.39810  0.53080  0.48110  Biso   1.000  H
  C104     1.0000 0.16030  0.41880  0.24800  Biso   1.000  C
  H77      1.0000 0.11030  0.38380  0.21540  Biso   1.000  H
  C105     1.0000 0.21530  0.47630  0.21900  Biso   1.000  C
  H78      1.0000 0.20100  0.48080  0.16610  Biso   1.000  H
  O28      1.0000 0.59730  0.31760  0.68221  Biso   1.000  O
  N14      1.0000 0.26310  0.19330  0.32260  Biso   1.000  N
  C106     1.0000 0.38400  0.25260  0.43120  Biso   1.000  C
  C107     1.0000 0.30030  0.20490  0.39690  Biso   1.000  C
  H79      1.0000 0.26610  0.17810  0.42840  Biso   1.000  H
  C108     1.0000 0.41280  0.26020  0.51350  Biso   1.000  C
  H80      1.0000 0.36290  0.24530  0.53650  Biso   1.000  H
  C109     1.0000 0.49910  0.28510  0.56020  Biso   1.000  C
  H81      1.0000 0.55400  0.29550  0.54140  Biso   1.000  H
  C110     1.0000 0.31000  0.23260  0.27910  Biso   1.000  C
  H82      1.0000 0.28540  0.22520  0.22620  Biso   1.000  H
  C111     1.0000 0.39430  0.28430  0.30800  Biso   1.000  C
  H83      1.0000 0.42550  0.31220  0.27510  Biso   1.000  H
  C112     1.0000 0.43200  0.29460  0.38480  Biso   1.000  C
  H84      1.0000 0.48930  0.32950  0.40550  Biso   1.000  H
  Ni8      1.0000 0.86665  0.88008  0.71659  Biso   1.000  Ni
  O29      1.0000 0.82640  0.94600  0.61356  Biso   1.000  O
  O30      1.0000 0.93510  0.78890  0.66466  Biso   1.000  O
  C113     1.0000 0.88320  0.98770  0.58490  Biso   1.000  C
  C114     1.0000 0.01070  0.79690  0.64270  Biso   1.000  C
  O31      1.0000 0.96420  0.02230  0.62080  Biso   1.000  O
  N15      1.0000 0.78800  0.02610  0.26240  Biso   1.000  N
  C115     1.0000 0.67850  0.91260  0.32490  Biso   1.000  C
  H85      1.0000 0.64080  0.87370  0.34580  Biso   1.000  H
  C116     1.0000 0.75270  0.96400  0.37120  Biso   1.000  C
  C117     1.0000 0.77890  0.96010  0.45400  Biso   1.000  C
  H86      1.0000 0.73530  0.92800  0.47480  Biso   1.000  H
  C118     1.0000 0.80520  0.01950  0.33670  Biso   1.000  C
  H87      1.0000 0.85620  0.05470  0.36790  Biso   1.000  H
  C119     1.0000 0.85590  0.99620  0.50140  Biso   1.000  C
  H88      1.0000 0.89810  0.03080  0.48110  Biso   1.000  H
  C120     1.0000 0.66030  0.91880  0.24800  Biso   1.000  C
  H89      1.0000 0.61030  0.88380  0.21540  Biso   1.000  H
  C121     1.0000 0.71530  0.97630  0.21900  Biso   1.000  C
  H90      1.0000 0.70100  0.98080  0.16610  Biso   1.000  H
  O32      1.0000 0.09730  0.81760  0.68221  Biso   1.000  O
  N16      1.0000 0.76310  0.69330  0.32260  Biso   1.000  N
  C122     1.0000 0.88400  0.75260  0.43120  Biso   1.000  C
  C123     1.0000 0.80030  0.70490  0.39690  Biso   1.000  C
  H91      1.0000 0.76610  0.67810  0.42840  Biso   1.000  H
  C124     1.0000 0.91280  0.76020  0.51350  Biso   1.000  C
  H92      1.0000 0.86290  0.74530  0.53650  Biso   1.000  H
  C125     1.0000 0.99910  0.78510  0.56020  Biso   1.000  C
  H93      1.0000 0.05400  0.79550  0.54140  Biso   1.000  H
  C126     1.0000 0.81000  0.73260  0.27910  Biso   1.000  C
  H94      1.0000 0.78540  0.72520  0.22620  Biso   1.000  H
  C127     1.0000 0.89430  0.78430  0.30800  Biso   1.000  C
  H95      1.0000 0.92550  0.81220  0.27510  Biso   1.000  H
  C128     1.0000 0.93200  0.79460  0.38480  Biso   1.000  C
  H96      1.0000 0.98930  0.82950  0.40550  Biso   1.000  H
  O33      1.0000 0.50000  0.54860  0.25000  Biso   1.000  O
  H97      1.0000 0.50000  0.48630  0.25000  Biso   1.000  H
  O34      1.0000 0.00000  0.04860  0.25000  Biso   1.000  O
  H98      1.0000 0.00000  0.98630  0.25000  Biso   1.000  H
  O35      1.0000 0.50000  0.45140  0.75000  Biso   1.000  O
  H99      1.0000 0.50000  0.51370  0.75000  Biso   1.000  H
  O36      1.0000 0.00000  0.95140  0.75000  Biso   1.000  O
  H100     1.0000 0.00000  0.01370  0.75000  Biso   1.000  H
