data_image0
_cell_length_a       14.0822
_cell_length_b       15.2781
_cell_length_c       18.5374
_cell_angle_alpha    90
_cell_angle_beta     105.36
_cell_angle_gamma    90

_symmetry_space_group_name_H-M    "P 1"
_symmetry_int_tables_number       1

loop_
  _symmetry_equiv_pos_as_xyz
  'x, y, z'

loop_
  _atom_site_label
  _atom_site_occupancy
  _atom_site_fract_x
  _atom_site_fract_y
  _atom_site_fract_z
  _atom_site_thermal_displace_type
  _atom_site_B_iso_or_equiv
  _atom_site_type_symbol
  Co1      1.0000 0.86579  0.62735  0.21686  Biso   1.000  Co
  O1       1.0000 0.90120  0.68790  0.31950  Biso   1.000  O
  C1       1.0000 0.98750  0.70550  0.35850  Biso   1.000  C
  C2       1.0000 0.77580  0.54130  0.95460  Biso   1.000  C
  H1       1.0000 0.73180  0.57250  0.97610  Biso   1.000  H
  C3       1.0000 0.99920  0.71270  0.44230  Biso   1.000  C
  H2       1.0000 0.94560  0.69860  0.46240  Biso   1.000  H
  C4       1.0000 0.85630  0.50820  0.00120  Biso   1.000  C
  H3       1.0000 0.89990  0.47570  0.98020  Biso   1.000  H
  C5       1.0000 0.88330  0.51870  0.08540  Biso   1.000  C
  O2       1.0000 0.82680  0.55870  0.11550  Biso   1.000  O
  O3       1.0000 0.96400  0.48530  0.11890  Biso   1.000  O
  C6       1.0000 0.65750  0.57530  0.75130  Biso   1.000  C
  H4       1.0000 0.60770  0.60980  0.71920  Biso   1.000  H
  C7       1.0000 0.67510  0.58450  0.82780  Biso   1.000  C
  H5       1.0000 0.63790  0.62400  0.84890  Biso   1.000  H
  C8       1.0000 0.74920  0.53360  0.87260  Biso   1.000  C
  C9       1.0000 0.70970  0.51850  0.72120  Biso   1.000  C
  H6       1.0000 0.69430  0.51340  0.66830  Biso   1.000  H
  C10      1.0000 0.79920  0.47680  0.83820  Biso   1.000  C
  H7       1.0000 0.84840  0.44110  0.86940  Biso   1.000  H
  N1       1.0000 0.78390  0.46800  0.76380  Biso   1.000  N
  O4       1.0000 0.06250  0.71550  0.33560  Biso   1.000  O
  N2       1.0000 0.23460  0.79760  0.67820  Biso   1.000  N
  C11      1.0000 0.19700  0.78950  0.60340  Biso   1.000  C
  H8       1.0000 0.23020  0.81820  0.57170  Biso   1.000  H
  C12      1.0000 0.11350  0.74220  0.57020  Biso   1.000  C
  C13      1.0000 0.06600  0.69720  0.61580  Biso   1.000  C
  H9       1.0000 0.00960  0.66190  0.59550  Biso   1.000  H
  C14      1.0000 0.08400  0.73860  0.48710  Biso   1.000  C
  H10      1.0000 0.13220  0.75730  0.46300  Biso   1.000  H
  C15      1.0000 0.18760  0.75680  0.72140  Biso   1.000  C
  H11      1.0000 0.21130  0.76240  0.77420  Biso   1.000  H
  C16      1.0000 0.10500  0.70640  0.69200  Biso   1.000  C
  H12      1.0000 0.07420  0.67730  0.72510  Biso   1.000  H
  Co2      1.0000 0.36579  0.12735  0.21686  Biso   1.000  Co
  O5       1.0000 0.40120  0.18790  0.31950  Biso   1.000  O
  C17      1.0000 0.48750  0.20550  0.35850  Biso   1.000  C
  C18      1.0000 0.27580  0.04130  0.95460  Biso   1.000  C
  H13      1.0000 0.23180  0.07250  0.97610  Biso   1.000  H
  C19      1.0000 0.49920  0.21270  0.44230  Biso   1.000  C
  H14      1.0000 0.44560  0.19860  0.46240  Biso   1.000  H
  C20      1.0000 0.35630  0.00820  0.00120  Biso   1.000  C
  H15      1.0000 0.39990  0.97570  0.98020  Biso   1.000  H
  C21      1.0000 0.38330  0.01870  0.08540  Biso   1.000  C
  O6       1.0000 0.32680  0.05870  0.11550  Biso   1.000  O
  O7       1.0000 0.46400  0.98530  0.11890  Biso   1.000  O
  C22      1.0000 0.15750  0.07530  0.75130  Biso   1.000  C
  H16      1.0000 0.10770  0.10980  0.71920  Biso   1.000  H
  C23      1.0000 0.17510  0.08450  0.82780  Biso   1.000  C
  H17      1.0000 0.13790  0.12400  0.84890  Biso   1.000  H
  C24      1.0000 0.24920  0.03360  0.87260  Biso   1.000  C
  C25      1.0000 0.20970  0.01850  0.72120  Biso   1.000  C
  H18      1.0000 0.19430  0.01340  0.66830  Biso   1.000  H
  C26      1.0000 0.29920  0.97680  0.83820  Biso   1.000  C
  H19      1.0000 0.34840  0.94110  0.86940  Biso   1.000  H
  N3       1.0000 0.28390  0.96800  0.76380  Biso   1.000  N
  O8       1.0000 0.56250  0.21550  0.33560  Biso   1.000  O
  N4       1.0000 0.73460  0.29760  0.67820  Biso   1.000  N
  C27      1.0000 0.69700  0.28950  0.60340  Biso   1.000  C
  H20      1.0000 0.73020  0.31820  0.57170  Biso   1.000  H
  C28      1.0000 0.61350  0.24220  0.57020  Biso   1.000  C
  C29      1.0000 0.56600  0.19720  0.61580  Biso   1.000  C
  H21      1.0000 0.50960  0.16190  0.59550  Biso   1.000  H
  C30      1.0000 0.58400  0.23860  0.48710  Biso   1.000  C
  H22      1.0000 0.63220  0.25730  0.46300  Biso   1.000  H
  C31      1.0000 0.68760  0.25680  0.72140  Biso   1.000  C
  H23      1.0000 0.71130  0.26240  0.77420  Biso   1.000  H
  C32      1.0000 0.60500  0.20640  0.69200  Biso   1.000  C
  H24      1.0000 0.57420  0.17730  0.72510  Biso   1.000  H
  Co3      1.0000 0.13421  0.62735  0.28314  Biso   1.000  Co
  O9       1.0000 0.09880  0.68790  0.18050  Biso   1.000  O
  C33      1.0000 0.01250  0.70550  0.14150  Biso   1.000  C
  C34      1.0000 0.22420  0.54130  0.54540  Biso   1.000  C
  H25      1.0000 0.26820  0.57250  0.52390  Biso   1.000  H
  C35      1.0000 0.00080  0.71270  0.05770  Biso   1.000  C
  H26      1.0000 0.05440  0.69860  0.03760  Biso   1.000  H
  C36      1.0000 0.14370  0.50820  0.49880  Biso   1.000  C
  H27      1.0000 0.10010  0.47570  0.51980  Biso   1.000  H
  C37      1.0000 0.11670  0.51870  0.41460  Biso   1.000  C
  O10      1.0000 0.17320  0.55870  0.38450  Biso   1.000  O
  O11      1.0000 0.03600  0.48530  0.38110  Biso   1.000  O
  C38      1.0000 0.34250  0.57530  0.74870  Biso   1.000  C
  H28      1.0000 0.39230  0.60980  0.78080  Biso   1.000  H
  C39      1.0000 0.32490  0.58450  0.67220  Biso   1.000  C
  H29      1.0000 0.36210  0.62400  0.65110  Biso   1.000  H
  C40      1.0000 0.25080  0.53360  0.62740  Biso   1.000  C
  C41      1.0000 0.29030  0.51850  0.77880  Biso   1.000  C
  H30      1.0000 0.30570  0.51340  0.83170  Biso   1.000  H
  C42      1.0000 0.20080  0.47680  0.66180  Biso   1.000  C
  H31      1.0000 0.15160  0.44110  0.63060  Biso   1.000  H
  N5       1.0000 0.21610  0.46800  0.73620  Biso   1.000  N
  O12      1.0000 0.93750  0.71550  0.16440  Biso   1.000  O
  N6       1.0000 0.76540  0.79760  0.82180  Biso   1.000  N
  C43      1.0000 0.80300  0.78950  0.89660  Biso   1.000  C
  H32      1.0000 0.76980  0.81820  0.92830  Biso   1.000  H
  C44      1.0000 0.88650  0.74220  0.92980  Biso   1.000  C
  C45      1.0000 0.93400  0.69720  0.88420  Biso   1.000  C
  H33      1.0000 0.99040  0.66190  0.90450  Biso   1.000  H
  C46      1.0000 0.91600  0.73860  0.01290  Biso   1.000  C
  H34      1.0000 0.86780  0.75730  0.03700  Biso   1.000  H
  C47      1.0000 0.81240  0.75680  0.77860  Biso   1.000  C
  H35      1.0000 0.78870  0.76240  0.72580  Biso   1.000  H
  C48      1.0000 0.89500  0.70640  0.80800  Biso   1.000  C
  H36      1.0000 0.92580  0.67730  0.77490  Biso   1.000  H
  Co4      1.0000 0.63421  0.12735  0.28314  Biso   1.000  Co
  O13      1.0000 0.59880  0.18790  0.18050  Biso   1.000  O
  C49      1.0000 0.51250  0.20550  0.14150  Biso   1.000  C
  C50      1.0000 0.72420  0.04130  0.54540  Biso   1.000  C
  H37      1.0000 0.76820  0.07250  0.52390  Biso   1.000  H
  C51      1.0000 0.50080  0.21270  0.05770  Biso   1.000  C
  H38      1.0000 0.55440  0.19860  0.03760  Biso   1.000  H
  C52      1.0000 0.64370  0.00820  0.49880  Biso   1.000  C
  H39      1.0000 0.60010  0.97570  0.51980  Biso   1.000  H
  C53      1.0000 0.61670  0.01870  0.41460  Biso   1.000  C
  O14      1.0000 0.67320  0.05870  0.38450  Biso   1.000  O
  O15      1.0000 0.53600  0.98530  0.38110  Biso   1.000  O
  C54      1.0000 0.84250  0.07530  0.74870  Biso   1.000  C
  H40      1.0000 0.89230  0.10980  0.78080  Biso   1.000  H
  C55      1.0000 0.82490  0.08450  0.67220  Biso   1.000  C
  H41      1.0000 0.86210  0.12400  0.65110  Biso   1.000  H
  C56      1.0000 0.75080  0.03360  0.62740  Biso   1.000  C
  C57      1.0000 0.79030  0.01850  0.77880  Biso   1.000  C
  H42      1.0000 0.80570  0.01340  0.83170  Biso   1.000  H
  C58      1.0000 0.70080  0.97680  0.66180  Biso   1.000  C
  H43      1.0000 0.65160  0.94110  0.63060  Biso   1.000  H
  N7       1.0000 0.71610  0.96800  0.73620  Biso   1.000  N
  O16      1.0000 0.43750  0.21550  0.16440  Biso   1.000  O
  N8       1.0000 0.26540  0.29760  0.82180  Biso   1.000  N
  C59      1.0000 0.30300  0.28950  0.89660  Biso   1.000  C
  H44      1.0000 0.26980  0.31820  0.92830  Biso   1.000  H
  C60      1.0000 0.38650  0.24220  0.92980  Biso   1.000  C
  C61      1.0000 0.43400  0.19720  0.88420  Biso   1.000  C
  H45      1.0000 0.49040  0.16190  0.90450  Biso   1.000  H
  C62      1.0000 0.41600  0.23860  0.01290  Biso   1.000  C
  H46      1.0000 0.36780  0.25730  0.03700  Biso   1.000  H
  C63      1.0000 0.31240  0.25680  0.77860  Biso   1.000  C
  H47      1.0000 0.28870  0.26240  0.72580  Biso   1.000  H
  C64      1.0000 0.39500  0.20640  0.80800  Biso   1.000  C
  H48      1.0000 0.42580  0.17730  0.77490  Biso   1.000  H
  Co5      1.0000 0.13421  0.37265  0.78314  Biso   1.000  Co
  O17      1.0000 0.09880  0.31210  0.68050  Biso   1.000  O
  C65      1.0000 0.01250  0.29450  0.64150  Biso   1.000  C
  C66      1.0000 0.22420  0.45870  0.04540  Biso   1.000  C
  H49      1.0000 0.26820  0.42750  0.02390  Biso   1.000  H
  C67      1.0000 0.00080  0.28730  0.55770  Biso   1.000  C
  H50      1.0000 0.05440  0.30140  0.53760  Biso   1.000  H
  C68      1.0000 0.14370  0.49180  0.99880  Biso   1.000  C
  H51      1.0000 0.10010  0.52430  0.01980  Biso   1.000  H
  C69      1.0000 0.11670  0.48130  0.91460  Biso   1.000  C
  O18      1.0000 0.17320  0.44130  0.88450  Biso   1.000  O
  O19      1.0000 0.03600  0.51470  0.88110  Biso   1.000  O
  C70      1.0000 0.34250  0.42470  0.24870  Biso   1.000  C
  H52      1.0000 0.39230  0.39020  0.28080  Biso   1.000  H
  C71      1.0000 0.32490  0.41550  0.17220  Biso   1.000  C
  H53      1.0000 0.36210  0.37600  0.15110  Biso   1.000  H
  C72      1.0000 0.25080  0.46640  0.12740  Biso   1.000  C
  C73      1.0000 0.29030  0.48150  0.27880  Biso   1.000  C
  H54      1.0000 0.30570  0.48660  0.33170  Biso   1.000  H
  C74      1.0000 0.20080  0.52320  0.16180  Biso   1.000  C
  H55      1.0000 0.15160  0.55890  0.13060  Biso   1.000  H
  N9       1.0000 0.21610  0.53200  0.23620  Biso   1.000  N
  O20      1.0000 0.93750  0.28450  0.66440  Biso   1.000  O
  N10      1.0000 0.76540  0.20240  0.32180  Biso   1.000  N
  C75      1.0000 0.80300  0.21050  0.39660  Biso   1.000  C
  H56      1.0000 0.76980  0.18180  0.42830  Biso   1.000  H
  C76      1.0000 0.88650  0.25780  0.42980  Biso   1.000  C
  C77      1.0000 0.93400  0.30280  0.38420  Biso   1.000  C
  H57      1.0000 0.99040  0.33810  0.40450  Biso   1.000  H
  C78      1.0000 0.91600  0.26140  0.51290  Biso   1.000  C
  H58      1.0000 0.86780  0.24270  0.53700  Biso   1.000  H
  C79      1.0000 0.81240  0.24320  0.27860  Biso   1.000  C
  H59      1.0000 0.78870  0.23760  0.22580  Biso   1.000  H
  C80      1.0000 0.89500  0.29360  0.30800  Biso   1.000  C
  H60      1.0000 0.92580  0.32270  0.27490  Biso   1.000  H
  Co6      1.0000 0.63421  0.87265  0.78314  Biso   1.000  Co
  O21      1.0000 0.59880  0.81210  0.68050  Biso   1.000  O
  C81      1.0000 0.51250  0.79450  0.64150  Biso   1.000  C
  C82      1.0000 0.72420  0.95870  0.04540  Biso   1.000  C
  H61      1.0000 0.76820  0.92750  0.02390  Biso   1.000  H
  C83      1.0000 0.50080  0.78730  0.55770  Biso   1.000  C
  H62      1.0000 0.55440  0.80140  0.53760  Biso   1.000  H
  C84      1.0000 0.64370  0.99180  0.99880  Biso   1.000  C
  H63      1.0000 0.60010  0.02430  0.01980  Biso   1.000  H
  C85      1.0000 0.61670  0.98130  0.91460  Biso   1.000  C
  O22      1.0000 0.67320  0.94130  0.88450  Biso   1.000  O
  O23      1.0000 0.53600  0.01470  0.88110  Biso   1.000  O
  C86      1.0000 0.84250  0.92470  0.24870  Biso   1.000  C
  H64      1.0000 0.89230  0.89020  0.28080  Biso   1.000  H
  C87      1.0000 0.82490  0.91550  0.17220  Biso   1.000  C
  H65      1.0000 0.86210  0.87600  0.15110  Biso   1.000  H
  C88      1.0000 0.75080  0.96640  0.12740  Biso   1.000  C
  C89      1.0000 0.79030  0.98150  0.27880  Biso   1.000  C
  H66      1.0000 0.80570  0.98660  0.33170  Biso   1.000  H
  C90      1.0000 0.70080  0.02320  0.16180  Biso   1.000  C
  H67      1.0000 0.65160  0.05890  0.13060  Biso   1.000  H
  N11      1.0000 0.71610  0.03200  0.23620  Biso   1.000  N
  O24      1.0000 0.43750  0.78450  0.66440  Biso   1.000  O
  N12      1.0000 0.26540  0.70240  0.32180  Biso   1.000  N
  C91      1.0000 0.30300  0.71050  0.39660  Biso   1.000  C
  H68      1.0000 0.26980  0.68180  0.42830  Biso   1.000  H
  C92      1.0000 0.38650  0.75780  0.42980  Biso   1.000  C
  C93      1.0000 0.43400  0.80280  0.38420  Biso   1.000  C
  H69      1.0000 0.49040  0.83810  0.40450  Biso   1.000  H
  C94      1.0000 0.41600  0.76140  0.51290  Biso   1.000  C
  H70      1.0000 0.36780  0.74270  0.53700  Biso   1.000  H
  C95      1.0000 0.31240  0.74320  0.27860  Biso   1.000  C
  H71      1.0000 0.28870  0.73760  0.22580  Biso   1.000  H
  C96      1.0000 0.39500  0.79360  0.30800  Biso   1.000  C
  H72      1.0000 0.42580  0.82270  0.27490  Biso   1.000  H
  Co7      1.0000 0.86579  0.37265  0.71686  Biso   1.000  Co
  O25      1.0000 0.90120  0.31210  0.81950  Biso   1.000  O
  C97      1.0000 0.98750  0.29450  0.85850  Biso   1.000  C
  C98      1.0000 0.77580  0.45870  0.45460  Biso   1.000  C
  H73      1.0000 0.73180  0.42750  0.47610  Biso   1.000  H
  C99      1.0000 0.99920  0.28730  0.94230  Biso   1.000  C
  H74      1.0000 0.94560  0.30140  0.96240  Biso   1.000  H
  C100     1.0000 0.85630  0.49180  0.50120  Biso   1.000  C
  H75      1.0000 0.89990  0.52430  0.48020  Biso   1.000  H
  C101     1.0000 0.88330  0.48130  0.58540  Biso   1.000  C
  O26      1.0000 0.82680  0.44130  0.61550  Biso   1.000  O
  O27      1.0000 0.96400  0.51470  0.61890  Biso   1.000  O
  C102     1.0000 0.65750  0.42470  0.25130  Biso   1.000  C
  H76      1.0000 0.60770  0.39020  0.21920  Biso   1.000  H
  C103     1.0000 0.67510  0.41550  0.32780  Biso   1.000  C
  H77      1.0000 0.63790  0.37600  0.34890  Biso   1.000  H
  C104     1.0000 0.74920  0.46640  0.37260  Biso   1.000  C
  C105     1.0000 0.70970  0.48150  0.22120  Biso   1.000  C
  H78      1.0000 0.69430  0.48660  0.16830  Biso   1.000  H
  C106     1.0000 0.79920  0.52320  0.33820  Biso   1.000  C
  H79      1.0000 0.84840  0.55890  0.36940  Biso   1.000  H
  N13      1.0000 0.78390  0.53200  0.26380  Biso   1.000  N
  O28      1.0000 0.06250  0.28450  0.83560  Biso   1.000  O
  N14      1.0000 0.23460  0.20240  0.17820  Biso   1.000  N
  C107     1.0000 0.19700  0.21050  0.10340  Biso   1.000  C
  H80      1.0000 0.23020  0.18180  0.07170  Biso   1.000  H
  C108     1.0000 0.11350  0.25780  0.07020  Biso   1.000  C
  C109     1.0000 0.06600  0.30280  0.11580  Biso   1.000  C
  H81      1.0000 0.00960  0.33810  0.09550  Biso   1.000  H
  C110     1.0000 0.08400  0.26140  0.98710  Biso   1.000  C
  H82      1.0000 0.13220  0.24270  0.96300  Biso   1.000  H
  C111     1.0000 0.18760  0.24320  0.22140  Biso   1.000  C
  H83      1.0000 0.21130  0.23760  0.27420  Biso   1.000  H
  C112     1.0000 0.10500  0.29360  0.19200  Biso   1.000  C
  H84      1.0000 0.07420  0.32270  0.22510  Biso   1.000  H
  Co8      1.0000 0.36579  0.87265  0.71686  Biso   1.000  Co
  O29      1.0000 0.40120  0.81210  0.81950  Biso   1.000  O
  C113     1.0000 0.48750  0.79450  0.85850  Biso   1.000  C
  C114     1.0000 0.27580  0.95870  0.45460  Biso   1.000  C
  H85      1.0000 0.23180  0.92750  0.47610  Biso   1.000  H
  C115     1.0000 0.49920  0.78730  0.94230  Biso   1.000  C
  H86      1.0000 0.44560  0.80140  0.96240  Biso   1.000  H
  C116     1.0000 0.35630  0.99180  0.50120  Biso   1.000  C
  H87      1.0000 0.39990  0.02430  0.48020  Biso   1.000  H
  C117     1.0000 0.38330  0.98130  0.58540  Biso   1.000  C
  O30      1.0000 0.32680  0.94130  0.61550  Biso   1.000  O
  O31      1.0000 0.46400  0.01470  0.61890  Biso   1.000  O
  C118     1.0000 0.15750  0.92470  0.25130  Biso   1.000  C
  H88      1.0000 0.10770  0.89020  0.21920  Biso   1.000  H
  C119     1.0000 0.17510  0.91550  0.32780  Biso   1.000  C
  H89      1.0000 0.13790  0.87600  0.34890  Biso   1.000  H
  C120     1.0000 0.24920  0.96640  0.37260  Biso   1.000  C
  C121     1.0000 0.20970  0.98150  0.22120  Biso   1.000  C
  H90      1.0000 0.19430  0.98660  0.16830  Biso   1.000  H
  C122     1.0000 0.29920  0.02320  0.33820  Biso   1.000  C
  H91      1.0000 0.34840  0.05890  0.36940  Biso   1.000  H
  N15      1.0000 0.28390  0.03200  0.26380  Biso   1.000  N
  O32      1.0000 0.56250  0.78450  0.83560  Biso   1.000  O
  N16      1.0000 0.73460  0.70240  0.17820  Biso   1.000  N
  C123     1.0000 0.69700  0.71050  0.10340  Biso   1.000  C
  H92      1.0000 0.73020  0.68180  0.07170  Biso   1.000  H
  C124     1.0000 0.61350  0.75780  0.07020  Biso   1.000  C
  C125     1.0000 0.56600  0.80280  0.11580  Biso   1.000  C
  H93      1.0000 0.50960  0.83810  0.09550  Biso   1.000  H
  C126     1.0000 0.58400  0.76140  0.98710  Biso   1.000  C
  H94      1.0000 0.63220  0.74270  0.96300  Biso   1.000  H
  C127     1.0000 0.68760  0.74320  0.22140  Biso   1.000  C
  H95      1.0000 0.71130  0.73760  0.27420  Biso   1.000  H
  C128     1.0000 0.60500  0.79360  0.19200  Biso   1.000  C
  H96      1.0000 0.57420  0.82270  0.22510  Biso   1.000  H
  O33      1.0000 0.00000  0.55300  0.25000  Biso   1.000  O
  H97      1.0000 0.00000  0.49080  0.25000  Biso   1.000  H
  O34      1.0000 0.50000  0.05300  0.25000  Biso   1.000  O
  H98      1.0000 0.50000  0.99080  0.25000  Biso   1.000  H
  O35      1.0000 0.00000  0.44700  0.75000  Biso   1.000  O
  H99      1.0000 0.00000  0.50920  0.75000  Biso   1.000  H
  O36      1.0000 0.50000  0.94700  0.75000  Biso   1.000  O
  H100     1.0000 0.50000  0.00920  0.75000  Biso   1.000  H
