data_VODQIP_clean
_audit_creation_date              2014-07-02
_audit_creation_method            'Materials Studio'
_symmetry_space_group_name_H-M    'P1'
_symmetry_Int_Tables_number       1
_symmetry_cell_setting            triclinic
loop_
_symmetry_equiv_pos_as_xyz
  x,y,z
_cell_length_a                    14.8830
_cell_length_b                    16.7950
_cell_length_c                    17.4900
_cell_angle_alpha                 93.1920
_cell_angle_beta                  114.0630
_cell_angle_gamma                 103.7820
loop_
_atom_site_label
_atom_site_type_symbol
_atom_site_fract_x
_atom_site_fract_y
_atom_site_fract_z
_atom_site_U_iso_or_equiv
_atom_site_adp_type
_atom_site_occupancy
Nd1    Nd    0.12450   0.96545   0.57907   0.01267  Uiso   1.00
Nd2    Nd    0.12611   0.46511   0.00367   0.01267  Uiso   1.00
Nd3    Nd    0.87550   0.03455   0.42093   0.01267  Uiso   1.00
Nd4    Nd    0.87389   0.53489   0.99633   0.01267  Uiso   1.00
H1     H     0.25370   0.00420   0.37720   0.01267  Uiso   1.00
H2     H     0.30520   0.00970   0.26820   0.01267  Uiso   1.00
H3     H     0.03790   0.04560   0.11470   0.01267  Uiso   1.00
H4     H     0.98930   0.04290   0.22250   0.01267  Uiso   1.00
H5     H     0.33560   0.91430   0.11090   0.01267  Uiso   1.00
H6     H     0.30630   0.77170   0.08480   0.01267  Uiso   1.00
H7     H     0.00110   0.73720   0.99490   0.01267  Uiso   1.00
H8     H     0.03120   0.88120   0.01770   0.01267  Uiso   1.00
H9     H     0.00600   0.23770   0.53080   0.01267  Uiso   1.00
H10    H     0.03480   0.37860   0.52060   0.01267  Uiso   1.00
H11    H     0.33870   0.40420   0.60580   0.01267  Uiso   1.00
H12    H     0.30650   0.26410   0.61560   0.01267  Uiso   1.00
H13    H     0.30190   0.49720   0.43930   0.01267  Uiso   1.00
H14    H     0.24440   0.49430   0.29290   0.01267  Uiso   1.00
H15    H     0.97030   0.50880   0.27020   0.01267  Uiso   1.00
H16    H     0.02920   0.51500   0.41860   0.01267  Uiso   1.00
H17    H     0.45530   0.94460   0.57670   0.01267  Uiso   1.00
H18    H     0.57210   0.87870   0.56840   0.01267  Uiso   1.00
H19    H     0.35230   0.66160   0.48780   0.01267  Uiso   1.00
H20    H     0.23760   0.72930   0.49590   0.01267  Uiso   1.00
H21    H     0.72050   0.78840   0.68690   0.01267  Uiso   1.00
H22    H     0.79090   0.74860   0.81990   0.01267  Uiso   1.00
H23    H     0.57540   0.52460   0.72280   0.01267  Uiso   1.00
H24    H     0.50790   0.56600   0.59070   0.01267  Uiso   1.00
H25    H     0.74630   0.99580   0.62280   0.01267  Uiso   1.00
H26    H     0.69480   0.99030   0.73180   0.01267  Uiso   1.00
H27    H     0.96210   0.95440   0.88530   0.01267  Uiso   1.00
H28    H     0.01070   0.95710   0.77750   0.01267  Uiso   1.00
H29    H     0.66440   0.08570   0.88910   0.01267  Uiso   1.00
H30    H     0.69370   0.22830   0.91520   0.01267  Uiso   1.00
H31    H     0.99890   0.26280   0.00510   0.01267  Uiso   1.00
H32    H     0.96880   0.11880   0.98230   0.01267  Uiso   1.00
H33    H     0.99400   0.76230   0.46920   0.01267  Uiso   1.00
H34    H     0.96520   0.62140   0.47940   0.01267  Uiso   1.00
H35    H     0.66130   0.59580   0.39420   0.01267  Uiso   1.00
H36    H     0.69350   0.73590   0.38440   0.01267  Uiso   1.00
H37    H     0.69810   0.50280   0.56070   0.01267  Uiso   1.00
H38    H     0.75560   0.50570   0.70710   0.01267  Uiso   1.00
H39    H     0.02970   0.49120   0.72980   0.01267  Uiso   1.00
H40    H     0.97080   0.48500   0.58140   0.01267  Uiso   1.00
H41    H     0.54470   0.05540   0.42330   0.01267  Uiso   1.00
H42    H     0.42790   0.12130   0.43160   0.01267  Uiso   1.00
H43    H     0.64770   0.33840   0.51220   0.01267  Uiso   1.00
H44    H     0.76240   0.27070   0.50410   0.01267  Uiso   1.00
H45    H     0.27950   0.21160   0.31310   0.01267  Uiso   1.00
H46    H     0.20910   0.25140   0.18010   0.01267  Uiso   1.00
H47    H     0.42460   0.47540   0.27720   0.01267  Uiso   1.00
H48    H     0.49210   0.43400   0.40930   0.01267  Uiso   1.00
C1     C     0.07860   0.01440   0.37990   0.01267  Uiso   1.00
C2     C     0.11600   0.02190   0.30910   0.01267  Uiso   1.00
C3     C     0.21060   0.01250   0.32400   0.01267  Uiso   1.00
C4     C     0.24110   0.01550   0.25880   0.01267  Uiso   1.00
C5     C     0.17650   0.02720   0.18010   0.01267  Uiso   1.00
C6     C     0.08170   0.03740   0.16760   0.01267  Uiso   1.00
C7     C     0.05250   0.03530   0.23130   0.01267  Uiso   1.00
C8     C     0.18680   0.90980   0.06930   0.01267  Uiso   1.00
C9     C     0.26910   0.87880   0.08820   0.01267  Uiso   1.00
C10    C     0.25110   0.79360   0.07280   0.01267  Uiso   1.00
C11    C     0.15080   0.73910   0.03940   0.01267  Uiso   1.00
C12    C     0.06790   0.77220   0.01830   0.01267  Uiso   1.00
C13    C     0.08590   0.85840   0.03260   0.01267  Uiso   1.00
C14    C     0.13420   0.64550   0.02950   0.01267  Uiso   1.00
C15    C     0.13690   0.14410   0.57530   0.01267  Uiso   1.00
C16    C     0.15370   0.23690   0.57250   0.01267  Uiso   1.00
C17    C     0.07210   0.27110   0.54530   0.01267  Uiso   1.00
C18    C     0.08910   0.35520   0.53970   0.01267  Uiso   1.00
C19    C     0.18950   0.40340   0.56330   0.01267  Uiso   1.00
C20    C     0.27240   0.37110   0.59110   0.01267  Uiso   1.00
C21    C     0.25210   0.28730   0.59590   0.01267  Uiso   1.00
C22    C     0.16960   0.50690   0.44170   0.01267  Uiso   1.00
C23    C     0.23600   0.50030   0.40590   0.01267  Uiso   1.00
C24    C     0.20110   0.49830   0.31810   0.01267  Uiso   1.00
C25    C     0.10340   0.50220   0.26900   0.01267  Uiso   1.00
C26    C     0.03680   0.50740   0.30400   0.01267  Uiso   1.00
C27    C     0.07230   0.51050   0.39320   0.01267  Uiso   1.00
C28    C     0.06680   0.49940   0.17280   0.01267  Uiso   1.00
C29    C     0.26360   0.88490   0.55240   0.01267  Uiso   1.00
C30    C     0.33700   0.84320   0.53990   0.01267  Uiso   1.00
C31    C     0.43480   0.88730   0.55950   0.01267  Uiso   1.00
C32    C     0.50490   0.84810   0.55430   0.01267  Uiso   1.00
C33    C     0.47360   0.76320   0.52790   0.01267  Uiso   1.00
C34    C     0.37380   0.71880   0.50620   0.01267  Uiso   1.00
C35    C     0.30540   0.75930   0.51160   0.01267  Uiso   1.00
C36    C     0.61010   0.68050   0.62600   0.01267  Uiso   1.00
C37    C     0.69250   0.73530   0.69430   0.01267  Uiso   1.00
C38    C     0.73450   0.71220   0.77460   0.01267  Uiso   1.00
C39    C     0.68850   0.63190   0.78460   0.01267  Uiso   1.00
C40    C     0.60470   0.57740   0.71580   0.01267  Uiso   1.00
C41    C     0.56450   0.60200   0.63620   0.01267  Uiso   1.00
C42    C     0.73780   0.60420   0.86630   0.01267  Uiso   1.00
C43    C     0.92140   0.98560   0.62010   0.01267  Uiso   1.00
C44    C     0.88400   0.97810   0.69090   0.01267  Uiso   1.00
C45    C     0.78940   0.98750   0.67600   0.01267  Uiso   1.00
C46    C     0.75890   0.98450   0.74120   0.01267  Uiso   1.00
C47    C     0.82350   0.97280   0.81990   0.01267  Uiso   1.00
C48    C     0.91830   0.96260   0.83240   0.01267  Uiso   1.00
C49    C     0.94750   0.96470   0.76870   0.01267  Uiso   1.00
C50    C     0.81320   0.09020   0.93070   0.01267  Uiso   1.00
C51    C     0.73090   0.12120   0.91180   0.01267  Uiso   1.00
C52    C     0.74890   0.20640   0.92720   0.01267  Uiso   1.00
C53    C     0.84920   0.26090   0.96060   0.01267  Uiso   1.00
C54    C     0.93210   0.22780   0.98170   0.01267  Uiso   1.00
C55    C     0.91410   0.14160   0.96740   0.01267  Uiso   1.00
C56    C     0.86580   0.35450   0.97050   0.01267  Uiso   1.00
C57    C     0.86310   0.85590   0.42470   0.01267  Uiso   1.00
C58    C     0.84630   0.76310   0.42750   0.01267  Uiso   1.00
C59    C     0.92790   0.72890   0.45470   0.01267  Uiso   1.00
C60    C     0.91090   0.64480   0.46030   0.01267  Uiso   1.00
C61    C     0.81050   0.59660   0.43670   0.01267  Uiso   1.00
C62    C     0.72760   0.62890   0.40890   0.01267  Uiso   1.00
C63    C     0.74790   0.71270   0.40410   0.01267  Uiso   1.00
C64    C     0.83040   0.49310   0.55830   0.01267  Uiso   1.00
C65    C     0.76400   0.49970   0.59410   0.01267  Uiso   1.00
C66    C     0.79890   0.50170   0.68190   0.01267  Uiso   1.00
C67    C     0.89660   0.49780   0.73100   0.01267  Uiso   1.00
C68    C     0.96320   0.49260   0.69600   0.01267  Uiso   1.00
C69    C     0.92770   0.48950   0.60680   0.01267  Uiso   1.00
C70    C     0.93320   0.50060   0.82720   0.01267  Uiso   1.00
C71    C     0.73640   0.11510   0.44760   0.01267  Uiso   1.00
C72    C     0.66300   0.15680   0.46010   0.01267  Uiso   1.00
C73    C     0.56520   0.11270   0.44050   0.01267  Uiso   1.00
C74    C     0.49510   0.15190   0.44570   0.01267  Uiso   1.00
C75    C     0.52640   0.23680   0.47210   0.01267  Uiso   1.00
C76    C     0.62620   0.28120   0.49380   0.01267  Uiso   1.00
C77    C     0.69460   0.24070   0.48840   0.01267  Uiso   1.00
C78    C     0.38990   0.31950   0.37400   0.01267  Uiso   1.00
C79    C     0.30750   0.26470   0.30570   0.01267  Uiso   1.00
C80    C     0.26550   0.28780   0.22540   0.01267  Uiso   1.00
C81    C     0.31150   0.36810   0.21540   0.01267  Uiso   1.00
C82    C     0.39530   0.42260   0.28420   0.01267  Uiso   1.00
C83    C     0.43550   0.39800   0.36380   0.01267  Uiso   1.00
C84    C     0.26220   0.39580   0.13370   0.01267  Uiso   1.00
S1     S     0.20830   0.01930   0.09318   0.01267  Uiso   1.00
S2     S     0.21100   0.51033   0.55280   0.01267  Uiso   1.00
S3     S     0.56290   0.71080   0.52574   0.01267  Uiso   1.00
S4     S     0.79170   0.98070   0.90682   0.01267  Uiso   1.00
S5     S     0.78900   0.48967   0.44720   0.01267  Uiso   1.00
S6     S     0.43710   0.28920   0.47426   0.01267  Uiso   1.00
O1     O     0.13790   0.00250   0.44920   0.01267  Uiso   1.00
O2     O     0.98760   0.01840   0.35730   0.01267  Uiso   1.00
O3     O     0.13410   0.04540   0.02210   0.01267  Uiso   1.00
O4     O     0.31760   0.05820   0.12350   0.01267  Uiso   1.00
O5     O     0.20890   0.61810   0.03640   0.01267  Uiso   1.00
O6     O     0.04700   0.59820   0.01330   0.01267  Uiso   1.00
O7     O     0.04700   0.09620   0.53410   0.01267  Uiso   1.00
O8     O     0.21040   0.11900   0.61860   0.01267  Uiso   1.00
O9     O     0.32000   0.54980   0.59510   0.01267  Uiso   1.00
O10    O     0.14300   0.54310   0.57630   0.01267  Uiso   1.00
O11    O     0.97510   0.50300   0.13410   0.01267  Uiso   1.00
O12    O     0.12880   0.49450   0.14380   0.01267  Uiso   1.00
O13    O     0.16910   0.84950   0.51590   0.01267  Uiso   1.00
O14    O     0.29780   0.95430   0.60050   0.01267  Uiso   1.00
O15    O     0.64610   0.77080   0.52170   0.01267  Uiso   1.00
O16    O     0.50790   0.63600   0.46270   0.01267  Uiso   1.00
O17    O     0.82490   0.65110   0.92150   0.01267  Uiso   1.00
O18    O     0.69860   0.53430   0.87940   0.01267  Uiso   1.00
O19    O     0.86210   0.99750   0.55080   0.01267  Uiso   1.00
O20    O     0.01240   0.98160   0.64270   0.01267  Uiso   1.00
O21    O     0.86590   0.95460   0.97790   0.01267  Uiso   1.00
O22    O     0.68240   0.94180   0.87650   0.01267  Uiso   1.00
O23    O     0.79110   0.38190   0.96360   0.01267  Uiso   1.00
O24    O     0.95300   0.40180   0.98670   0.01267  Uiso   1.00
O25    O     0.95300   0.90380   0.46590   0.01267  Uiso   1.00
O26    O     0.78960   0.88100   0.38140   0.01267  Uiso   1.00
O27    O     0.68000   0.45020   0.40490   0.01267  Uiso   1.00
O28    O     0.85700   0.45690   0.42370   0.01267  Uiso   1.00
O29    O     0.02490   0.49700   0.86590   0.01267  Uiso   1.00
O30    O     0.87120   0.50550   0.85620   0.01267  Uiso   1.00
O31    O     0.83090   0.15050   0.48410   0.01267  Uiso   1.00
O32    O     0.70220   0.04570   0.39950   0.01267  Uiso   1.00
O33    O     0.35390   0.22920   0.47830   0.01267  Uiso   1.00
O34    O     0.49210   0.36400   0.53730   0.01267  Uiso   1.00
O35    O     0.17510   0.34890   0.07850   0.01267  Uiso   1.00
O36    O     0.30140   0.46570   0.12060   0.01267  Uiso   1.00
