data_image0
_cell_length_a       30.802
_cell_length_b       15.945
_cell_length_c       16.4738
_cell_angle_alpha    90
_cell_angle_beta     90
_cell_angle_gamma    90

_symmetry_space_group_name_H-M    "P 1"
_symmetry_int_tables_number       1

loop_
  _symmetry_equiv_pos_as_xyz
  'x, y, z'

loop_
  _atom_site_label
  _atom_site_occupancy
  _atom_site_fract_x
  _atom_site_fract_y
  _atom_site_fract_z
  _atom_site_thermal_displace_type
  _atom_site_B_iso_or_equiv
  _atom_site_type_symbol
  S1       1.0000 0.33263  0.68268  0.51054  Biso   1.000  S
  O1       1.0000 0.28887  0.96190  0.24780  Biso   1.000  O
  O2       1.0000 0.25092  0.84500  0.27420  Biso   1.000  O
  O3       1.0000 0.42533  0.01520  0.38750  Biso   1.000  O
  O4       1.0000 0.44179  0.94570  0.50050  Biso   1.000  O
  O5       1.0000 0.37482  0.64420  0.51310  Biso   1.000  O
  O6       1.0000 0.30156  0.63240  0.46570  Biso   1.000  O
  O7       1.0000 0.31670  0.70810  0.58970  Biso   1.000  O
  N1       1.0000 0.28470  0.55530  0.06430  Biso   1.000  N
  N2       1.0000 0.28920  0.54900  0.89310  Biso   1.000  N
  N3       1.0000 0.28776  0.94500  0.08020  Biso   1.000  N
  N4       1.0000 0.48210  0.92130  0.08720  Biso   1.000  N
  C1       1.0000 0.30910  0.79960  0.39680  Biso   1.000  C
  H1       1.0000 0.28520  0.76360  0.38670  Biso   1.000  H
  C2       1.0000 0.33940  0.77850  0.45480  Biso   1.000  C
  C3       1.0000 0.37440  0.82990  0.47020  Biso   1.000  C
  H2       1.0000 0.39530  0.81390  0.50960  Biso   1.000  H
  C4       1.0000 0.37930  0.90490  0.42860  Biso   1.000  C
  C5       1.0000 0.34890  0.92640  0.36940  Biso   1.000  C
  H3       1.0000 0.35220  0.97730  0.34010  Biso   1.000  H
  C6       1.0000 0.31370  0.87400  0.35280  Biso   1.000  C
  C7       1.0000 0.28150  0.89410  0.28670  Biso   1.000  C
  C8       1.0000 0.41770  0.96030  0.43890  Biso   1.000  C
  C9       1.0000 0.33150  0.94200  0.08970  Biso   1.000  C
  H4       1.0000 0.34410  0.97140  0.13400  Biso   1.000  H
  C10      1.0000 0.27060  0.90280  0.01540  Biso   1.000  C
  C11      1.0000 0.34160  0.85580  0.97280  Biso   1.000  C
  C12      1.0000 0.29750  0.86060  0.96260  Biso   1.000  C
  H5       1.0000 0.28490  0.83350  0.91700  Biso   1.000  H
  C13      1.0000 0.35830  0.89880  0.03870  Biso   1.000  C
  H6       1.0000 0.38870  0.89830  0.04850  Biso   1.000  H
  C14      1.0000 0.37060  0.80330  0.91980  Biso   1.000  C
  H7       1.0000 0.36760  0.74390  0.93620  Biso   1.000  H
  H8       1.0000 0.40110  0.82010  0.92970  Biso   1.000  H
  C15      1.0000 0.36140  0.81020  0.82850  Biso   1.000  C
  H9       1.0000 0.33030  0.82340  0.82080  Biso   1.000  H
  H10      1.0000 0.37840  0.85750  0.80620  Biso   1.000  H
  C16      1.0000 0.37220  0.73110  0.78040  Biso   1.000  C
  H11      1.0000 0.36640  0.74030  0.72190  Biso   1.000  H
  H12      1.0000 0.40330  0.71690  0.78700  Biso   1.000  H
  C17      1.0000 0.34460  0.66120  0.81160  Biso   1.000  C
  C18      1.0000 0.30030  0.65990  0.79690  Biso   1.000  C
  H13      1.0000 0.28800  0.69750  0.75840  Biso   1.000  H
  C19      1.0000 0.27410  0.60490  0.83750  Biso   1.000  C
  H14      1.0000 0.24380  0.60580  0.82640  Biso   1.000  H
  C20      1.0000 0.33240  0.54500  0.90100  Biso   1.000  C
  H15      1.0000 0.34420  0.50350  0.93610  Biso   1.000  H
  C21      1.0000 0.36130  0.59850  0.86060  Biso   1.000  C
  C22      1.0000 0.30600  0.51260  0.12080  Biso   1.000  C
  H16      1.0000 0.30380  0.45320  0.11930  Biso   1.000  H
  C23      1.0000 0.28670  0.63900  0.07030  Biso   1.000  C
  H17      1.0000 0.27200  0.67250  0.03130  Biso   1.000  H
  C24      1.0000 0.30930  0.67740  0.13140  Biso   1.000  C
  H18      1.0000 0.30920  0.73690  0.13460  Biso   1.000  H
  C25      1.0000 0.33060  0.54690  0.18040  Biso   1.000  C
  H19      1.0000 0.34640  0.51200  0.21650  Biso   1.000  H
  C26      1.0000 0.33230  0.63220  0.18810  Biso   1.000  C
  C27      1.0000 0.35960  0.67420  0.24960  Biso   1.000  C
  H20      1.0000 0.34030  0.70110  0.29000  Biso   1.000  H
  H21      1.0000 0.37670  0.63090  0.27840  Biso   1.000  H
  C28      1.0000 0.38520  0.72860  0.22270  Biso   1.000  C
  H22      1.0000 0.36840  0.78120  0.21740  Biso   1.000  H
  H23      1.0000 0.39310  0.71110  0.16700  Biso   1.000  H
  C29      1.0000 0.42650  0.75090  0.26460  Biso   1.000  C
  H24      1.0000 0.44600  0.70160  0.26770  Biso   1.000  H
  H25      1.0000 0.42070  0.77120  0.32030  Biso   1.000  H
  C30      1.0000 0.44830  0.82430  0.21010  Biso   1.000  C
  C31      1.0000 0.44490  0.90340  0.20700  Biso   1.000  C
  H26      1.0000 0.42900  0.93170  0.24810  Biso   1.000  H
  C32      1.0000 0.46660  0.78520  0.13980  Biso   1.000  C
  H27      1.0000 0.46470  0.72630  0.13180  Biso   1.000  H
  C33      1.0000 0.46210  0.94580  0.15040  Biso   1.000  C
  H28      1.0000 0.45970  0.00490  0.15620  Biso   1.000  H
  C34      1.0000 0.48800  0.83840  0.08140  Biso   1.000  C
  H29      1.0000 0.50580  0.81520  0.04000  Biso   1.000  H
  S2       1.0000 0.16737  0.31732  0.51054  Biso   1.000  S
  O8       1.0000 0.21113  0.03810  0.24780  Biso   1.000  O
  O9       1.0000 0.24908  0.15500  0.27420  Biso   1.000  O
  O10      1.0000 0.07467  0.98480  0.38750  Biso   1.000  O
  O11      1.0000 0.05821  0.05430  0.50050  Biso   1.000  O
  O12      1.0000 0.12518  0.35580  0.51310  Biso   1.000  O
  O13      1.0000 0.19844  0.36760  0.46570  Biso   1.000  O
  O14      1.0000 0.18330  0.29190  0.58970  Biso   1.000  O
  N5       1.0000 0.21530  0.44470  0.06430  Biso   1.000  N
  N6       1.0000 0.21080  0.45100  0.89310  Biso   1.000  N
  N7       1.0000 0.21224  0.05500  0.08020  Biso   1.000  N
  N8       1.0000 0.01790  0.07870  0.08720  Biso   1.000  N
  C35      1.0000 0.19090  0.20040  0.39680  Biso   1.000  C
  H30      1.0000 0.21480  0.23640  0.38670  Biso   1.000  H
  C36      1.0000 0.16060  0.22150  0.45480  Biso   1.000  C
  C37      1.0000 0.12560  0.17010  0.47020  Biso   1.000  C
  H31      1.0000 0.10470  0.18610  0.50960  Biso   1.000  H
  C38      1.0000 0.12070  0.09510  0.42860  Biso   1.000  C
  C39      1.0000 0.15110  0.07360  0.36940  Biso   1.000  C
  H32      1.0000 0.14780  0.02270  0.34010  Biso   1.000  H
  C40      1.0000 0.18630  0.12600  0.35280  Biso   1.000  C
  C41      1.0000 0.21850  0.10590  0.28670  Biso   1.000  C
  C42      1.0000 0.08230  0.03970  0.43890  Biso   1.000  C
  C43      1.0000 0.16850  0.05800  0.08970  Biso   1.000  C
  H33      1.0000 0.15590  0.02860  0.13400  Biso   1.000  H
  C44      1.0000 0.22940  0.09720  0.01540  Biso   1.000  C
  C45      1.0000 0.15840  0.14420  0.97280  Biso   1.000  C
  C46      1.0000 0.20250  0.13940  0.96260  Biso   1.000  C
  H34      1.0000 0.21510  0.16650  0.91700  Biso   1.000  H
  C47      1.0000 0.14170  0.10120  0.03870  Biso   1.000  C
  H35      1.0000 0.11130  0.10170  0.04850  Biso   1.000  H
  C48      1.0000 0.12940  0.19670  0.91980  Biso   1.000  C
  H36      1.0000 0.13240  0.25610  0.93620  Biso   1.000  H
  H37      1.0000 0.09890  0.17990  0.92970  Biso   1.000  H
  C49      1.0000 0.13860  0.18980  0.82850  Biso   1.000  C
  H38      1.0000 0.16970  0.17660  0.82080  Biso   1.000  H
  H39      1.0000 0.12160  0.14250  0.80620  Biso   1.000  H
  C50      1.0000 0.12780  0.26890  0.78040  Biso   1.000  C
  H40      1.0000 0.13360  0.25970  0.72190  Biso   1.000  H
  H41      1.0000 0.09670  0.28310  0.78700  Biso   1.000  H
  C51      1.0000 0.15540  0.33880  0.81160  Biso   1.000  C
  C52      1.0000 0.19970  0.34010  0.79690  Biso   1.000  C
  H42      1.0000 0.21200  0.30250  0.75840  Biso   1.000  H
  C53      1.0000 0.22590  0.39510  0.83750  Biso   1.000  C
  H43      1.0000 0.25620  0.39420  0.82640  Biso   1.000  H
  C54      1.0000 0.16760  0.45500  0.90100  Biso   1.000  C
  H44      1.0000 0.15580  0.49650  0.93610  Biso   1.000  H
  C55      1.0000 0.13870  0.40150  0.86060  Biso   1.000  C
  C56      1.0000 0.19400  0.48740  0.12080  Biso   1.000  C
  H45      1.0000 0.19620  0.54680  0.11930  Biso   1.000  H
  C57      1.0000 0.21330  0.36100  0.07030  Biso   1.000  C
  H46      1.0000 0.22800  0.32750  0.03130  Biso   1.000  H
  C58      1.0000 0.19070  0.32260  0.13140  Biso   1.000  C
  H47      1.0000 0.19080  0.26310  0.13460  Biso   1.000  H
  C59      1.0000 0.16940  0.45310  0.18040  Biso   1.000  C
  H48      1.0000 0.15360  0.48800  0.21650  Biso   1.000  H
  C60      1.0000 0.16770  0.36780  0.18810  Biso   1.000  C
  C61      1.0000 0.14040  0.32580  0.24960  Biso   1.000  C
  H49      1.0000 0.15970  0.29890  0.29000  Biso   1.000  H
  H50      1.0000 0.12330  0.36910  0.27840  Biso   1.000  H
  C62      1.0000 0.11480  0.27140  0.22270  Biso   1.000  C
  H51      1.0000 0.13160  0.21880  0.21740  Biso   1.000  H
  H52      1.0000 0.10690  0.28890  0.16700  Biso   1.000  H
  C63      1.0000 0.07350  0.24910  0.26460  Biso   1.000  C
  H53      1.0000 0.05400  0.29840  0.26770  Biso   1.000  H
  H54      1.0000 0.07930  0.22880  0.32030  Biso   1.000  H
  C64      1.0000 0.05170  0.17570  0.21010  Biso   1.000  C
  C65      1.0000 0.05510  0.09660  0.20700  Biso   1.000  C
  H55      1.0000 0.07100  0.06830  0.24810  Biso   1.000  H
  C66      1.0000 0.03340  0.21480  0.13980  Biso   1.000  C
  H56      1.0000 0.03530  0.27370  0.13180  Biso   1.000  H
  C67      1.0000 0.03790  0.05420  0.15040  Biso   1.000  C
  H57      1.0000 0.04030  0.99510  0.15620  Biso   1.000  H
  C68      1.0000 0.01200  0.16160  0.08140  Biso   1.000  C
  H58      1.0000 0.99420  0.18480  0.04000  Biso   1.000  H
  S3       1.0000 0.66737  0.68268  0.98946  Biso   1.000  S
  O15      1.0000 0.71113  0.96190  0.25220  Biso   1.000  O
  O16      1.0000 0.74908  0.84500  0.22580  Biso   1.000  O
  O17      1.0000 0.57467  0.01520  0.11250  Biso   1.000  O
  O18      1.0000 0.55821  0.94570  0.99950  Biso   1.000  O
  O19      1.0000 0.62518  0.64420  0.98690  Biso   1.000  O
  O20      1.0000 0.69844  0.63240  0.03430  Biso   1.000  O
  O21      1.0000 0.68330  0.70810  0.91030  Biso   1.000  O
  N9       1.0000 0.71530  0.55530  0.43570  Biso   1.000  N
  N10      1.0000 0.71080  0.54900  0.60690  Biso   1.000  N
  N11      1.0000 0.71224  0.94500  0.41980  Biso   1.000  N
  N12      1.0000 0.51790  0.92130  0.41280  Biso   1.000  N
  C69      1.0000 0.69090  0.79960  0.10320  Biso   1.000  C
  H59      1.0000 0.71480  0.76360  0.11330  Biso   1.000  H
  C70      1.0000 0.66060  0.77850  0.04520  Biso   1.000  C
  C71      1.0000 0.62560  0.82990  0.02980  Biso   1.000  C
  H60      1.0000 0.60470  0.81390  0.99040  Biso   1.000  H
  C72      1.0000 0.62070  0.90490  0.07140  Biso   1.000  C
  C73      1.0000 0.65110  0.92640  0.13060  Biso   1.000  C
  H61      1.0000 0.64780  0.97730  0.15990  Biso   1.000  H
  C74      1.0000 0.68630  0.87400  0.14720  Biso   1.000  C
  C75      1.0000 0.71850  0.89410  0.21330  Biso   1.000  C
  C76      1.0000 0.58230  0.96030  0.06110  Biso   1.000  C
  C77      1.0000 0.66850  0.94200  0.41030  Biso   1.000  C
  H62      1.0000 0.65590  0.97140  0.36600  Biso   1.000  H
  C78      1.0000 0.72940  0.90280  0.48460  Biso   1.000  C
  C79      1.0000 0.65840  0.85580  0.52720  Biso   1.000  C
  C80      1.0000 0.70250  0.86060  0.53740  Biso   1.000  C
  H63      1.0000 0.71510  0.83350  0.58300  Biso   1.000  H
  C81      1.0000 0.64170  0.89880  0.46130  Biso   1.000  C
  H64      1.0000 0.61130  0.89830  0.45150  Biso   1.000  H
  C82      1.0000 0.62940  0.80330  0.58020  Biso   1.000  C
  H65      1.0000 0.63240  0.74390  0.56380  Biso   1.000  H
  H66      1.0000 0.59890  0.82010  0.57030  Biso   1.000  H
  C83      1.0000 0.63860  0.81020  0.67150  Biso   1.000  C
  H67      1.0000 0.66970  0.82340  0.67920  Biso   1.000  H
  H68      1.0000 0.62160  0.85750  0.69380  Biso   1.000  H
  C84      1.0000 0.62780  0.73110  0.71960  Biso   1.000  C
  H69      1.0000 0.63360  0.74030  0.77810  Biso   1.000  H
  H70      1.0000 0.59670  0.71690  0.71300  Biso   1.000  H
  C85      1.0000 0.65540  0.66120  0.68840  Biso   1.000  C
  C86      1.0000 0.69970  0.65990  0.70310  Biso   1.000  C
  H71      1.0000 0.71200  0.69750  0.74160  Biso   1.000  H
  C87      1.0000 0.72590  0.60490  0.66250  Biso   1.000  C
  H72      1.0000 0.75620  0.60580  0.67360  Biso   1.000  H
  C88      1.0000 0.66760  0.54500  0.59900  Biso   1.000  C
  H73      1.0000 0.65580  0.50350  0.56390  Biso   1.000  H
  C89      1.0000 0.63870  0.59850  0.63940  Biso   1.000  C
  C90      1.0000 0.69400  0.51260  0.37920  Biso   1.000  C
  H74      1.0000 0.69620  0.45320  0.38070  Biso   1.000  H
  C91      1.0000 0.71330  0.63900  0.42970  Biso   1.000  C
  H75      1.0000 0.72800  0.67250  0.46870  Biso   1.000  H
  C92      1.0000 0.69070  0.67740  0.36860  Biso   1.000  C
  H76      1.0000 0.69080  0.73690  0.36540  Biso   1.000  H
  C93      1.0000 0.66940  0.54690  0.31960  Biso   1.000  C
  H77      1.0000 0.65360  0.51200  0.28350  Biso   1.000  H
  C94      1.0000 0.66770  0.63220  0.31190  Biso   1.000  C
  C95      1.0000 0.64040  0.67420  0.25040  Biso   1.000  C
  H78      1.0000 0.65970  0.70110  0.21000  Biso   1.000  H
  H79      1.0000 0.62330  0.63090  0.22160  Biso   1.000  H
  C96      1.0000 0.61480  0.72860  0.27730  Biso   1.000  C
  H80      1.0000 0.63160  0.78120  0.28260  Biso   1.000  H
  H81      1.0000 0.60690  0.71110  0.33300  Biso   1.000  H
  C97      1.0000 0.57350  0.75090  0.23540  Biso   1.000  C
  H82      1.0000 0.55400  0.70160  0.23230  Biso   1.000  H
  H83      1.0000 0.57930  0.77120  0.17970  Biso   1.000  H
  C98      1.0000 0.55170  0.82430  0.28990  Biso   1.000  C
  C99      1.0000 0.55510  0.90340  0.29300  Biso   1.000  C
  H84      1.0000 0.57100  0.93170  0.25190  Biso   1.000  H
  C100     1.0000 0.53340  0.78520  0.36020  Biso   1.000  C
  H85      1.0000 0.53530  0.72630  0.36820  Biso   1.000  H
  C101     1.0000 0.53790  0.94580  0.34960  Biso   1.000  C
  H86      1.0000 0.54030  0.00490  0.34380  Biso   1.000  H
  C102     1.0000 0.51200  0.83840  0.41860  Biso   1.000  C
  H87      1.0000 0.49420  0.81520  0.46000  Biso   1.000  H
  S4       1.0000 0.83263  0.31732  0.98946  Biso   1.000  S
  O22      1.0000 0.78887  0.03810  0.25220  Biso   1.000  O
  O23      1.0000 0.75092  0.15500  0.22580  Biso   1.000  O
  O24      1.0000 0.92533  0.98480  0.11250  Biso   1.000  O
  O25      1.0000 0.94179  0.05430  0.99950  Biso   1.000  O
  O26      1.0000 0.87482  0.35580  0.98690  Biso   1.000  O
  O27      1.0000 0.80156  0.36760  0.03430  Biso   1.000  O
  O28      1.0000 0.81670  0.29190  0.91030  Biso   1.000  O
  N13      1.0000 0.78470  0.44470  0.43570  Biso   1.000  N
  N14      1.0000 0.78920  0.45100  0.60690  Biso   1.000  N
  N15      1.0000 0.78776  0.05500  0.41980  Biso   1.000  N
  N16      1.0000 0.98210  0.07870  0.41280  Biso   1.000  N
  C103     1.0000 0.80910  0.20040  0.10320  Biso   1.000  C
  H88      1.0000 0.78520  0.23640  0.11330  Biso   1.000  H
  C104     1.0000 0.83940  0.22150  0.04520  Biso   1.000  C
  C105     1.0000 0.87440  0.17010  0.02980  Biso   1.000  C
  H89      1.0000 0.89530  0.18610  0.99040  Biso   1.000  H
  C106     1.0000 0.87930  0.09510  0.07140  Biso   1.000  C
  C107     1.0000 0.84890  0.07360  0.13060  Biso   1.000  C
  H90      1.0000 0.85220  0.02270  0.15990  Biso   1.000  H
  C108     1.0000 0.81370  0.12600  0.14720  Biso   1.000  C
  C109     1.0000 0.78150  0.10590  0.21330  Biso   1.000  C
  C110     1.0000 0.91770  0.03970  0.06110  Biso   1.000  C
  C111     1.0000 0.83150  0.05800  0.41030  Biso   1.000  C
  H91      1.0000 0.84410  0.02860  0.36600  Biso   1.000  H
  C112     1.0000 0.77060  0.09720  0.48460  Biso   1.000  C
  C113     1.0000 0.84160  0.14420  0.52720  Biso   1.000  C
  C114     1.0000 0.79750  0.13940  0.53740  Biso   1.000  C
  H92      1.0000 0.78490  0.16650  0.58300  Biso   1.000  H
  C115     1.0000 0.85830  0.10120  0.46130  Biso   1.000  C
  H93      1.0000 0.88870  0.10170  0.45150  Biso   1.000  H
  C116     1.0000 0.87060  0.19670  0.58020  Biso   1.000  C
  H94      1.0000 0.86760  0.25610  0.56380  Biso   1.000  H
  H95      1.0000 0.90110  0.17990  0.57030  Biso   1.000  H
  C117     1.0000 0.86140  0.18980  0.67150  Biso   1.000  C
  H96      1.0000 0.83030  0.17660  0.67920  Biso   1.000  H
  H97      1.0000 0.87840  0.14250  0.69380  Biso   1.000  H
  C118     1.0000 0.87220  0.26890  0.71960  Biso   1.000  C
  H98      1.0000 0.86640  0.25970  0.77810  Biso   1.000  H
  H99      1.0000 0.90330  0.28310  0.71300  Biso   1.000  H
  C119     1.0000 0.84460  0.33880  0.68840  Biso   1.000  C
  C120     1.0000 0.80030  0.34010  0.70310  Biso   1.000  C
  H100     1.0000 0.78800  0.30250  0.74160  Biso   1.000  H
  C121     1.0000 0.77410  0.39510  0.66250  Biso   1.000  C
  H101     1.0000 0.74380  0.39420  0.67360  Biso   1.000  H
  C122     1.0000 0.83240  0.45500  0.59900  Biso   1.000  C
  H102     1.0000 0.84420  0.49650  0.56390  Biso   1.000  H
  C123     1.0000 0.86130  0.40150  0.63940  Biso   1.000  C
  C124     1.0000 0.80600  0.48740  0.37920  Biso   1.000  C
  H103     1.0000 0.80380  0.54680  0.38070  Biso   1.000  H
  C125     1.0000 0.78670  0.36100  0.42970  Biso   1.000  C
  H104     1.0000 0.77200  0.32750  0.46870  Biso   1.000  H
  C126     1.0000 0.80930  0.32260  0.36860  Biso   1.000  C
  H105     1.0000 0.80920  0.26310  0.36540  Biso   1.000  H
  C127     1.0000 0.83060  0.45310  0.31960  Biso   1.000  C
  H106     1.0000 0.84640  0.48800  0.28350  Biso   1.000  H
  C128     1.0000 0.83230  0.36780  0.31190  Biso   1.000  C
  C129     1.0000 0.85960  0.32580  0.25040  Biso   1.000  C
  H107     1.0000 0.84030  0.29890  0.21000  Biso   1.000  H
  H108     1.0000 0.87670  0.36910  0.22160  Biso   1.000  H
  C130     1.0000 0.88520  0.27140  0.27730  Biso   1.000  C
  H109     1.0000 0.86840  0.21880  0.28260  Biso   1.000  H
  H110     1.0000 0.89310  0.28890  0.33300  Biso   1.000  H
  C131     1.0000 0.92650  0.24910  0.23540  Biso   1.000  C
  H111     1.0000 0.94600  0.29840  0.23230  Biso   1.000  H
  H112     1.0000 0.92070  0.22880  0.17970  Biso   1.000  H
  C132     1.0000 0.94830  0.17570  0.28990  Biso   1.000  C
  C133     1.0000 0.94490  0.09660  0.29300  Biso   1.000  C
  H113     1.0000 0.92900  0.06830  0.25190  Biso   1.000  H
  C134     1.0000 0.96660  0.21480  0.36020  Biso   1.000  C
  H114     1.0000 0.96470  0.27370  0.36820  Biso   1.000  H
  C135     1.0000 0.96210  0.05420  0.34960  Biso   1.000  C
  H115     1.0000 0.95970  0.99510  0.34380  Biso   1.000  H
  C136     1.0000 0.98800  0.16160  0.41860  Biso   1.000  C
  H116     1.0000 0.00580  0.18480  0.46000  Biso   1.000  H
  S5       1.0000 0.66737  0.31732  0.48946  Biso   1.000  S
  O29      1.0000 0.71113  0.03810  0.75220  Biso   1.000  O
  O30      1.0000 0.74908  0.15500  0.72580  Biso   1.000  O
  O31      1.0000 0.57467  0.98480  0.61250  Biso   1.000  O
  O32      1.0000 0.55821  0.05430  0.49950  Biso   1.000  O
  O33      1.0000 0.62518  0.35580  0.48690  Biso   1.000  O
  O34      1.0000 0.69844  0.36760  0.53430  Biso   1.000  O
  O35      1.0000 0.68330  0.29190  0.41030  Biso   1.000  O
  N17      1.0000 0.71530  0.44470  0.93570  Biso   1.000  N
  N18      1.0000 0.71080  0.45100  0.10690  Biso   1.000  N
  N19      1.0000 0.71224  0.05500  0.91980  Biso   1.000  N
  N20      1.0000 0.51790  0.07870  0.91280  Biso   1.000  N
  C137     1.0000 0.69090  0.20040  0.60320  Biso   1.000  C
  H117     1.0000 0.71480  0.23640  0.61330  Biso   1.000  H
  C138     1.0000 0.66060  0.22150  0.54520  Biso   1.000  C
  C139     1.0000 0.62560  0.17010  0.52980  Biso   1.000  C
  H118     1.0000 0.60470  0.18610  0.49040  Biso   1.000  H
  C140     1.0000 0.62070  0.09510  0.57140  Biso   1.000  C
  C141     1.0000 0.65110  0.07360  0.63060  Biso   1.000  C
  H119     1.0000 0.64780  0.02270  0.65990  Biso   1.000  H
  C142     1.0000 0.68630  0.12600  0.64720  Biso   1.000  C
  C143     1.0000 0.71850  0.10590  0.71330  Biso   1.000  C
  C144     1.0000 0.58230  0.03970  0.56110  Biso   1.000  C
  C145     1.0000 0.66850  0.05800  0.91030  Biso   1.000  C
  H120     1.0000 0.65590  0.02860  0.86600  Biso   1.000  H
  C146     1.0000 0.72940  0.09720  0.98460  Biso   1.000  C
  C147     1.0000 0.65840  0.14420  0.02720  Biso   1.000  C
  C148     1.0000 0.70250  0.13940  0.03740  Biso   1.000  C
  H121     1.0000 0.71510  0.16650  0.08300  Biso   1.000  H
  C149     1.0000 0.64170  0.10120  0.96130  Biso   1.000  C
  H122     1.0000 0.61130  0.10170  0.95150  Biso   1.000  H
  C150     1.0000 0.62940  0.19670  0.08020  Biso   1.000  C
  H123     1.0000 0.63240  0.25610  0.06380  Biso   1.000  H
  H124     1.0000 0.59890  0.17990  0.07030  Biso   1.000  H
  C151     1.0000 0.63860  0.18980  0.17150  Biso   1.000  C
  H125     1.0000 0.66970  0.17660  0.17920  Biso   1.000  H
  H126     1.0000 0.62160  0.14250  0.19380  Biso   1.000  H
  C152     1.0000 0.62780  0.26890  0.21960  Biso   1.000  C
  H127     1.0000 0.63360  0.25970  0.27810  Biso   1.000  H
  H128     1.0000 0.59670  0.28310  0.21300  Biso   1.000  H
  C153     1.0000 0.65540  0.33880  0.18840  Biso   1.000  C
  C154     1.0000 0.69970  0.34010  0.20310  Biso   1.000  C
  H129     1.0000 0.71200  0.30250  0.24160  Biso   1.000  H
  C155     1.0000 0.72590  0.39510  0.16250  Biso   1.000  C
  H130     1.0000 0.75620  0.39420  0.17360  Biso   1.000  H
  C156     1.0000 0.66760  0.45500  0.09900  Biso   1.000  C
  H131     1.0000 0.65580  0.49650  0.06390  Biso   1.000  H
  C157     1.0000 0.63870  0.40150  0.13940  Biso   1.000  C
  C158     1.0000 0.69400  0.48740  0.87920  Biso   1.000  C
  H132     1.0000 0.69620  0.54680  0.88070  Biso   1.000  H
  C159     1.0000 0.71330  0.36100  0.92970  Biso   1.000  C
  H133     1.0000 0.72800  0.32750  0.96870  Biso   1.000  H
  C160     1.0000 0.69070  0.32260  0.86860  Biso   1.000  C
  H134     1.0000 0.69080  0.26310  0.86540  Biso   1.000  H
  C161     1.0000 0.66940  0.45310  0.81960  Biso   1.000  C
  H135     1.0000 0.65360  0.48800  0.78350  Biso   1.000  H
  C162     1.0000 0.66770  0.36780  0.81190  Biso   1.000  C
  C163     1.0000 0.64040  0.32580  0.75040  Biso   1.000  C
  H136     1.0000 0.65970  0.29890  0.71000  Biso   1.000  H
  H137     1.0000 0.62330  0.36910  0.72160  Biso   1.000  H
  C164     1.0000 0.61480  0.27140  0.77730  Biso   1.000  C
  H138     1.0000 0.63160  0.21880  0.78260  Biso   1.000  H
  H139     1.0000 0.60690  0.28890  0.83300  Biso   1.000  H
  C165     1.0000 0.57350  0.24910  0.73540  Biso   1.000  C
  H140     1.0000 0.55400  0.29840  0.73230  Biso   1.000  H
  H141     1.0000 0.57930  0.22880  0.67970  Biso   1.000  H
  C166     1.0000 0.55170  0.17570  0.78990  Biso   1.000  C
  C167     1.0000 0.55510  0.09660  0.79300  Biso   1.000  C
  H142     1.0000 0.57100  0.06830  0.75190  Biso   1.000  H
  C168     1.0000 0.53340  0.21480  0.86020  Biso   1.000  C
  H143     1.0000 0.53530  0.27370  0.86820  Biso   1.000  H
  C169     1.0000 0.53790  0.05420  0.84960  Biso   1.000  C
  H144     1.0000 0.54030  0.99510  0.84380  Biso   1.000  H
  C170     1.0000 0.51200  0.16160  0.91860  Biso   1.000  C
  H145     1.0000 0.49420  0.18480  0.96000  Biso   1.000  H
  S6       1.0000 0.83263  0.68268  0.48946  Biso   1.000  S
  O36      1.0000 0.78887  0.96190  0.75220  Biso   1.000  O
  O37      1.0000 0.75092  0.84500  0.72580  Biso   1.000  O
  O38      1.0000 0.92533  0.01520  0.61250  Biso   1.000  O
  O39      1.0000 0.94179  0.94570  0.49950  Biso   1.000  O
  O40      1.0000 0.87482  0.64420  0.48690  Biso   1.000  O
  O41      1.0000 0.80156  0.63240  0.53430  Biso   1.000  O
  O42      1.0000 0.81670  0.70810  0.41030  Biso   1.000  O
  N21      1.0000 0.78470  0.55530  0.93570  Biso   1.000  N
  N22      1.0000 0.78920  0.54900  0.10690  Biso   1.000  N
  N23      1.0000 0.78776  0.94500  0.91980  Biso   1.000  N
  N24      1.0000 0.98210  0.92130  0.91280  Biso   1.000  N
  C171     1.0000 0.80910  0.79960  0.60320  Biso   1.000  C
  H146     1.0000 0.78520  0.76360  0.61330  Biso   1.000  H
  C172     1.0000 0.83940  0.77850  0.54520  Biso   1.000  C
  C173     1.0000 0.87440  0.82990  0.52980  Biso   1.000  C
  H147     1.0000 0.89530  0.81390  0.49040  Biso   1.000  H
  C174     1.0000 0.87930  0.90490  0.57140  Biso   1.000  C
  C175     1.0000 0.84890  0.92640  0.63060  Biso   1.000  C
  H148     1.0000 0.85220  0.97730  0.65990  Biso   1.000  H
  C176     1.0000 0.81370  0.87400  0.64720  Biso   1.000  C
  C177     1.0000 0.78150  0.89410  0.71330  Biso   1.000  C
  C178     1.0000 0.91770  0.96030  0.56110  Biso   1.000  C
  C179     1.0000 0.83150  0.94200  0.91030  Biso   1.000  C
  H149     1.0000 0.84410  0.97140  0.86600  Biso   1.000  H
  C180     1.0000 0.77060  0.90280  0.98460  Biso   1.000  C
  C181     1.0000 0.84160  0.85580  0.02720  Biso   1.000  C
  C182     1.0000 0.79750  0.86060  0.03740  Biso   1.000  C
  H150     1.0000 0.78490  0.83350  0.08300  Biso   1.000  H
  C183     1.0000 0.85830  0.89880  0.96130  Biso   1.000  C
  H151     1.0000 0.88870  0.89830  0.95150  Biso   1.000  H
  C184     1.0000 0.87060  0.80330  0.08020  Biso   1.000  C
  H152     1.0000 0.86760  0.74390  0.06380  Biso   1.000  H
  H153     1.0000 0.90110  0.82010  0.07030  Biso   1.000  H
  C185     1.0000 0.86140  0.81020  0.17150  Biso   1.000  C
  H154     1.0000 0.83030  0.82340  0.17920  Biso   1.000  H
  H155     1.0000 0.87840  0.85750  0.19380  Biso   1.000  H
  C186     1.0000 0.87220  0.73110  0.21960  Biso   1.000  C
  H156     1.0000 0.86640  0.74030  0.27810  Biso   1.000  H
  H157     1.0000 0.90330  0.71690  0.21300  Biso   1.000  H
  C187     1.0000 0.84460  0.66120  0.18840  Biso   1.000  C
  C188     1.0000 0.80030  0.65990  0.20310  Biso   1.000  C
  H158     1.0000 0.78800  0.69750  0.24160  Biso   1.000  H
  C189     1.0000 0.77410  0.60490  0.16250  Biso   1.000  C
  H159     1.0000 0.74380  0.60580  0.17360  Biso   1.000  H
  C190     1.0000 0.83240  0.54500  0.09900  Biso   1.000  C
  H160     1.0000 0.84420  0.50350  0.06390  Biso   1.000  H
  C191     1.0000 0.86130  0.59850  0.13940  Biso   1.000  C
  C192     1.0000 0.80600  0.51260  0.87920  Biso   1.000  C
  H161     1.0000 0.80380  0.45320  0.88070  Biso   1.000  H
  C193     1.0000 0.78670  0.63900  0.92970  Biso   1.000  C
  H162     1.0000 0.77200  0.67250  0.96870  Biso   1.000  H
  C194     1.0000 0.80930  0.67740  0.86860  Biso   1.000  C
  H163     1.0000 0.80920  0.73690  0.86540  Biso   1.000  H
  C195     1.0000 0.83060  0.54690  0.81960  Biso   1.000  C
  H164     1.0000 0.84640  0.51200  0.78350  Biso   1.000  H
  C196     1.0000 0.83230  0.63220  0.81190  Biso   1.000  C
  C197     1.0000 0.85960  0.67420  0.75040  Biso   1.000  C
  H165     1.0000 0.84030  0.70110  0.71000  Biso   1.000  H
  H166     1.0000 0.87670  0.63090  0.72160  Biso   1.000  H
  C198     1.0000 0.88520  0.72860  0.77730  Biso   1.000  C
  H167     1.0000 0.86840  0.78120  0.78260  Biso   1.000  H
  H168     1.0000 0.89310  0.71110  0.83300  Biso   1.000  H
  C199     1.0000 0.92650  0.75090  0.73540  Biso   1.000  C
  H169     1.0000 0.94600  0.70160  0.73230  Biso   1.000  H
  H170     1.0000 0.92070  0.77120  0.67970  Biso   1.000  H
  C200     1.0000 0.94830  0.82430  0.78990  Biso   1.000  C
  C201     1.0000 0.94490  0.90340  0.79300  Biso   1.000  C
  H171     1.0000 0.92900  0.93170  0.75190  Biso   1.000  H
  C202     1.0000 0.96660  0.78520  0.86020  Biso   1.000  C
  H172     1.0000 0.96470  0.72630  0.86820  Biso   1.000  H
  C203     1.0000 0.96210  0.94580  0.84960  Biso   1.000  C
  H173     1.0000 0.95970  0.00490  0.84380  Biso   1.000  H
  C204     1.0000 0.98800  0.83840  0.91860  Biso   1.000  C
  H174     1.0000 0.00580  0.81520  0.96000  Biso   1.000  H
  S7       1.0000 0.33263  0.31732  0.01054  Biso   1.000  S
  O43      1.0000 0.28887  0.03810  0.74780  Biso   1.000  O
  O44      1.0000 0.25092  0.15500  0.77420  Biso   1.000  O
  O45      1.0000 0.42533  0.98480  0.88750  Biso   1.000  O
  O46      1.0000 0.44179  0.05430  0.00050  Biso   1.000  O
  O47      1.0000 0.37482  0.35580  0.01310  Biso   1.000  O
  O48      1.0000 0.30156  0.36760  0.96570  Biso   1.000  O
  O49      1.0000 0.31670  0.29190  0.08970  Biso   1.000  O
  N25      1.0000 0.28470  0.44470  0.56430  Biso   1.000  N
  N26      1.0000 0.28920  0.45100  0.39310  Biso   1.000  N
  N27      1.0000 0.28776  0.05500  0.58020  Biso   1.000  N
  N28      1.0000 0.48210  0.07870  0.58720  Biso   1.000  N
  C205     1.0000 0.30910  0.20040  0.89680  Biso   1.000  C
  H175     1.0000 0.28520  0.23640  0.88670  Biso   1.000  H
  C206     1.0000 0.33940  0.22150  0.95480  Biso   1.000  C
  C207     1.0000 0.37440  0.17010  0.97020  Biso   1.000  C
  H176     1.0000 0.39530  0.18610  0.00960  Biso   1.000  H
  C208     1.0000 0.37930  0.09510  0.92860  Biso   1.000  C
  C209     1.0000 0.34890  0.07360  0.86940  Biso   1.000  C
  H177     1.0000 0.35220  0.02270  0.84010  Biso   1.000  H
  C210     1.0000 0.31370  0.12600  0.85280  Biso   1.000  C
  C211     1.0000 0.28150  0.10590  0.78670  Biso   1.000  C
  C212     1.0000 0.41770  0.03970  0.93890  Biso   1.000  C
  C213     1.0000 0.33150  0.05800  0.58970  Biso   1.000  C
  H178     1.0000 0.34410  0.02860  0.63400  Biso   1.000  H
  C214     1.0000 0.27060  0.09720  0.51540  Biso   1.000  C
  C215     1.0000 0.34160  0.14420  0.47280  Biso   1.000  C
  C216     1.0000 0.29750  0.13940  0.46260  Biso   1.000  C
  H179     1.0000 0.28490  0.16650  0.41700  Biso   1.000  H
  C217     1.0000 0.35830  0.10120  0.53870  Biso   1.000  C
  H180     1.0000 0.38870  0.10170  0.54850  Biso   1.000  H
  C218     1.0000 0.37060  0.19670  0.41980  Biso   1.000  C
  H181     1.0000 0.36760  0.25610  0.43620  Biso   1.000  H
  H182     1.0000 0.40110  0.17990  0.42970  Biso   1.000  H
  C219     1.0000 0.36140  0.18980  0.32850  Biso   1.000  C
  H183     1.0000 0.33030  0.17660  0.32080  Biso   1.000  H
  H184     1.0000 0.37840  0.14250  0.30620  Biso   1.000  H
  C220     1.0000 0.37220  0.26890  0.28040  Biso   1.000  C
  H185     1.0000 0.36640  0.25970  0.22190  Biso   1.000  H
  H186     1.0000 0.40330  0.28310  0.28700  Biso   1.000  H
  C221     1.0000 0.34460  0.33880  0.31160  Biso   1.000  C
  C222     1.0000 0.30030  0.34010  0.29690  Biso   1.000  C
  H187     1.0000 0.28800  0.30250  0.25840  Biso   1.000  H
  C223     1.0000 0.27410  0.39510  0.33750  Biso   1.000  C
  H188     1.0000 0.24380  0.39420  0.32640  Biso   1.000  H
  C224     1.0000 0.33240  0.45500  0.40100  Biso   1.000  C
  H189     1.0000 0.34420  0.49650  0.43610  Biso   1.000  H
  C225     1.0000 0.36130  0.40150  0.36060  Biso   1.000  C
  C226     1.0000 0.30600  0.48740  0.62080  Biso   1.000  C
  H190     1.0000 0.30380  0.54680  0.61930  Biso   1.000  H
  C227     1.0000 0.28670  0.36100  0.57030  Biso   1.000  C
  H191     1.0000 0.27200  0.32750  0.53130  Biso   1.000  H
  C228     1.0000 0.30930  0.32260  0.63140  Biso   1.000  C
  H192     1.0000 0.30920  0.26310  0.63460  Biso   1.000  H
  C229     1.0000 0.33060  0.45310  0.68040  Biso   1.000  C
  H193     1.0000 0.34640  0.48800  0.71650  Biso   1.000  H
  C230     1.0000 0.33230  0.36780  0.68810  Biso   1.000  C
  C231     1.0000 0.35960  0.32580  0.74960  Biso   1.000  C
  H194     1.0000 0.34030  0.29890  0.79000  Biso   1.000  H
  H195     1.0000 0.37670  0.36910  0.77840  Biso   1.000  H
  C232     1.0000 0.38520  0.27140  0.72270  Biso   1.000  C
  H196     1.0000 0.36840  0.21880  0.71740  Biso   1.000  H
  H197     1.0000 0.39310  0.28890  0.66700  Biso   1.000  H
  C233     1.0000 0.42650  0.24910  0.76460  Biso   1.000  C
  H198     1.0000 0.44600  0.29840  0.76770  Biso   1.000  H
  H199     1.0000 0.42070  0.22880  0.82030  Biso   1.000  H
  C234     1.0000 0.44830  0.17570  0.71010  Biso   1.000  C
  C235     1.0000 0.44490  0.09660  0.70700  Biso   1.000  C
  H200     1.0000 0.42900  0.06830  0.74810  Biso   1.000  H
  C236     1.0000 0.46660  0.21480  0.63980  Biso   1.000  C
  H201     1.0000 0.46470  0.27370  0.63180  Biso   1.000  H
  C237     1.0000 0.46210  0.05420  0.65040  Biso   1.000  C
  H202     1.0000 0.45970  0.99510  0.65620  Biso   1.000  H
  C238     1.0000 0.48800  0.16160  0.58140  Biso   1.000  C
  H203     1.0000 0.50580  0.18480  0.54000  Biso   1.000  H
  S8       1.0000 0.16737  0.68268  0.01054  Biso   1.000  S
  O50      1.0000 0.21113  0.96190  0.74780  Biso   1.000  O
  O51      1.0000 0.24908  0.84500  0.77420  Biso   1.000  O
  O52      1.0000 0.07467  0.01520  0.88750  Biso   1.000  O
  O53      1.0000 0.05821  0.94570  0.00050  Biso   1.000  O
  O54      1.0000 0.12518  0.64420  0.01310  Biso   1.000  O
  O55      1.0000 0.19844  0.63240  0.96570  Biso   1.000  O
  O56      1.0000 0.18330  0.70810  0.08970  Biso   1.000  O
  N29      1.0000 0.21530  0.55530  0.56430  Biso   1.000  N
  N30      1.0000 0.21080  0.54900  0.39310  Biso   1.000  N
  N31      1.0000 0.21224  0.94500  0.58020  Biso   1.000  N
  N32      1.0000 0.01790  0.92130  0.58720  Biso   1.000  N
  C239     1.0000 0.19090  0.79960  0.89680  Biso   1.000  C
  H204     1.0000 0.21480  0.76360  0.88670  Biso   1.000  H
  C240     1.0000 0.16060  0.77850  0.95480  Biso   1.000  C
  C241     1.0000 0.12560  0.82990  0.97020  Biso   1.000  C
  H205     1.0000 0.10470  0.81390  0.00960  Biso   1.000  H
  C242     1.0000 0.12070  0.90490  0.92860  Biso   1.000  C
  C243     1.0000 0.15110  0.92640  0.86940  Biso   1.000  C
  H206     1.0000 0.14780  0.97730  0.84010  Biso   1.000  H
  C244     1.0000 0.18630  0.87400  0.85280  Biso   1.000  C
  C245     1.0000 0.21850  0.89410  0.78670  Biso   1.000  C
  C246     1.0000 0.08230  0.96030  0.93890  Biso   1.000  C
  C247     1.0000 0.16850  0.94200  0.58970  Biso   1.000  C
  H207     1.0000 0.15590  0.97140  0.63400  Biso   1.000  H
  C248     1.0000 0.22940  0.90280  0.51540  Biso   1.000  C
  C249     1.0000 0.15840  0.85580  0.47280  Biso   1.000  C
  C250     1.0000 0.20250  0.86060  0.46260  Biso   1.000  C
  H208     1.0000 0.21510  0.83350  0.41700  Biso   1.000  H
  C251     1.0000 0.14170  0.89880  0.53870  Biso   1.000  C
  H209     1.0000 0.11130  0.89830  0.54850  Biso   1.000  H
  C252     1.0000 0.12940  0.80330  0.41980  Biso   1.000  C
  H210     1.0000 0.13240  0.74390  0.43620  Biso   1.000  H
  H211     1.0000 0.09890  0.82010  0.42970  Biso   1.000  H
  C253     1.0000 0.13860  0.81020  0.32850  Biso   1.000  C
  H212     1.0000 0.16970  0.82340  0.32080  Biso   1.000  H
  H213     1.0000 0.12160  0.85750  0.30620  Biso   1.000  H
  C254     1.0000 0.12780  0.73110  0.28040  Biso   1.000  C
  H214     1.0000 0.13360  0.74030  0.22190  Biso   1.000  H
  H215     1.0000 0.09670  0.71690  0.28700  Biso   1.000  H
  C255     1.0000 0.15540  0.66120  0.31160  Biso   1.000  C
  C256     1.0000 0.19970  0.65990  0.29690  Biso   1.000  C
  H216     1.0000 0.21200  0.69750  0.25840  Biso   1.000  H
  C257     1.0000 0.22590  0.60490  0.33750  Biso   1.000  C
  H217     1.0000 0.25620  0.60580  0.32640  Biso   1.000  H
  C258     1.0000 0.16760  0.54500  0.40100  Biso   1.000  C
  H218     1.0000 0.15580  0.50350  0.43610  Biso   1.000  H
  C259     1.0000 0.13870  0.59850  0.36060  Biso   1.000  C
  C260     1.0000 0.19400  0.51260  0.62080  Biso   1.000  C
  H219     1.0000 0.19620  0.45320  0.61930  Biso   1.000  H
  C261     1.0000 0.21330  0.63900  0.57030  Biso   1.000  C
  H220     1.0000 0.22800  0.67250  0.53130  Biso   1.000  H
  C262     1.0000 0.19070  0.67740  0.63140  Biso   1.000  C
  H221     1.0000 0.19080  0.73690  0.63460  Biso   1.000  H
  C263     1.0000 0.16940  0.54690  0.68040  Biso   1.000  C
  H222     1.0000 0.15360  0.51200  0.71650  Biso   1.000  H
  C264     1.0000 0.16770  0.63220  0.68810  Biso   1.000  C
  C265     1.0000 0.14040  0.67420  0.74960  Biso   1.000  C
  H223     1.0000 0.15970  0.70110  0.79000  Biso   1.000  H
  H224     1.0000 0.12330  0.63090  0.77840  Biso   1.000  H
  C266     1.0000 0.11480  0.72860  0.72270  Biso   1.000  C
  H225     1.0000 0.13160  0.78120  0.71740  Biso   1.000  H
  H226     1.0000 0.10690  0.71110  0.66700  Biso   1.000  H
  C267     1.0000 0.07350  0.75090  0.76460  Biso   1.000  C
  H227     1.0000 0.05400  0.70160  0.76770  Biso   1.000  H
  H228     1.0000 0.07930  0.77120  0.82030  Biso   1.000  H
  C268     1.0000 0.05170  0.82430  0.71010  Biso   1.000  C
  C269     1.0000 0.05510  0.90340  0.70700  Biso   1.000  C
  H229     1.0000 0.07100  0.93170  0.74810  Biso   1.000  H
  C270     1.0000 0.03340  0.78520  0.63980  Biso   1.000  C
  H230     1.0000 0.03530  0.72630  0.63180  Biso   1.000  H
  C271     1.0000 0.03790  0.94580  0.65040  Biso   1.000  C
  H231     1.0000 0.04030  0.00490  0.65620  Biso   1.000  H
  C272     1.0000 0.01200  0.83840  0.58140  Biso   1.000  C
  H232     1.0000 0.99420  0.81520  0.54000  Biso   1.000  H
  Cu1      1.0000 0.25000  0.00000  0.16274  Biso   1.000  Cu
  Cu2      1.0000 0.75000  0.00000  0.33726  Biso   1.000  Cu
  Cu3      1.0000 0.75000  0.00000  0.83726  Biso   1.000  Cu
  Cu4      1.0000 0.25000  0.00000  0.66274  Biso   1.000  Cu
  Cu5      1.0000 0.25000  0.50000  0.97636  Biso   1.000  Cu
  Cu6      1.0000 0.75000  0.50000  0.52364  Biso   1.000  Cu
  Cu7      1.0000 0.75000  0.50000  0.02364  Biso   1.000  Cu
  Cu8      1.0000 0.25000  0.50000  0.47636  Biso   1.000  Cu
  Cu9      1.0000 0.50000  0.00000  0.50000  Biso   1.000  Cu
  Cu10     1.0000 0.00000  0.00000  0.50000  Biso   1.000  Cu
  Cu11     1.0000 0.50000  0.00000  0.00000  Biso   1.000  Cu
  Cu12     1.0000 0.00000  0.00000  0.00000  Biso   1.000  Cu
