data_image0
_cell_length_a       24.8319
_cell_length_b       33.532
_cell_length_c       18.7099
_cell_angle_alpha    90
_cell_angle_beta     90
_cell_angle_gamma    90

_symmetry_space_group_name_H-M    "P 1"
_symmetry_int_tables_number       1

loop_
  _symmetry_equiv_pos_as_xyz
  'x, y, z'

loop_
  _atom_site_label
  _atom_site_occupancy
  _atom_site_fract_x
  _atom_site_fract_y
  _atom_site_fract_z
  _atom_site_thermal_displace_type
  _atom_site_B_iso_or_equiv
  _atom_site_type_symbol
  Cu1      1.0000 0.79021  0.73236  0.53475  Biso   1.000  Cu
  O1       1.0000 0.82202  0.72896  0.43980  Biso   1.000  O
  O2       1.0000 0.75336  0.75792  0.38040  Biso   1.000  O
  O3       1.0000 0.95800  0.57060  0.37070  Biso   1.000  O
  O4       1.0000 0.81847  0.78646  0.54530  Biso   1.000  O
  O5       1.0000 0.75082  0.81641  0.48620  Biso   1.000  O
  O6       1.0000 0.94509  0.86501  0.67760  Biso   1.000  O
  O7       1.0000 0.94378  0.93168  0.67640  Biso   1.000  O
  O8       1.0000 0.61140  0.97040  0.51570  Biso   1.000  O
  C1       1.0000 0.79840  0.74111  0.38380  Biso   1.000  C
  C2       1.0000 0.82580  0.73223  0.31410  Biso   1.000  C
  C3       1.0000 0.87560  0.71164  0.31180  Biso   1.000  C
  H1       1.0000 0.89200  0.70520  0.35500  Biso   1.000  H
  C4       1.0000 0.95130  0.64240  0.30090  Biso   1.000  C
  H2       1.0000 0.91870  0.63270  0.31800  Biso   1.000  H
  C5       1.0000 0.79430  0.81635  0.52230  Biso   1.000  C
  C6       1.0000 0.81650  0.85672  0.54120  Biso   1.000  C
  C7       1.0000 0.79090  0.89130  0.51860  Biso   1.000  C
  H3       1.0000 0.76110  0.88930  0.48860  Biso   1.000  H
  C8       1.0000 0.80840  0.92850  0.53970  Biso   1.000  C
  C9       1.0000 0.85330  0.93011  0.58300  Biso   1.000  C
  H4       1.0000 0.86600  0.95490  0.59750  Biso   1.000  H
  C10      1.0000 0.88000  0.89637  0.60580  Biso   1.000  C
  C11      1.0000 0.86080  0.85943  0.58400  Biso   1.000  C
  H5       1.0000 0.87830  0.83630  0.59870  Biso   1.000  H
  C12      1.0000 0.92680  0.89856  0.65680  Biso   1.000  C
  C13      1.0000 0.77840  0.96498  0.51870  Biso   1.000  C
  C14      1.0000 0.72210  0.96637  0.51940  Biso   1.000  C
  H6       1.0000 0.70270  0.94400  0.53340  Biso   1.000  H
  Cu2      1.0000 0.29021  0.23236  0.53475  Biso   1.000  Cu
  O9       1.0000 0.32202  0.22896  0.43980  Biso   1.000  O
  O10      1.0000 0.25336  0.25792  0.38040  Biso   1.000  O
  O11      1.0000 0.45800  0.07060  0.37070  Biso   1.000  O
  O12      1.0000 0.31847  0.28646  0.54530  Biso   1.000  O
  O13      1.0000 0.25082  0.31641  0.48620  Biso   1.000  O
  O14      1.0000 0.44509  0.36501  0.67760  Biso   1.000  O
  O15      1.0000 0.44378  0.43168  0.67640  Biso   1.000  O
  O16      1.0000 0.11140  0.47040  0.51570  Biso   1.000  O
  C15      1.0000 0.29840  0.24111  0.38380  Biso   1.000  C
  C16      1.0000 0.32580  0.23223  0.31410  Biso   1.000  C
  C17      1.0000 0.37560  0.21164  0.31180  Biso   1.000  C
  H7       1.0000 0.39200  0.20520  0.35500  Biso   1.000  H
  C18      1.0000 0.45130  0.14240  0.30090  Biso   1.000  C
  H8       1.0000 0.41870  0.13270  0.31800  Biso   1.000  H
  C19      1.0000 0.29430  0.31635  0.52230  Biso   1.000  C
  C20      1.0000 0.31650  0.35672  0.54120  Biso   1.000  C
  C21      1.0000 0.29090  0.39130  0.51860  Biso   1.000  C
  H9       1.0000 0.26110  0.38930  0.48860  Biso   1.000  H
  C22      1.0000 0.30840  0.42850  0.53970  Biso   1.000  C
  C23      1.0000 0.35330  0.43011  0.58300  Biso   1.000  C
  H10      1.0000 0.36600  0.45490  0.59750  Biso   1.000  H
  C24      1.0000 0.38000  0.39637  0.60580  Biso   1.000  C
  C25      1.0000 0.36080  0.35943  0.58400  Biso   1.000  C
  H11      1.0000 0.37830  0.33630  0.59870  Biso   1.000  H
  C26      1.0000 0.42680  0.39856  0.65680  Biso   1.000  C
  C27      1.0000 0.27840  0.46498  0.51870  Biso   1.000  C
  C28      1.0000 0.22210  0.46637  0.51940  Biso   1.000  C
  H12      1.0000 0.20270  0.44400  0.53340  Biso   1.000  H
  Cu3      1.0000 0.20979  0.26764  0.03475  Biso   1.000  Cu
  O17      1.0000 0.17798  0.27104  0.93980  Biso   1.000  O
  O18      1.0000 0.24664  0.24208  0.88040  Biso   1.000  O
  O19      1.0000 0.04200  0.42940  0.87070  Biso   1.000  O
  O20      1.0000 0.18153  0.21354  0.04530  Biso   1.000  O
  O21      1.0000 0.24918  0.18359  0.98620  Biso   1.000  O
  O22      1.0000 0.05491  0.13499  0.17760  Biso   1.000  O
  O23      1.0000 0.05622  0.06832  0.17640  Biso   1.000  O
  O24      1.0000 0.38860  0.02960  0.01570  Biso   1.000  O
  C29      1.0000 0.20160  0.25889  0.88380  Biso   1.000  C
  C30      1.0000 0.17420  0.26777  0.81410  Biso   1.000  C
  C31      1.0000 0.12440  0.28836  0.81180  Biso   1.000  C
  H13      1.0000 0.10800  0.29480  0.85500  Biso   1.000  H
  C32      1.0000 0.04870  0.35760  0.80090  Biso   1.000  C
  H14      1.0000 0.08130  0.36730  0.81800  Biso   1.000  H
  C33      1.0000 0.20570  0.18365  0.02230  Biso   1.000  C
  C34      1.0000 0.18350  0.14328  0.04120  Biso   1.000  C
  C35      1.0000 0.20910  0.10870  0.01860  Biso   1.000  C
  H15      1.0000 0.23890  0.11070  0.98860  Biso   1.000  H
  C36      1.0000 0.19160  0.07150  0.03970  Biso   1.000  C
  C37      1.0000 0.14670  0.06989  0.08300  Biso   1.000  C
  H16      1.0000 0.13400  0.04510  0.09750  Biso   1.000  H
  C38      1.0000 0.12000  0.10363  0.10580  Biso   1.000  C
  C39      1.0000 0.13920  0.14057  0.08400  Biso   1.000  C
  H17      1.0000 0.12170  0.16370  0.09870  Biso   1.000  H
  C40      1.0000 0.07320  0.10144  0.15680  Biso   1.000  C
  C41      1.0000 0.22160  0.03502  0.01870  Biso   1.000  C
  C42      1.0000 0.27790  0.03363  0.01940  Biso   1.000  C
  H18      1.0000 0.29730  0.05600  0.03340  Biso   1.000  H
  Cu4      1.0000 0.70979  0.76764  0.03475  Biso   1.000  Cu
  O25      1.0000 0.67798  0.77104  0.93980  Biso   1.000  O
  O26      1.0000 0.74664  0.74208  0.88040  Biso   1.000  O
  O27      1.0000 0.54200  0.92940  0.87070  Biso   1.000  O
  O28      1.0000 0.68153  0.71354  0.04530  Biso   1.000  O
  O29      1.0000 0.74918  0.68359  0.98620  Biso   1.000  O
  O30      1.0000 0.55491  0.63499  0.17760  Biso   1.000  O
  O31      1.0000 0.55622  0.56832  0.17640  Biso   1.000  O
  O32      1.0000 0.88860  0.52960  0.01570  Biso   1.000  O
  C43      1.0000 0.70160  0.75889  0.88380  Biso   1.000  C
  C44      1.0000 0.67420  0.76777  0.81410  Biso   1.000  C
  C45      1.0000 0.62440  0.78836  0.81180  Biso   1.000  C
  H19      1.0000 0.60800  0.79480  0.85500  Biso   1.000  H
  C46      1.0000 0.54870  0.85760  0.80090  Biso   1.000  C
  H20      1.0000 0.58130  0.86730  0.81800  Biso   1.000  H
  C47      1.0000 0.70570  0.68365  0.02230  Biso   1.000  C
  C48      1.0000 0.68350  0.64328  0.04120  Biso   1.000  C
  C49      1.0000 0.70910  0.60870  0.01860  Biso   1.000  C
  H21      1.0000 0.73890  0.61070  0.98860  Biso   1.000  H
  C50      1.0000 0.69160  0.57150  0.03970  Biso   1.000  C
  C51      1.0000 0.64670  0.56989  0.08300  Biso   1.000  C
  H22      1.0000 0.63400  0.54510  0.09750  Biso   1.000  H
  C52      1.0000 0.62000  0.60363  0.10580  Biso   1.000  C
  C53      1.0000 0.63920  0.64057  0.08400  Biso   1.000  C
  H23      1.0000 0.62170  0.66370  0.09870  Biso   1.000  H
  C54      1.0000 0.57320  0.60144  0.15680  Biso   1.000  C
  C55      1.0000 0.72160  0.53502  0.01870  Biso   1.000  C
  C56      1.0000 0.77790  0.53363  0.01940  Biso   1.000  C
  H24      1.0000 0.79730  0.55600  0.03340  Biso   1.000  H
  Cu5      1.0000 0.20979  0.73236  0.96525  Biso   1.000  Cu
  O33      1.0000 0.17798  0.72896  0.06020  Biso   1.000  O
  O34      1.0000 0.24664  0.75792  0.11960  Biso   1.000  O
  O35      1.0000 0.04200  0.57060  0.12930  Biso   1.000  O
  O36      1.0000 0.18153  0.78646  0.95470  Biso   1.000  O
  O37      1.0000 0.24918  0.81641  0.01380  Biso   1.000  O
  O38      1.0000 0.05491  0.86501  0.82240  Biso   1.000  O
  O39      1.0000 0.05622  0.93168  0.82360  Biso   1.000  O
  O40      1.0000 0.38860  0.97040  0.98430  Biso   1.000  O
  C57      1.0000 0.20160  0.74111  0.11620  Biso   1.000  C
  C58      1.0000 0.17420  0.73223  0.18590  Biso   1.000  C
  C59      1.0000 0.12440  0.71164  0.18820  Biso   1.000  C
  H25      1.0000 0.10800  0.70520  0.14500  Biso   1.000  H
  C60      1.0000 0.04870  0.64240  0.19910  Biso   1.000  C
  H26      1.0000 0.08130  0.63270  0.18200  Biso   1.000  H
  C61      1.0000 0.20570  0.81635  0.97770  Biso   1.000  C
  C62      1.0000 0.18350  0.85672  0.95880  Biso   1.000  C
  C63      1.0000 0.20910  0.89130  0.98140  Biso   1.000  C
  H27      1.0000 0.23890  0.88930  0.01140  Biso   1.000  H
  C64      1.0000 0.19160  0.92850  0.96030  Biso   1.000  C
  C65      1.0000 0.14670  0.93011  0.91700  Biso   1.000  C
  H28      1.0000 0.13400  0.95490  0.90250  Biso   1.000  H
  C66      1.0000 0.12000  0.89637  0.89420  Biso   1.000  C
  C67      1.0000 0.13920  0.85943  0.91600  Biso   1.000  C
  H29      1.0000 0.12170  0.83630  0.90130  Biso   1.000  H
  C68      1.0000 0.07320  0.89856  0.84320  Biso   1.000  C
  C69      1.0000 0.22160  0.96498  0.98130  Biso   1.000  C
  C70      1.0000 0.27790  0.96637  0.98060  Biso   1.000  C
  H30      1.0000 0.29730  0.94400  0.96660  Biso   1.000  H
  Cu6      1.0000 0.70979  0.23236  0.96525  Biso   1.000  Cu
  O41      1.0000 0.67798  0.22896  0.06020  Biso   1.000  O
  O42      1.0000 0.74664  0.25792  0.11960  Biso   1.000  O
  O43      1.0000 0.54200  0.07060  0.12930  Biso   1.000  O
  O44      1.0000 0.68153  0.28646  0.95470  Biso   1.000  O
  O45      1.0000 0.74918  0.31641  0.01380  Biso   1.000  O
  O46      1.0000 0.55491  0.36501  0.82240  Biso   1.000  O
  O47      1.0000 0.55622  0.43168  0.82360  Biso   1.000  O
  O48      1.0000 0.88860  0.47040  0.98430  Biso   1.000  O
  C71      1.0000 0.70160  0.24111  0.11620  Biso   1.000  C
  C72      1.0000 0.67420  0.23223  0.18590  Biso   1.000  C
  C73      1.0000 0.62440  0.21164  0.18820  Biso   1.000  C
  H31      1.0000 0.60800  0.20520  0.14500  Biso   1.000  H
  C74      1.0000 0.54870  0.14240  0.19910  Biso   1.000  C
  H32      1.0000 0.58130  0.13270  0.18200  Biso   1.000  H
  C75      1.0000 0.70570  0.31635  0.97770  Biso   1.000  C
  C76      1.0000 0.68350  0.35672  0.95880  Biso   1.000  C
  C77      1.0000 0.70910  0.39130  0.98140  Biso   1.000  C
  H33      1.0000 0.73890  0.38930  0.01140  Biso   1.000  H
  C78      1.0000 0.69160  0.42850  0.96030  Biso   1.000  C
  C79      1.0000 0.64670  0.43011  0.91700  Biso   1.000  C
  H34      1.0000 0.63400  0.45490  0.90250  Biso   1.000  H
  C80      1.0000 0.62000  0.39637  0.89420  Biso   1.000  C
  C81      1.0000 0.63920  0.35943  0.91600  Biso   1.000  C
  H35      1.0000 0.62170  0.33630  0.90130  Biso   1.000  H
  C82      1.0000 0.57320  0.39856  0.84320  Biso   1.000  C
  C83      1.0000 0.72160  0.46498  0.98130  Biso   1.000  C
  C84      1.0000 0.77790  0.46637  0.98060  Biso   1.000  C
  H36      1.0000 0.79730  0.44400  0.96660  Biso   1.000  H
  Cu7      1.0000 0.79021  0.26764  0.46525  Biso   1.000  Cu
  O49      1.0000 0.82202  0.27104  0.56020  Biso   1.000  O
  O50      1.0000 0.75336  0.24208  0.61960  Biso   1.000  O
  O51      1.0000 0.95800  0.42940  0.62930  Biso   1.000  O
  O52      1.0000 0.81847  0.21354  0.45470  Biso   1.000  O
  O53      1.0000 0.75082  0.18359  0.51380  Biso   1.000  O
  O54      1.0000 0.94509  0.13499  0.32240  Biso   1.000  O
  O55      1.0000 0.94378  0.06832  0.32360  Biso   1.000  O
  O56      1.0000 0.61140  0.02960  0.48430  Biso   1.000  O
  C85      1.0000 0.79840  0.25889  0.61620  Biso   1.000  C
  C86      1.0000 0.82580  0.26777  0.68590  Biso   1.000  C
  C87      1.0000 0.87560  0.28836  0.68820  Biso   1.000  C
  H37      1.0000 0.89200  0.29480  0.64500  Biso   1.000  H
  C88      1.0000 0.95130  0.35760  0.69910  Biso   1.000  C
  H38      1.0000 0.91870  0.36730  0.68200  Biso   1.000  H
  C89      1.0000 0.79430  0.18365  0.47770  Biso   1.000  C
  C90      1.0000 0.81650  0.14328  0.45880  Biso   1.000  C
  C91      1.0000 0.79090  0.10870  0.48140  Biso   1.000  C
  H39      1.0000 0.76110  0.11070  0.51140  Biso   1.000  H
  C92      1.0000 0.80840  0.07150  0.46030  Biso   1.000  C
  C93      1.0000 0.85330  0.06989  0.41700  Biso   1.000  C
  H40      1.0000 0.86600  0.04510  0.40250  Biso   1.000  H
  C94      1.0000 0.88000  0.10363  0.39420  Biso   1.000  C
  C95      1.0000 0.86080  0.14057  0.41600  Biso   1.000  C
  H41      1.0000 0.87830  0.16370  0.40130  Biso   1.000  H
  C96      1.0000 0.92680  0.10144  0.34320  Biso   1.000  C
  C97      1.0000 0.77840  0.03502  0.48130  Biso   1.000  C
  C98      1.0000 0.72210  0.03363  0.48060  Biso   1.000  C
  H42      1.0000 0.70270  0.05600  0.46660  Biso   1.000  H
  Cu8      1.0000 0.29021  0.76764  0.46525  Biso   1.000  Cu
  O57      1.0000 0.32202  0.77104  0.56020  Biso   1.000  O
  O58      1.0000 0.25336  0.74208  0.61960  Biso   1.000  O
  O59      1.0000 0.45800  0.92940  0.62930  Biso   1.000  O
  O60      1.0000 0.31847  0.71354  0.45470  Biso   1.000  O
  O61      1.0000 0.25082  0.68359  0.51380  Biso   1.000  O
  O62      1.0000 0.44509  0.63499  0.32240  Biso   1.000  O
  O63      1.0000 0.44378  0.56832  0.32360  Biso   1.000  O
  O64      1.0000 0.11140  0.52960  0.48430  Biso   1.000  O
  C99      1.0000 0.29840  0.75889  0.61620  Biso   1.000  C
  C100     1.0000 0.32580  0.76777  0.68590  Biso   1.000  C
  C101     1.0000 0.37560  0.78836  0.68820  Biso   1.000  C
  H43      1.0000 0.39200  0.79480  0.64500  Biso   1.000  H
  C102     1.0000 0.45130  0.85760  0.69910  Biso   1.000  C
  H44      1.0000 0.41870  0.86730  0.68200  Biso   1.000  H
  C103     1.0000 0.29430  0.68365  0.47770  Biso   1.000  C
  C104     1.0000 0.31650  0.64328  0.45880  Biso   1.000  C
  C105     1.0000 0.29090  0.60870  0.48140  Biso   1.000  C
  H45      1.0000 0.26110  0.61070  0.51140  Biso   1.000  H
  C106     1.0000 0.30840  0.57150  0.46030  Biso   1.000  C
  C107     1.0000 0.35330  0.56989  0.41700  Biso   1.000  C
  H46      1.0000 0.36600  0.54510  0.40250  Biso   1.000  H
  C108     1.0000 0.38000  0.60363  0.39420  Biso   1.000  C
  C109     1.0000 0.36080  0.64057  0.41600  Biso   1.000  C
  H47      1.0000 0.37830  0.66370  0.40130  Biso   1.000  H
  C110     1.0000 0.42680  0.60144  0.34320  Biso   1.000  C
  C111     1.0000 0.27840  0.53502  0.48130  Biso   1.000  C
  C112     1.0000 0.22210  0.53363  0.48060  Biso   1.000  C
  H48      1.0000 0.20270  0.55600  0.46660  Biso   1.000  H
  Cu9      1.0000 0.20979  0.26764  0.46525  Biso   1.000  Cu
  O65      1.0000 0.17798  0.27104  0.56020  Biso   1.000  O
  O66      1.0000 0.24664  0.24208  0.61960  Biso   1.000  O
  O67      1.0000 0.04200  0.42940  0.62930  Biso   1.000  O
  O68      1.0000 0.18153  0.21354  0.45470  Biso   1.000  O
  O69      1.0000 0.24918  0.18359  0.51380  Biso   1.000  O
  O70      1.0000 0.05491  0.13499  0.32240  Biso   1.000  O
  O71      1.0000 0.05622  0.06832  0.32360  Biso   1.000  O
  O72      1.0000 0.38860  0.02960  0.48430  Biso   1.000  O
  C113     1.0000 0.20160  0.25889  0.61620  Biso   1.000  C
  C114     1.0000 0.17420  0.26777  0.68590  Biso   1.000  C
  C115     1.0000 0.12440  0.28836  0.68820  Biso   1.000  C
  H49      1.0000 0.10800  0.29480  0.64500  Biso   1.000  H
  C116     1.0000 0.04870  0.35760  0.69910  Biso   1.000  C
  H50      1.0000 0.08130  0.36730  0.68200  Biso   1.000  H
  C117     1.0000 0.20570  0.18365  0.47770  Biso   1.000  C
  C118     1.0000 0.18350  0.14328  0.45880  Biso   1.000  C
  C119     1.0000 0.20910  0.10870  0.48140  Biso   1.000  C
  H51      1.0000 0.23890  0.11070  0.51140  Biso   1.000  H
  C120     1.0000 0.19160  0.07150  0.46030  Biso   1.000  C
  C121     1.0000 0.14670  0.06989  0.41700  Biso   1.000  C
  H52      1.0000 0.13400  0.04510  0.40250  Biso   1.000  H
  C122     1.0000 0.12000  0.10363  0.39420  Biso   1.000  C
  C123     1.0000 0.13920  0.14057  0.41600  Biso   1.000  C
  H53      1.0000 0.12170  0.16370  0.40130  Biso   1.000  H
  C124     1.0000 0.07320  0.10144  0.34320  Biso   1.000  C
  C125     1.0000 0.22160  0.03502  0.48130  Biso   1.000  C
  C126     1.0000 0.27790  0.03363  0.48060  Biso   1.000  C
  H54      1.0000 0.29730  0.05600  0.46660  Biso   1.000  H
  Cu10     1.0000 0.70979  0.76764  0.46525  Biso   1.000  Cu
  O73      1.0000 0.67798  0.77104  0.56020  Biso   1.000  O
  O74      1.0000 0.74664  0.74208  0.61960  Biso   1.000  O
  O75      1.0000 0.54200  0.92940  0.62930  Biso   1.000  O
  O76      1.0000 0.68153  0.71354  0.45470  Biso   1.000  O
  O77      1.0000 0.74918  0.68359  0.51380  Biso   1.000  O
  O78      1.0000 0.55491  0.63499  0.32240  Biso   1.000  O
  O79      1.0000 0.55622  0.56832  0.32360  Biso   1.000  O
  O80      1.0000 0.88860  0.52960  0.48430  Biso   1.000  O
  C127     1.0000 0.70160  0.75889  0.61620  Biso   1.000  C
  C128     1.0000 0.67420  0.76777  0.68590  Biso   1.000  C
  C129     1.0000 0.62440  0.78836  0.68820  Biso   1.000  C
  H55      1.0000 0.60800  0.79480  0.64500  Biso   1.000  H
  C130     1.0000 0.54870  0.85760  0.69910  Biso   1.000  C
  H56      1.0000 0.58130  0.86730  0.68200  Biso   1.000  H
  C131     1.0000 0.70570  0.68365  0.47770  Biso   1.000  C
  C132     1.0000 0.68350  0.64328  0.45880  Biso   1.000  C
  C133     1.0000 0.70910  0.60870  0.48140  Biso   1.000  C
  H57      1.0000 0.73890  0.61070  0.51140  Biso   1.000  H
  C134     1.0000 0.69160  0.57150  0.46030  Biso   1.000  C
  C135     1.0000 0.64670  0.56989  0.41700  Biso   1.000  C
  H58      1.0000 0.63400  0.54510  0.40250  Biso   1.000  H
  C136     1.0000 0.62000  0.60363  0.39420  Biso   1.000  C
  C137     1.0000 0.63920  0.64057  0.41600  Biso   1.000  C
  H59      1.0000 0.62170  0.66370  0.40130  Biso   1.000  H
  C138     1.0000 0.57320  0.60144  0.34320  Biso   1.000  C
  C139     1.0000 0.72160  0.53502  0.48130  Biso   1.000  C
  C140     1.0000 0.77790  0.53363  0.48060  Biso   1.000  C
  H60      1.0000 0.79730  0.55600  0.46660  Biso   1.000  H
  Cu11     1.0000 0.79021  0.73236  0.96525  Biso   1.000  Cu
  O81      1.0000 0.82202  0.72896  0.06020  Biso   1.000  O
  O82      1.0000 0.75336  0.75792  0.11960  Biso   1.000  O
  O83      1.0000 0.95800  0.57060  0.12930  Biso   1.000  O
  O84      1.0000 0.81847  0.78646  0.95470  Biso   1.000  O
  O85      1.0000 0.75082  0.81641  0.01380  Biso   1.000  O
  O86      1.0000 0.94509  0.86501  0.82240  Biso   1.000  O
  O87      1.0000 0.94378  0.93168  0.82360  Biso   1.000  O
  O88      1.0000 0.61140  0.97040  0.98430  Biso   1.000  O
  C141     1.0000 0.79840  0.74111  0.11620  Biso   1.000  C
  C142     1.0000 0.82580  0.73223  0.18590  Biso   1.000  C
  C143     1.0000 0.87560  0.71164  0.18820  Biso   1.000  C
  H61      1.0000 0.89200  0.70520  0.14500  Biso   1.000  H
  C144     1.0000 0.95130  0.64240  0.19910  Biso   1.000  C
  H62      1.0000 0.91870  0.63270  0.18200  Biso   1.000  H
  C145     1.0000 0.79430  0.81635  0.97770  Biso   1.000  C
  C146     1.0000 0.81650  0.85672  0.95880  Biso   1.000  C
  C147     1.0000 0.79090  0.89130  0.98140  Biso   1.000  C
  H63      1.0000 0.76110  0.88930  0.01140  Biso   1.000  H
  C148     1.0000 0.80840  0.92850  0.96030  Biso   1.000  C
  C149     1.0000 0.85330  0.93011  0.91700  Biso   1.000  C
  H64      1.0000 0.86600  0.95490  0.90250  Biso   1.000  H
  C150     1.0000 0.88000  0.89637  0.89420  Biso   1.000  C
  C151     1.0000 0.86080  0.85943  0.91600  Biso   1.000  C
  H65      1.0000 0.87830  0.83630  0.90130  Biso   1.000  H
  C152     1.0000 0.92680  0.89856  0.84320  Biso   1.000  C
  C153     1.0000 0.77840  0.96498  0.98130  Biso   1.000  C
  C154     1.0000 0.72210  0.96637  0.98060  Biso   1.000  C
  H66      1.0000 0.70270  0.94400  0.96660  Biso   1.000  H
  Cu12     1.0000 0.29021  0.23236  0.96525  Biso   1.000  Cu
  O89      1.0000 0.32202  0.22896  0.06020  Biso   1.000  O
  O90      1.0000 0.25336  0.25792  0.11960  Biso   1.000  O
  O91      1.0000 0.45800  0.07060  0.12930  Biso   1.000  O
  O92      1.0000 0.31847  0.28646  0.95470  Biso   1.000  O
  O93      1.0000 0.25082  0.31641  0.01380  Biso   1.000  O
  O94      1.0000 0.44509  0.36501  0.82240  Biso   1.000  O
  O95      1.0000 0.44378  0.43168  0.82360  Biso   1.000  O
  O96      1.0000 0.11140  0.47040  0.98430  Biso   1.000  O
  C155     1.0000 0.29840  0.24111  0.11620  Biso   1.000  C
  C156     1.0000 0.32580  0.23223  0.18590  Biso   1.000  C
  C157     1.0000 0.37560  0.21164  0.18820  Biso   1.000  C
  H67      1.0000 0.39200  0.20520  0.14500  Biso   1.000  H
  C158     1.0000 0.45130  0.14240  0.19910  Biso   1.000  C
  H68      1.0000 0.41870  0.13270  0.18200  Biso   1.000  H
  C159     1.0000 0.29430  0.31635  0.97770  Biso   1.000  C
  C160     1.0000 0.31650  0.35672  0.95880  Biso   1.000  C
  C161     1.0000 0.29090  0.39130  0.98140  Biso   1.000  C
  H69      1.0000 0.26110  0.38930  0.01140  Biso   1.000  H
  C162     1.0000 0.30840  0.42850  0.96030  Biso   1.000  C
  C163     1.0000 0.35330  0.43011  0.91700  Biso   1.000  C
  H70      1.0000 0.36600  0.45490  0.90250  Biso   1.000  H
  C164     1.0000 0.38000  0.39637  0.89420  Biso   1.000  C
  C165     1.0000 0.36080  0.35943  0.91600  Biso   1.000  C
  H71      1.0000 0.37830  0.33630  0.90130  Biso   1.000  H
  C166     1.0000 0.42680  0.39856  0.84320  Biso   1.000  C
  C167     1.0000 0.27840  0.46498  0.98130  Biso   1.000  C
  C168     1.0000 0.22210  0.46637  0.98060  Biso   1.000  C
  H72      1.0000 0.20270  0.44400  0.96660  Biso   1.000  H
  Cu13     1.0000 0.79021  0.26764  0.03475  Biso   1.000  Cu
  O97      1.0000 0.82202  0.27104  0.93980  Biso   1.000  O
  O98      1.0000 0.75336  0.24208  0.88040  Biso   1.000  O
  O99      1.0000 0.95800  0.42940  0.87070  Biso   1.000  O
  O100     1.0000 0.81847  0.21354  0.04530  Biso   1.000  O
  O101     1.0000 0.75082  0.18359  0.98620  Biso   1.000  O
  O102     1.0000 0.94509  0.13499  0.17760  Biso   1.000  O
  O103     1.0000 0.94378  0.06832  0.17640  Biso   1.000  O
  O104     1.0000 0.61140  0.02960  0.01570  Biso   1.000  O
  C169     1.0000 0.79840  0.25889  0.88380  Biso   1.000  C
  C170     1.0000 0.82580  0.26777  0.81410  Biso   1.000  C
  C171     1.0000 0.87560  0.28836  0.81180  Biso   1.000  C
  H73      1.0000 0.89200  0.29480  0.85500  Biso   1.000  H
  C172     1.0000 0.95130  0.35760  0.80090  Biso   1.000  C
  H74      1.0000 0.91870  0.36730  0.81800  Biso   1.000  H
  C173     1.0000 0.79430  0.18365  0.02230  Biso   1.000  C
  C174     1.0000 0.81650  0.14328  0.04120  Biso   1.000  C
  C175     1.0000 0.79090  0.10870  0.01860  Biso   1.000  C
  H75      1.0000 0.76110  0.11070  0.98860  Biso   1.000  H
  C176     1.0000 0.80840  0.07150  0.03970  Biso   1.000  C
  C177     1.0000 0.85330  0.06989  0.08300  Biso   1.000  C
  H76      1.0000 0.86600  0.04510  0.09750  Biso   1.000  H
  C178     1.0000 0.88000  0.10363  0.10580  Biso   1.000  C
  C179     1.0000 0.86080  0.14057  0.08400  Biso   1.000  C
  H77      1.0000 0.87830  0.16370  0.09870  Biso   1.000  H
  C180     1.0000 0.92680  0.10144  0.15680  Biso   1.000  C
  C181     1.0000 0.77840  0.03502  0.01870  Biso   1.000  C
  C182     1.0000 0.72210  0.03363  0.01940  Biso   1.000  C
  H78      1.0000 0.70270  0.05600  0.03340  Biso   1.000  H
  Cu14     1.0000 0.29021  0.76764  0.03475  Biso   1.000  Cu
  O105     1.0000 0.32202  0.77104  0.93980  Biso   1.000  O
  O106     1.0000 0.25336  0.74208  0.88040  Biso   1.000  O
  O107     1.0000 0.45800  0.92940  0.87070  Biso   1.000  O
  O108     1.0000 0.31847  0.71354  0.04530  Biso   1.000  O
  O109     1.0000 0.25082  0.68359  0.98620  Biso   1.000  O
  O110     1.0000 0.44509  0.63499  0.17760  Biso   1.000  O
  O111     1.0000 0.44378  0.56832  0.17640  Biso   1.000  O
  O112     1.0000 0.11140  0.52960  0.01570  Biso   1.000  O
  C183     1.0000 0.29840  0.75889  0.88380  Biso   1.000  C
  C184     1.0000 0.32580  0.76777  0.81410  Biso   1.000  C
  C185     1.0000 0.37560  0.78836  0.81180  Biso   1.000  C
  H79      1.0000 0.39200  0.79480  0.85500  Biso   1.000  H
  C186     1.0000 0.45130  0.85760  0.80090  Biso   1.000  C
  H80      1.0000 0.41870  0.86730  0.81800  Biso   1.000  H
  C187     1.0000 0.29430  0.68365  0.02230  Biso   1.000  C
  C188     1.0000 0.31650  0.64328  0.04120  Biso   1.000  C
  C189     1.0000 0.29090  0.60870  0.01860  Biso   1.000  C
  H81      1.0000 0.26110  0.61070  0.98860  Biso   1.000  H
  C190     1.0000 0.30840  0.57150  0.03970  Biso   1.000  C
  C191     1.0000 0.35330  0.56989  0.08300  Biso   1.000  C
  H82      1.0000 0.36600  0.54510  0.09750  Biso   1.000  H
  C192     1.0000 0.38000  0.60363  0.10580  Biso   1.000  C
  C193     1.0000 0.36080  0.64057  0.08400  Biso   1.000  C
  H83      1.0000 0.37830  0.66370  0.09870  Biso   1.000  H
  C194     1.0000 0.42680  0.60144  0.15680  Biso   1.000  C
  C195     1.0000 0.27840  0.53502  0.01870  Biso   1.000  C
  C196     1.0000 0.22210  0.53363  0.01940  Biso   1.000  C
  H84      1.0000 0.20270  0.55600  0.03340  Biso   1.000  H
  Cu15     1.0000 0.20979  0.73236  0.53475  Biso   1.000  Cu
  O113     1.0000 0.17798  0.72896  0.43980  Biso   1.000  O
  O114     1.0000 0.24664  0.75792  0.38040  Biso   1.000  O
  O115     1.0000 0.04200  0.57060  0.37070  Biso   1.000  O
  O116     1.0000 0.18153  0.78646  0.54530  Biso   1.000  O
  O117     1.0000 0.24918  0.81641  0.48620  Biso   1.000  O
  O118     1.0000 0.05491  0.86501  0.67760  Biso   1.000  O
  O119     1.0000 0.05622  0.93168  0.67640  Biso   1.000  O
  O120     1.0000 0.38860  0.97040  0.51570  Biso   1.000  O
  C197     1.0000 0.20160  0.74111  0.38380  Biso   1.000  C
  C198     1.0000 0.17420  0.73223  0.31410  Biso   1.000  C
  C199     1.0000 0.12440  0.71164  0.31180  Biso   1.000  C
  H85      1.0000 0.10800  0.70520  0.35500  Biso   1.000  H
  C200     1.0000 0.04870  0.64240  0.30090  Biso   1.000  C
  H86      1.0000 0.08130  0.63270  0.31800  Biso   1.000  H
  C201     1.0000 0.20570  0.81635  0.52230  Biso   1.000  C
  C202     1.0000 0.18350  0.85672  0.54120  Biso   1.000  C
  C203     1.0000 0.20910  0.89130  0.51860  Biso   1.000  C
  H87      1.0000 0.23890  0.88930  0.48860  Biso   1.000  H
  C204     1.0000 0.19160  0.92850  0.53970  Biso   1.000  C
  C205     1.0000 0.14670  0.93011  0.58300  Biso   1.000  C
  H88      1.0000 0.13400  0.95490  0.59750  Biso   1.000  H
  C206     1.0000 0.12000  0.89637  0.60580  Biso   1.000  C
  C207     1.0000 0.13920  0.85943  0.58400  Biso   1.000  C
  H89      1.0000 0.12170  0.83630  0.59870  Biso   1.000  H
  C208     1.0000 0.07320  0.89856  0.65680  Biso   1.000  C
  C209     1.0000 0.22160  0.96498  0.51870  Biso   1.000  C
  C210     1.0000 0.27790  0.96637  0.51940  Biso   1.000  C
  H90      1.0000 0.29730  0.94400  0.53340  Biso   1.000  H
  Cu16     1.0000 0.70979  0.23236  0.53475  Biso   1.000  Cu
  O121     1.0000 0.67798  0.22896  0.43980  Biso   1.000  O
  O122     1.0000 0.74664  0.25792  0.38040  Biso   1.000  O
  O123     1.0000 0.54200  0.07060  0.37070  Biso   1.000  O
  O124     1.0000 0.68153  0.28646  0.54530  Biso   1.000  O
  O125     1.0000 0.74918  0.31641  0.48620  Biso   1.000  O
  O126     1.0000 0.55491  0.36501  0.67760  Biso   1.000  O
  O127     1.0000 0.55622  0.43168  0.67640  Biso   1.000  O
  O128     1.0000 0.88860  0.47040  0.51570  Biso   1.000  O
  C211     1.0000 0.70160  0.24111  0.38380  Biso   1.000  C
  C212     1.0000 0.67420  0.23223  0.31410  Biso   1.000  C
  C213     1.0000 0.62440  0.21164  0.31180  Biso   1.000  C
  H91      1.0000 0.60800  0.20520  0.35500  Biso   1.000  H
  C214     1.0000 0.54870  0.14240  0.30090  Biso   1.000  C
  H92      1.0000 0.58130  0.13270  0.31800  Biso   1.000  H
  C215     1.0000 0.70570  0.31635  0.52230  Biso   1.000  C
  C216     1.0000 0.68350  0.35672  0.54120  Biso   1.000  C
  C217     1.0000 0.70910  0.39130  0.51860  Biso   1.000  C
  H93      1.0000 0.73890  0.38930  0.48860  Biso   1.000  H
  C218     1.0000 0.69160  0.42850  0.53970  Biso   1.000  C
  C219     1.0000 0.64670  0.43011  0.58300  Biso   1.000  C
  H94      1.0000 0.63400  0.45490  0.59750  Biso   1.000  H
  C220     1.0000 0.62000  0.39637  0.60580  Biso   1.000  C
  C221     1.0000 0.63920  0.35943  0.58400  Biso   1.000  C
  H95      1.0000 0.62170  0.33630  0.59870  Biso   1.000  H
  C222     1.0000 0.57320  0.39856  0.65680  Biso   1.000  C
  C223     1.0000 0.72160  0.46498  0.51870  Biso   1.000  C
  C224     1.0000 0.77790  0.46637  0.51940  Biso   1.000  C
  H96      1.0000 0.79730  0.44400  0.53340  Biso   1.000  H
  Cu17     1.0000 0.00000  0.85895  0.75000  Biso   1.000  Cu
  Cu18     1.0000 0.00000  0.93796  0.75000  Biso   1.000  Cu
  Cu19     1.0000 0.50000  0.35895  0.75000  Biso   1.000  Cu
  Cu20     1.0000 0.50000  0.43796  0.75000  Biso   1.000  Cu
  Cu21     1.0000 0.00000  0.14105  0.25000  Biso   1.000  Cu
  Cu22     1.0000 0.00000  0.06204  0.25000  Biso   1.000  Cu
  Cu23     1.0000 0.50000  0.64105  0.25000  Biso   1.000  Cu
  Cu24     1.0000 0.50000  0.56204  0.25000  Biso   1.000  Cu
  C225     1.0000 0.80240  0.74170  0.25000  Biso   1.000  C
  H97      1.0000 0.76950  0.75500  0.25000  Biso   1.000  H
  C226     1.0000 0.90100  0.70070  0.25000  Biso   1.000  C
  C227     1.0000 0.95150  0.67910  0.25000  Biso   1.000  C
  C228     1.0000 0.30240  0.24170  0.25000  Biso   1.000  C
  H98      1.0000 0.26950  0.25500  0.25000  Biso   1.000  H
  C229     1.0000 0.40100  0.20070  0.25000  Biso   1.000  C
  C230     1.0000 0.45150  0.17910  0.25000  Biso   1.000  C
  C231     1.0000 0.19760  0.25830  0.75000  Biso   1.000  C
  H99      1.0000 0.23050  0.24500  0.75000  Biso   1.000  H
  C232     1.0000 0.09900  0.29930  0.75000  Biso   1.000  C
  C233     1.0000 0.04850  0.32090  0.75000  Biso   1.000  C
  C234     1.0000 0.69760  0.75830  0.75000  Biso   1.000  C
  H100     1.0000 0.73050  0.74500  0.75000  Biso   1.000  H
  C235     1.0000 0.59900  0.79930  0.75000  Biso   1.000  C
  C236     1.0000 0.54850  0.82090  0.75000  Biso   1.000  C
  C237     1.0000 0.19760  0.74170  0.25000  Biso   1.000  C
  H101     1.0000 0.23050  0.75500  0.25000  Biso   1.000  H
  C238     1.0000 0.09900  0.70070  0.25000  Biso   1.000  C
  C239     1.0000 0.04850  0.67910  0.25000  Biso   1.000  C
  C240     1.0000 0.69760  0.24170  0.25000  Biso   1.000  C
  H102     1.0000 0.73050  0.25500  0.25000  Biso   1.000  H
  C241     1.0000 0.59900  0.20070  0.25000  Biso   1.000  C
  C242     1.0000 0.54850  0.17910  0.25000  Biso   1.000  C
  C243     1.0000 0.80240  0.25830  0.75000  Biso   1.000  C
  H103     1.0000 0.76950  0.24500  0.75000  Biso   1.000  H
  C244     1.0000 0.90100  0.29930  0.75000  Biso   1.000  C
  C245     1.0000 0.95150  0.32090  0.75000  Biso   1.000  C
  C246     1.0000 0.30240  0.75830  0.75000  Biso   1.000  C
  H104     1.0000 0.26950  0.74500  0.75000  Biso   1.000  H
  C247     1.0000 0.40100  0.79930  0.75000  Biso   1.000  C
  C248     1.0000 0.45150  0.82090  0.75000  Biso   1.000  C
  C249     1.0000 0.00000  0.69580  0.25000  Biso   1.000  C
  H105     1.0000 0.00000  0.72350  0.25000  Biso   1.000  H
  C250     1.0000 0.50000  0.19580  0.25000  Biso   1.000  C
  H106     1.0000 0.50000  0.22350  0.25000  Biso   1.000  H
  C251     1.0000 0.00000  0.30420  0.75000  Biso   1.000  C
  H107     1.0000 0.00000  0.27650  0.75000  Biso   1.000  H
  C252     1.0000 0.50000  0.80420  0.75000  Biso   1.000  C
  H108     1.0000 0.50000  0.77650  0.75000  Biso   1.000  H
  C253     1.0000 0.00000  0.62350  0.32200  Biso   1.000  C
  C254     1.0000 0.00000  0.58650  0.36600  Biso   1.000  C
  C255     1.0000 0.50000  0.12350  0.32200  Biso   1.000  C
  C256     1.0000 0.50000  0.08650  0.36600  Biso   1.000  C
  C257     1.0000 0.00000  0.37650  0.82200  Biso   1.000  C
  C258     1.0000 0.00000  0.41350  0.86600  Biso   1.000  C
  C259     1.0000 0.50000  0.87650  0.82200  Biso   1.000  C
  C260     1.0000 0.50000  0.91350  0.86600  Biso   1.000  C
  C261     1.0000 0.00000  0.62350  0.17800  Biso   1.000  C
  C262     1.0000 0.00000  0.58650  0.13400  Biso   1.000  C
  C263     1.0000 0.50000  0.12350  0.17800  Biso   1.000  C
  C264     1.0000 0.50000  0.08650  0.13400  Biso   1.000  C
  C265     1.0000 0.00000  0.37650  0.67800  Biso   1.000  C
  C266     1.0000 0.00000  0.41350  0.63400  Biso   1.000  C
  C267     1.0000 0.50000  0.87650  0.67800  Biso   1.000  C
  C268     1.0000 0.50000  0.91350  0.63400  Biso   1.000  C
  C269     1.0000 0.80550  0.00000  0.50000  Biso   1.000  C
  H109     1.0000 0.84300  0.00000  0.50000  Biso   1.000  H
  C270     1.0000 0.69540  0.00000  0.50000  Biso   1.000  C
  C271     1.0000 0.63480  0.00000  0.50000  Biso   1.000  C
  C272     1.0000 0.30550  0.50000  0.50000  Biso   1.000  C
  H110     1.0000 0.34300  0.50000  0.50000  Biso   1.000  H
  C273     1.0000 0.19540  0.50000  0.50000  Biso   1.000  C
  C274     1.0000 0.13480  0.50000  0.50000  Biso   1.000  C
  C275     1.0000 0.19450  0.00000  0.00000  Biso   1.000  C
  H111     1.0000 0.15700  0.00000  0.00000  Biso   1.000  H
  C276     1.0000 0.30460  0.00000  0.00000  Biso   1.000  C
  C277     1.0000 0.36520  0.00000  0.00000  Biso   1.000  C
  C278     1.0000 0.69450  0.50000  0.00000  Biso   1.000  C
  H112     1.0000 0.65700  0.50000  0.00000  Biso   1.000  H
  C279     1.0000 0.80460  0.50000  0.00000  Biso   1.000  C
  C280     1.0000 0.86520  0.50000  0.00000  Biso   1.000  C
  C281     1.0000 0.19450  0.00000  0.50000  Biso   1.000  C
  H113     1.0000 0.15700  0.00000  0.50000  Biso   1.000  H
  C282     1.0000 0.30460  0.00000  0.50000  Biso   1.000  C
  C283     1.0000 0.36520  0.00000  0.50000  Biso   1.000  C
  C284     1.0000 0.69450  0.50000  0.50000  Biso   1.000  C
  H114     1.0000 0.65700  0.50000  0.50000  Biso   1.000  H
  C285     1.0000 0.80460  0.50000  0.50000  Biso   1.000  C
  C286     1.0000 0.86520  0.50000  0.50000  Biso   1.000  C
  C287     1.0000 0.80550  0.00000  0.00000  Biso   1.000  C
  H115     1.0000 0.84300  0.00000  0.00000  Biso   1.000  H
  C288     1.0000 0.69540  0.00000  0.00000  Biso   1.000  C
  C289     1.0000 0.63480  0.00000  0.00000  Biso   1.000  C
  C290     1.0000 0.30550  0.50000  0.00000  Biso   1.000  C
  H116     1.0000 0.34300  0.50000  0.00000  Biso   1.000  H
  C291     1.0000 0.19540  0.50000  0.00000  Biso   1.000  C
  C292     1.0000 0.13480  0.50000  0.00000  Biso   1.000  C
