data_VOGTIV_clean_h
_audit_creation_date              2014-07-02
_audit_creation_method            'Materials Studio'
_symmetry_space_group_name_H-M    'P1'
_symmetry_Int_Tables_number       1
_symmetry_cell_setting            triclinic
loop_
_symmetry_equiv_pos_as_xyz
  x,y,z
_cell_length_a                    6.7588
_cell_length_b                    15.1941
_cell_length_c                    15.1941
_cell_angle_alpha                 62.1589
_cell_angle_beta                  81.4729
_cell_angle_gamma                 98.5271
loop_
_atom_site_label
_atom_site_type_symbol
_atom_site_fract_x
_atom_site_fract_y
_atom_site_fract_z
_atom_site_U_iso_or_equiv
_atom_site_adp_type
_atom_site_occupancy
Mg1    Mg    0.38998   0.42024   0.31416   0.01267  Uiso   1.00
Mg2    Mg    0.70414   0.31416   0.26560   0.01267  Uiso   1.00
Mg3    Mg    0.96974   0.26560   0.42024   0.01267  Uiso   1.00
Mg4    Mg    0.61002   0.57976   0.68584   0.01267  Uiso   1.00
Mg5    Mg    0.29586   0.68584   0.73440   0.01267  Uiso   1.00
Mg6    Mg    0.03026   0.73440   0.57976   0.01267  Uiso   1.00
C1     C     0.76525   0.43803   0.38268   0.01267  Uiso   1.00
C2     C     0.89068   0.46229   0.44885   0.01267  Uiso   1.00
C3     C     0.80888   0.53576   0.47642   0.01267  Uiso   1.00
C4     C     0.06425   0.43793   0.46778   0.01267  Uiso   1.00
C5     C     0.14793   0.38268   0.17929   0.01267  Uiso   1.00
C6     C     0.33953   0.44885   0.08886   0.01267  Uiso   1.00
C7     C     0.28530   0.47642   0.98782   0.01267  Uiso   1.00
C8     C     0.53203   0.46778   0.09429   0.01267  Uiso   1.00
C9     C     0.32722   0.17929   0.43803   0.01267  Uiso   1.00
C10    C     0.42839   0.08886   0.46229   0.01267  Uiso   1.00
C11    C     0.27312   0.98782   0.53576   0.01267  Uiso   1.00
C12    C     0.62632   0.09429   0.43793   0.01267  Uiso   1.00
C13    C     0.23475   0.56197   0.61732   0.01267  Uiso   1.00
C14    C     0.10932   0.53771   0.55115   0.01267  Uiso   1.00
C15    C     0.19112   0.46424   0.52358   0.01267  Uiso   1.00
C16    C     0.93575   0.56207   0.53222   0.01267  Uiso   1.00
C17    C     0.85207   0.61732   0.82071   0.01267  Uiso   1.00
C18    C     0.66047   0.55115   0.91114   0.01267  Uiso   1.00
C19    C     0.71470   0.52358   0.01218   0.01267  Uiso   1.00
C20    C     0.46797   0.53222   0.90571   0.01267  Uiso   1.00
C21    C     0.67278   0.82071   0.56197   0.01267  Uiso   1.00
C22    C     0.57161   0.91114   0.53771   0.01267  Uiso   1.00
C23    C     0.72688   0.01218   0.46424   0.01267  Uiso   1.00
C24    C     0.37368   0.90571   0.56207   0.01267  Uiso   1.00
O1     O     0.60283   0.47502   0.36873   0.01267  Uiso   1.00
O2     O     0.82030   0.38060   0.35240   0.01267  Uiso   1.00
O3     O     0.13501   0.37149   0.43866   0.01267  Uiso   1.00
O4     O     0.97156   0.36873   0.15625   0.01267  Uiso   1.00
O5     O     0.17270   0.35240   0.26700   0.01267  Uiso   1.00
O6     O     0.57367   0.43866   0.18985   0.01267  Uiso   1.00
O7     O     0.12781   0.15625   0.47502   0.01267  Uiso   1.00
O8     O     0.43970   0.26700   0.38060   0.01267  Uiso   1.00
O9     O     0.76352   0.18985   0.37149   0.01267  Uiso   1.00
O10    O     0.39717   0.52498   0.63127   0.01267  Uiso   1.00
O11    O     0.17970   0.61940   0.64760   0.01267  Uiso   1.00
O12    O     0.86499   0.62851   0.56134   0.01267  Uiso   1.00
O13    O     0.02844   0.63127   0.84375   0.01267  Uiso   1.00
O14    O     0.82730   0.64760   0.73300   0.01267  Uiso   1.00
O15    O     0.42633   0.56134   0.81015   0.01267  Uiso   1.00
O16    O     0.87219   0.84375   0.52498   0.01267  Uiso   1.00
O17    O     0.56030   0.73300   0.61940   0.01267  Uiso   1.00
O18    O     0.23648   0.81015   0.62851   0.01267  Uiso   1.00
H1     H     0.66603   0.56129   0.45235   0.01267  Uiso   1.00
H2     H     0.11838   0.45235   0.98636   0.01267  Uiso   1.00
H3     H     0.10475   0.98636   0.56129   0.01267  Uiso   1.00
H4     H     0.32957   0.43019   0.54037   0.01267  Uiso   1.00
H5     H     0.86994   0.54037   0.02945   0.01267  Uiso   1.00
H6     H     0.89525   0.01364   0.43871   0.01267  Uiso   1.00
