data_image0
_cell_length_a       12.157
_cell_length_b       14.202
_cell_length_c       13.065
_cell_angle_alpha    90
_cell_angle_beta     91.848
_cell_angle_gamma    90

_symmetry_space_group_name_H-M    "P 1"
_symmetry_int_tables_number       1

loop_
  _symmetry_equiv_pos_as_xyz
  'x, y, z'

loop_
  _atom_site_label
  _atom_site_occupancy
  _atom_site_fract_x
  _atom_site_fract_y
  _atom_site_fract_z
  _atom_site_thermal_displace_type
  _atom_site_B_iso_or_equiv
  _atom_site_type_symbol
  Ga1      1.0000 0.11264  0.77351  0.38530  Biso   1.000  Ga
  Ga2      1.0000 0.85502  0.87895  0.76319  Biso   1.000  Ga
  Ga3      1.0000 0.96265  0.73407  0.15808  Biso   1.000  Ga
  Ga4      1.0000 0.36466  0.86522  0.20668  Biso   1.000  Ga
  P1       1.0000 0.10976  0.57910  0.27150  Biso   1.000  P
  P2       1.0000 0.12192  0.90733  0.19360  Biso   1.000  P
  P3       1.0000 0.37279  0.78009  0.42586  Biso   1.000  P
  P4       1.0000 0.01615  0.79097  0.61160  Biso   1.000  P
  F1       1.0000 0.97310  0.76320  0.30600  Biso   1.000  F
  F2       1.0000 0.78630  0.75930  0.72300  Biso   1.000  F
  O1       1.0000 0.13690  0.88110  0.30830  Biso   1.000  O
  O2       1.0000 0.23380  0.90200  0.14260  Biso   1.000  O
  O3       1.0000 0.94410  0.86930  0.65130  Biso   1.000  O
  O4       1.0000 0.03130  0.62110  0.18870  Biso   1.000  O
  O5       1.0000 0.81840  0.76090  0.16890  Biso   1.000  O
  H1       1.0000 0.78430  0.71220  0.17940  Biso   1.000  H
  O6       1.0000 0.06500  0.48450  0.30610  Biso   1.000  O
  O7       1.0000 0.12550  0.64450  0.36440  Biso   1.000  O
  O8       1.0000 0.25370  0.78080  0.45440  Biso   1.000  O
  O9       1.0000 0.22230  0.56330  0.22350  Biso   1.000  O
  O10      1.0000 0.04140  0.84350  0.13480  Biso   1.000  O
  O11      1.0000 0.39680  0.85770  0.34610  Biso   1.000  O
  O12      1.0000 0.44880  0.80090  0.51810  Biso   1.000  O
  O13      1.0000 0.03410  0.80740  0.49870  Biso   1.000  O
  O14      1.0000 0.40610  0.68230  0.38200  Biso   1.000  O
  O15      1.0000 0.07730  0.00800  0.18400  Biso   1.000  O
  O16      1.0000 0.96850  0.69340  0.62700  Biso   1.000  O
  O17      1.0000 0.12540  0.80190  0.67650  Biso   1.000  O
  H2       1.0000 0.16990  0.76240  0.65850  Biso   1.000  H
  Ga5      1.0000 0.38736  0.27351  0.11470  Biso   1.000  Ga
  Ga6      1.0000 0.64498  0.37895  0.73681  Biso   1.000  Ga
  Ga7      1.0000 0.53735  0.23407  0.34192  Biso   1.000  Ga
  Ga8      1.0000 0.13534  0.36522  0.29332  Biso   1.000  Ga
  P5       1.0000 0.39024  0.07910  0.22850  Biso   1.000  P
  P6       1.0000 0.37808  0.40733  0.30640  Biso   1.000  P
  P7       1.0000 0.12721  0.28009  0.07414  Biso   1.000  P
  P8       1.0000 0.48385  0.29097  0.88840  Biso   1.000  P
  F3       1.0000 0.52690  0.26320  0.19400  Biso   1.000  F
  F4       1.0000 0.71370  0.25930  0.77700  Biso   1.000  F
  O18      1.0000 0.36310  0.38110  0.19170  Biso   1.000  O
  O19      1.0000 0.26620  0.40200  0.35740  Biso   1.000  O
  O20      1.0000 0.55590  0.36930  0.84870  Biso   1.000  O
  O21      1.0000 0.46870  0.12110  0.31130  Biso   1.000  O
  O22      1.0000 0.68160  0.26090  0.33110  Biso   1.000  O
  H3       1.0000 0.71570  0.21220  0.32060  Biso   1.000  H
  O23      1.0000 0.43500  0.98450  0.19390  Biso   1.000  O
  O24      1.0000 0.37450  0.14450  0.13560  Biso   1.000  O
  O25      1.0000 0.24630  0.28080  0.04560  Biso   1.000  O
  O26      1.0000 0.27770  0.06330  0.27650  Biso   1.000  O
  O27      1.0000 0.45860  0.34350  0.36520  Biso   1.000  O
  O28      1.0000 0.10320  0.35770  0.15390  Biso   1.000  O
  O29      1.0000 0.05120  0.30090  0.98190  Biso   1.000  O
  O30      1.0000 0.46590  0.30740  0.00130  Biso   1.000  O
  O31      1.0000 0.09390  0.18230  0.11800  Biso   1.000  O
  O32      1.0000 0.42270  0.50800  0.31600  Biso   1.000  O
  O33      1.0000 0.53150  0.19340  0.87300  Biso   1.000  O
  O34      1.0000 0.37460  0.30190  0.82350  Biso   1.000  O
  H4       1.0000 0.33010  0.26240  0.84150  Biso   1.000  H
  Ga9      1.0000 0.88736  0.22649  0.61470  Biso   1.000  Ga
  Ga10     1.0000 0.14498  0.12105  0.23681  Biso   1.000  Ga
  Ga11     1.0000 0.03735  0.26593  0.84192  Biso   1.000  Ga
  Ga12     1.0000 0.63534  0.13478  0.79332  Biso   1.000  Ga
  P9       1.0000 0.89024  0.42090  0.72850  Biso   1.000  P
  P10      1.0000 0.87808  0.09267  0.80640  Biso   1.000  P
  P11      1.0000 0.62721  0.21991  0.57414  Biso   1.000  P
  P12      1.0000 0.98385  0.20903  0.38840  Biso   1.000  P
  F5       1.0000 0.02690  0.23680  0.69400  Biso   1.000  F
  F6       1.0000 0.21370  0.24070  0.27700  Biso   1.000  F
  O35      1.0000 0.86310  0.11890  0.69170  Biso   1.000  O
  O36      1.0000 0.76620  0.09800  0.85740  Biso   1.000  O
  O37      1.0000 0.05590  0.13070  0.34870  Biso   1.000  O
  O38      1.0000 0.96870  0.37890  0.81130  Biso   1.000  O
  O39      1.0000 0.18160  0.23910  0.83110  Biso   1.000  O
  H5       1.0000 0.21570  0.28780  0.82060  Biso   1.000  H
  O40      1.0000 0.93500  0.51550  0.69390  Biso   1.000  O
  O41      1.0000 0.87450  0.35550  0.63560  Biso   1.000  O
  O42      1.0000 0.74630  0.21920  0.54560  Biso   1.000  O
  O43      1.0000 0.77770  0.43670  0.77650  Biso   1.000  O
  O44      1.0000 0.95860  0.15650  0.86520  Biso   1.000  O
  O45      1.0000 0.60320  0.14230  0.65390  Biso   1.000  O
  O46      1.0000 0.55120  0.19910  0.48190  Biso   1.000  O
  O47      1.0000 0.96590  0.19260  0.50130  Biso   1.000  O
  O48      1.0000 0.59390  0.31770  0.61800  Biso   1.000  O
  O49      1.0000 0.92270  0.99200  0.81600  Biso   1.000  O
  O50      1.0000 0.03150  0.30660  0.37300  Biso   1.000  O
  O51      1.0000 0.87460  0.19810  0.32350  Biso   1.000  O
  H6       1.0000 0.83010  0.23760  0.34150  Biso   1.000  H
  Ga13     1.0000 0.61264  0.72649  0.88530  Biso   1.000  Ga
  Ga14     1.0000 0.35502  0.62105  0.26319  Biso   1.000  Ga
  Ga15     1.0000 0.46265  0.76593  0.65808  Biso   1.000  Ga
  Ga16     1.0000 0.86466  0.63478  0.70668  Biso   1.000  Ga
  P13      1.0000 0.60976  0.92090  0.77150  Biso   1.000  P
  P14      1.0000 0.62192  0.59267  0.69360  Biso   1.000  P
  P15      1.0000 0.87279  0.71991  0.92586  Biso   1.000  P
  P16      1.0000 0.51615  0.70903  0.11160  Biso   1.000  P
  F7       1.0000 0.47310  0.73680  0.80600  Biso   1.000  F
  F8       1.0000 0.28630  0.74070  0.22300  Biso   1.000  F
  O52      1.0000 0.63690  0.61890  0.80830  Biso   1.000  O
  O53      1.0000 0.73380  0.59800  0.64260  Biso   1.000  O
  O54      1.0000 0.44410  0.63070  0.15130  Biso   1.000  O
  O55      1.0000 0.53130  0.87890  0.68870  Biso   1.000  O
  O56      1.0000 0.31840  0.73910  0.66890  Biso   1.000  O
  H7       1.0000 0.28430  0.78780  0.67940  Biso   1.000  H
  O57      1.0000 0.56500  0.01550  0.80610  Biso   1.000  O
  O58      1.0000 0.62550  0.85550  0.86440  Biso   1.000  O
  O59      1.0000 0.75370  0.71920  0.95440  Biso   1.000  O
  O60      1.0000 0.72230  0.93670  0.72350  Biso   1.000  O
  O61      1.0000 0.54140  0.65650  0.63480  Biso   1.000  O
  O62      1.0000 0.89680  0.64230  0.84610  Biso   1.000  O
  O63      1.0000 0.94880  0.69910  0.01810  Biso   1.000  O
  O64      1.0000 0.53410  0.69260  0.99870  Biso   1.000  O
  O65      1.0000 0.90610  0.81770  0.88200  Biso   1.000  O
  O66      1.0000 0.57730  0.49200  0.68400  Biso   1.000  O
  O67      1.0000 0.46850  0.80660  0.12700  Biso   1.000  O
  O68      1.0000 0.62540  0.69810  0.17650  Biso   1.000  O
  H8       1.0000 0.66990  0.73760  0.15850  Biso   1.000  H
