data_image0
_cell_length_a       9.265
_cell_length_b       9.397
_cell_length_c       9.238
_cell_angle_alpha    94.36
_cell_angle_beta     90.64
_cell_angle_gamma    103.67

_symmetry_space_group_name_H-M    "P 1"
_symmetry_int_tables_number       1

loop_
  _symmetry_equiv_pos_as_xyz
  'x, y, z'

loop_
  _atom_site_label
  _atom_site_occupancy
  _atom_site_fract_x
  _atom_site_fract_y
  _atom_site_fract_z
  _atom_site_thermal_displace_type
  _atom_site_B_iso_or_equiv
  _atom_site_type_symbol
  Ga1      1.0000 0.13908  0.08599  0.43565  Biso   1.000  Ga
  Ga2      1.0000 0.60890  0.34138  0.39230  Biso   1.000  Ga
  Ga3      1.0000 0.62500  0.92141  0.15717  Biso   1.000  Ga
  P1       1.0000 0.37722  0.09021  0.18526  Biso   1.000  P
  P2       1.0000 0.37956  0.32951  0.62664  Biso   1.000  P
  P3       1.0000 0.16776  0.85014  0.64341  Biso   1.000  P
  F1       1.0000 0.97990  0.90940  0.38750  Biso   1.000  F
  O1       1.0000 0.43940  0.95310  0.17760  Biso   1.000  O
  O2       1.0000 0.27120  0.26670  0.50230  Biso   1.000  O
  O3       1.0000 0.53960  0.34620  0.57470  Biso   1.000  O
  O4       1.0000 0.23140  0.91160  0.79750  Biso   1.000  O
  O5       1.0000 0.21090  0.70250  0.60850  Biso   1.000  O
  O6       1.0000 0.23670  0.95970  0.53610  Biso   1.000  O
  O7       1.0000 0.22760  0.05970  0.25510  Biso   1.000  O
  O8       1.0000 0.35730  0.24050  0.75870  Biso   1.000  O
  O9       1.0000 0.99840  0.81180  0.64670  Biso   1.000  O
  O10      1.0000 0.48770  0.21850  0.26220  Biso   1.000  O
  O11      1.0000 0.35890  0.48120  0.68190  Biso   1.000  O
  O12      1.0000 0.35430  0.13290  0.03200  Biso   1.000  O
  Ga4      1.0000 0.86092  0.91401  0.56435  Biso   1.000  Ga
  Ga5      1.0000 0.39110  0.65862  0.60770  Biso   1.000  Ga
  Ga6      1.0000 0.37500  0.07859  0.84283  Biso   1.000  Ga
  P4       1.0000 0.62278  0.90979  0.81474  Biso   1.000  P
  P5       1.0000 0.62044  0.67049  0.37336  Biso   1.000  P
  P6       1.0000 0.83224  0.14986  0.35659  Biso   1.000  P
  F2       1.0000 0.02010  0.09060  0.61250  Biso   1.000  F
  O13      1.0000 0.56060  0.04690  0.82240  Biso   1.000  O
  O14      1.0000 0.72880  0.73330  0.49770  Biso   1.000  O
  O15      1.0000 0.46040  0.65380  0.42530  Biso   1.000  O
  O16      1.0000 0.76860  0.08840  0.20250  Biso   1.000  O
  O17      1.0000 0.78910  0.29750  0.39150  Biso   1.000  O
  O18      1.0000 0.76330  0.04030  0.46390  Biso   1.000  O
  O19      1.0000 0.77240  0.94030  0.74490  Biso   1.000  O
  O20      1.0000 0.64270  0.75950  0.24130  Biso   1.000  O
  O21      1.0000 0.00160  0.18820  0.35330  Biso   1.000  O
  O22      1.0000 0.51230  0.78150  0.73780  Biso   1.000  O
  O23      1.0000 0.64110  0.51880  0.31810  Biso   1.000  O
  O24      1.0000 0.64570  0.86710  0.96800  Biso   1.000  O
