data_image0
_cell_length_a       8.5831
_cell_length_b       17.677
_cell_length_c       10.4353
_cell_angle_alpha    90
_cell_angle_beta     123.887
_cell_angle_gamma    90

_symmetry_space_group_name_H-M    "P 1"
_symmetry_int_tables_number       1

loop_
  _symmetry_equiv_pos_as_xyz
  'x, y, z'

loop_
  _atom_site_label
  _atom_site_occupancy
  _atom_site_fract_x
  _atom_site_fract_y
  _atom_site_fract_z
  _atom_site_thermal_displace_type
  _atom_site_B_iso_or_equiv
  _atom_site_type_symbol
  P1       1.0000 0.66527  0.70675  0.47353  Biso   1.000  P
  P2       1.0000 0.22987  0.83052  0.49618  Biso   1.000  P
  P3       1.0000 0.00952  0.57257  0.35790  Biso   1.000  P
  Al1      1.0000 0.21090  0.70392  0.28720  Biso   1.000  Al
  Al2      1.0000 0.02270  0.60927  0.66156  Biso   1.000  Al
  Al3      1.0000 0.66660  0.67668  0.19142  Biso   1.000  Al
  O1       1.0000 0.13330  0.79404  0.17960  Biso   1.000  O
  H1       1.0000 0.14780  0.78530  0.10320  Biso   1.000  H
  O2       1.0000 0.19300  0.74898  0.43880  Biso   1.000  O
  O3       1.0000 0.08380  0.58705  0.52600  Biso   1.000  O
  O4       1.0000 0.43650  0.85060  0.57010  Biso   1.000  O
  O5       1.0000 0.46150  0.69074  0.40700  Biso   1.000  O
  O6       1.0000 0.78020  0.63652  0.55580  Biso   1.000  O
  O7       1.0000 0.03080  0.49072  0.32880  Biso   1.000  O
  O8       1.0000 0.80190  0.59525  0.25810  Biso   1.000  O
  O9       1.0000 0.17990  0.84138  0.61310  Biso   1.000  O
  O10      1.0000 0.69260  0.72865  0.34490  Biso   1.000  O
  O11      1.0000 0.11920  0.61793  0.31020  Biso   1.000  O
  O12      1.0000 0.11420  0.88606  0.36460  Biso   1.000  O
  O13      1.0000 0.73560  0.77215  0.58900  Biso   1.000  O
  P4       1.0000 0.33473  0.20675  0.02647  Biso   1.000  P
  P5       1.0000 0.77013  0.33052  0.00382  Biso   1.000  P
  P6       1.0000 0.99048  0.07257  0.14210  Biso   1.000  P
  Al4      1.0000 0.78910  0.20392  0.21280  Biso   1.000  Al
  Al5      1.0000 0.97730  0.10927  0.83844  Biso   1.000  Al
  Al6      1.0000 0.33340  0.17668  0.30858  Biso   1.000  Al
  O14      1.0000 0.86670  0.29404  0.32040  Biso   1.000  O
  H2       1.0000 0.85220  0.28530  0.39680  Biso   1.000  H
  O15      1.0000 0.80700  0.24898  0.06120  Biso   1.000  O
  O16      1.0000 0.91620  0.08705  0.97400  Biso   1.000  O
  O17      1.0000 0.56350  0.35060  0.92990  Biso   1.000  O
  O18      1.0000 0.53850  0.19074  0.09300  Biso   1.000  O
  O19      1.0000 0.21980  0.13652  0.94420  Biso   1.000  O
  O20      1.0000 0.96920  0.99072  0.17120  Biso   1.000  O
  O21      1.0000 0.19810  0.09525  0.24190  Biso   1.000  O
  O22      1.0000 0.82010  0.34138  0.88690  Biso   1.000  O
  O23      1.0000 0.30740  0.22865  0.15510  Biso   1.000  O
  O24      1.0000 0.88080  0.11793  0.18980  Biso   1.000  O
  O25      1.0000 0.88580  0.38606  0.13540  Biso   1.000  O
  O26      1.0000 0.26440  0.27215  0.91100  Biso   1.000  O
  P7       1.0000 0.33473  0.29325  0.52647  Biso   1.000  P
  P8       1.0000 0.77013  0.16948  0.50382  Biso   1.000  P
  P9       1.0000 0.99048  0.42743  0.64210  Biso   1.000  P
  Al7      1.0000 0.78910  0.29608  0.71280  Biso   1.000  Al
  Al8      1.0000 0.97730  0.39073  0.33844  Biso   1.000  Al
  Al9      1.0000 0.33340  0.32332  0.80858  Biso   1.000  Al
  O27      1.0000 0.86670  0.20596  0.82040  Biso   1.000  O
  H3       1.0000 0.85220  0.21470  0.89680  Biso   1.000  H
  O28      1.0000 0.80700  0.25102  0.56120  Biso   1.000  O
  O29      1.0000 0.91620  0.41295  0.47400  Biso   1.000  O
  O30      1.0000 0.56350  0.14940  0.42990  Biso   1.000  O
  O31      1.0000 0.53850  0.30926  0.59300  Biso   1.000  O
  O32      1.0000 0.21980  0.36348  0.44420  Biso   1.000  O
  O33      1.0000 0.96920  0.50928  0.67120  Biso   1.000  O
  O34      1.0000 0.19810  0.40475  0.74190  Biso   1.000  O
  O35      1.0000 0.82010  0.15862  0.38690  Biso   1.000  O
  O36      1.0000 0.30740  0.27135  0.65510  Biso   1.000  O
  O37      1.0000 0.88080  0.38207  0.68980  Biso   1.000  O
  O38      1.0000 0.88580  0.11394  0.63540  Biso   1.000  O
  O39      1.0000 0.26440  0.22785  0.41100  Biso   1.000  O
  P10      1.0000 0.66527  0.79325  0.97353  Biso   1.000  P
  P11      1.0000 0.22987  0.66948  0.99618  Biso   1.000  P
  P12      1.0000 0.00952  0.92743  0.85790  Biso   1.000  P
  Al10     1.0000 0.21090  0.79608  0.78720  Biso   1.000  Al
  Al11     1.0000 0.02270  0.89073  0.16156  Biso   1.000  Al
  Al12     1.0000 0.66660  0.82332  0.69142  Biso   1.000  Al
  O40      1.0000 0.13330  0.70596  0.67960  Biso   1.000  O
  H4       1.0000 0.14780  0.71470  0.60320  Biso   1.000  H
  O41      1.0000 0.19300  0.75102  0.93880  Biso   1.000  O
  O42      1.0000 0.08380  0.91295  0.02600  Biso   1.000  O
  O43      1.0000 0.43650  0.64940  0.07010  Biso   1.000  O
  O44      1.0000 0.46150  0.80926  0.90700  Biso   1.000  O
  O45      1.0000 0.78020  0.86348  0.05580  Biso   1.000  O
  O46      1.0000 0.03080  0.00928  0.82880  Biso   1.000  O
  O47      1.0000 0.80190  0.90475  0.75810  Biso   1.000  O
  O48      1.0000 0.17990  0.65862  0.11310  Biso   1.000  O
  O49      1.0000 0.69260  0.77135  0.84490  Biso   1.000  O
  O50      1.0000 0.11920  0.88207  0.81020  Biso   1.000  O
  O51      1.0000 0.11420  0.61394  0.86460  Biso   1.000  O
  O52      1.0000 0.73560  0.72785  0.08900  Biso   1.000  O
