data_image0
_cell_length_a       15.5168
_cell_length_b       16.779
_cell_length_c       18.7394
_cell_angle_alpha    94.142
_cell_angle_beta     113.527
_cell_angle_gamma    110.215

_symmetry_space_group_name_H-M    "P 1"
_symmetry_int_tables_number       1

loop_
  _symmetry_equiv_pos_as_xyz
  'x, y, z'

loop_
  _atom_site_label
  _atom_site_occupancy
  _atom_site_fract_x
  _atom_site_fract_y
  _atom_site_fract_z
  _atom_site_thermal_displace_type
  _atom_site_B_iso_or_equiv
  _atom_site_type_symbol
  Zn1      1.0000 0.42982  0.41057  0.28820  Biso   1.000  Zn
  Zn2      1.0000 0.19115  0.87693  0.46624  Biso   1.000  Zn
  Zn3      1.0000 0.00845  0.80840  0.27560  Biso   1.000  Zn
  S1       1.0000 0.26838  0.13098  0.31983  Biso   1.000  S
  S2       1.0000 0.76722  0.62936  0.35886  Biso   1.000  S
  S3       1.0000 0.29331  0.65218  0.38312  Biso   1.000  S
  S4       1.0000 0.74845  0.72240  0.99591  Biso   1.000  S
  O1       1.0000 0.10950  0.91830  0.36370  Biso   1.000  O
  O2       1.0000 0.12590  0.94250  0.25490  Biso   1.000  O
  O3       1.0000 0.39370  0.37080  0.44240  Biso   1.000  O
  O4       1.0000 0.39470  0.31050  0.33230  Biso   1.000  O
  O5       1.0000 0.60240  0.49540  0.45460  Biso   1.000  O
  O6       1.0000 0.56820  0.50210  0.32790  Biso   1.000  O
  O7       1.0000 0.93330  0.74570  0.33360  Biso   1.000  O
  O8       1.0000 0.05630  0.78680  0.45810  Biso   1.000  O
  O9       1.0000 0.90560  0.77120  0.16250  Biso   1.000  O
  O10      1.0000 0.86710  0.86770  0.20990  Biso   1.000  O
  O11      1.0000 0.62690  0.63970  0.82510  Biso   1.000  O
  O12      1.0000 0.50850  0.69240  0.80010  Biso   1.000  O
  O13      1.0000 0.42190  0.55150  0.40950  Biso   1.000  O
  O14      1.0000 0.33900  0.46930  0.28570  Biso   1.000  O
  O15      1.0000 0.20890  0.78420  0.39800  Biso   1.000  O
  O16      1.0000 0.08700  0.74020  0.27030  Biso   1.000  O
  C1       1.0000 0.16750  0.62260  0.24030  Biso   1.000  C
  H1       1.0000 0.11660  0.62410  0.19310  Biso   1.000  H
  C2       1.0000 0.21790  0.56590  0.24420  Biso   1.000  C
  H2       1.0000 0.20340  0.52590  0.19960  Biso   1.000  H
  C3       1.0000 0.68890  0.81940  0.05310  Biso   1.000  C
  H3       1.0000 0.68270  0.85650  0.08840  Biso   1.000  H
  C4       1.0000 0.76530  0.79070  0.07490  Biso   1.000  C
  C5       1.0000 0.63920  0.73100  0.93090  Biso   1.000  C
  C6       1.0000 0.62090  0.78660  0.97150  Biso   1.000  C
  H4       1.0000 0.56620  0.80240  0.94690  Biso   1.000  H
  C7       1.0000 0.85210  0.81290  0.15560  Biso   1.000  C
  C8       1.0000 0.80920  0.62740  0.50200  Biso   1.000  C
  H5       1.0000 0.80430  0.61520  0.54820  Biso   1.000  H
  C9       1.0000 0.20120  0.67320  0.31140  Biso   1.000  C
  C10      1.0000 0.28770  0.57550  0.31780  Biso   1.000  C
  C11      1.0000 0.58660  0.68360  0.84460  Biso   1.000  C
  C12      1.0000 0.14410  0.96890  0.32580  Biso   1.000  C
  C13      1.0000 0.22080  0.10830  0.43360  Biso   1.000  C
  H6       1.0000 0.19320  0.08200  0.46610  Biso   1.000  H
  C14      1.0000 0.89900  0.68600  0.50220  Biso   1.000  C
  H7       1.0000 0.95990  0.71700  0.54890  Biso   1.000  H
  C15      1.0000 0.35700  0.52870  0.34080  Biso   1.000  C
  C16      1.0000 0.20840  0.06420  0.36560  Biso   1.000  C
  C17      1.0000 0.62430  0.52540  0.40130  Biso   1.000  C
  C18      1.0000 0.88930  0.69330  0.42940  Biso   1.000  C
  C19      1.0000 0.16040  0.73810  0.32820  Biso   1.000  C
  C20      1.0000 0.37330  0.30930  0.39000  Biso   1.000  C
  C21      1.0000 0.73100  0.59100  0.42790  Biso   1.000  C
  C22      1.0000 0.96620  0.74650  0.40700  Biso   1.000  C
  C23      1.0000 0.31130  0.21960  0.39460  Biso   1.000  C
  C24      1.0000 0.27930  0.19800  0.45090  Biso   1.000  C
  H8       1.0000 0.29470  0.23820  0.49570  Biso   1.000  H
  Zn4      1.0000 0.57018  0.58943  0.71180  Biso   1.000  Zn
  Zn5      1.0000 0.80885  0.12307  0.53376  Biso   1.000  Zn
  Zn6      1.0000 0.99155  0.19160  0.72440  Biso   1.000  Zn
  S5       1.0000 0.73162  0.86902  0.68017  Biso   1.000  S
  S6       1.0000 0.23278  0.37064  0.64114  Biso   1.000  S
  S7       1.0000 0.70669  0.34782  0.61688  Biso   1.000  S
  S8       1.0000 0.25155  0.27760  0.00409  Biso   1.000  S
  O17      1.0000 0.89050  0.08170  0.63630  Biso   1.000  O
  O18      1.0000 0.87410  0.05750  0.74510  Biso   1.000  O
  O19      1.0000 0.60630  0.62920  0.55760  Biso   1.000  O
  O20      1.0000 0.60530  0.68950  0.66770  Biso   1.000  O
  O21      1.0000 0.39760  0.50460  0.54540  Biso   1.000  O
  O22      1.0000 0.43180  0.49790  0.67210  Biso   1.000  O
  O23      1.0000 0.06670  0.25430  0.66640  Biso   1.000  O
  O24      1.0000 0.94370  0.21320  0.54190  Biso   1.000  O
  O25      1.0000 0.09440  0.22880  0.83750  Biso   1.000  O
  O26      1.0000 0.13290  0.13230  0.79010  Biso   1.000  O
  O27      1.0000 0.37310  0.36030  0.17490  Biso   1.000  O
  O28      1.0000 0.49150  0.30760  0.19990  Biso   1.000  O
  O29      1.0000 0.57810  0.44850  0.59050  Biso   1.000  O
  O30      1.0000 0.66100  0.53070  0.71430  Biso   1.000  O
  O31      1.0000 0.79110  0.21580  0.60200  Biso   1.000  O
  O32      1.0000 0.91300  0.25980  0.72970  Biso   1.000  O
  C25      1.0000 0.83250  0.37740  0.75970  Biso   1.000  C
  H9       1.0000 0.88340  0.37590  0.80690  Biso   1.000  H
  C26      1.0000 0.78210  0.43410  0.75580  Biso   1.000  C
  H10      1.0000 0.79660  0.47410  0.80040  Biso   1.000  H
  C27      1.0000 0.31110  0.18060  0.94690  Biso   1.000  C
  H11      1.0000 0.31730  0.14350  0.91160  Biso   1.000  H
  C28      1.0000 0.23470  0.20930  0.92510  Biso   1.000  C
  C29      1.0000 0.36080  0.26900  0.06910  Biso   1.000  C
  C30      1.0000 0.37910  0.21340  0.02850  Biso   1.000  C
  H12      1.0000 0.43380  0.19760  0.05310  Biso   1.000  H
  C31      1.0000 0.14790  0.18710  0.84440  Biso   1.000  C
  C32      1.0000 0.19080  0.37260  0.49800  Biso   1.000  C
  H13      1.0000 0.19570  0.38480  0.45180  Biso   1.000  H
  C33      1.0000 0.79880  0.32680  0.68860  Biso   1.000  C
  C34      1.0000 0.71230  0.42450  0.68220  Biso   1.000  C
  C35      1.0000 0.41340  0.31640  0.15540  Biso   1.000  C
  C36      1.0000 0.85590  0.03110  0.67420  Biso   1.000  C
  C37      1.0000 0.77920  0.89170  0.56640  Biso   1.000  C
  H14      1.0000 0.80680  0.91800  0.53390  Biso   1.000  H
  C38      1.0000 0.10100  0.31400  0.49780  Biso   1.000  C
  H15      1.0000 0.04010  0.28300  0.45110  Biso   1.000  H
  C39      1.0000 0.64300  0.47130  0.65920  Biso   1.000  C
  C40      1.0000 0.79160  0.93580  0.63440  Biso   1.000  C
  C41      1.0000 0.37570  0.47460  0.59870  Biso   1.000  C
  C42      1.0000 0.11070  0.30670  0.57060  Biso   1.000  C
  C43      1.0000 0.83960  0.26190  0.67180  Biso   1.000  C
  C44      1.0000 0.62670  0.69070  0.61000  Biso   1.000  C
  C45      1.0000 0.26900  0.40900  0.57210  Biso   1.000  C
  C46      1.0000 0.03380  0.25350  0.59300  Biso   1.000  C
  C47      1.0000 0.68870  0.78040  0.60540  Biso   1.000  C
  C48      1.0000 0.72070  0.80200  0.54910  Biso   1.000  C
  H16      1.0000 0.70530  0.76180  0.50430  Biso   1.000  H
  Zn7      1.0000 0.50000  0.50000  0.50000  Biso   1.000  Zn
