data_image0
_cell_length_a       19.397
_cell_length_b       27.62
_cell_length_c       5.1655
_cell_angle_alpha    90
_cell_angle_beta     90
_cell_angle_gamma    90

_symmetry_space_group_name_H-M    "P 1"
_symmetry_int_tables_number       1

loop_
  _symmetry_equiv_pos_as_xyz
  'x, y, z'

loop_
  _atom_site_label
  _atom_site_occupancy
  _atom_site_fract_x
  _atom_site_fract_y
  _atom_site_fract_z
  _atom_site_thermal_displace_type
  _atom_site_B_iso_or_equiv
  _atom_site_type_symbol
  Zn1      1.0000 0.54616  0.95202  0.77962  Biso   1.000  Zn
  O1       1.0000 0.54718  0.88369  0.68080  Biso   1.000  O
  O2       1.0000 0.60109  0.99164  0.55380  Biso   1.000  O
  O3       1.0000 0.59469  0.95275  0.11360  Biso   1.000  O
  O4       1.0000 0.44919  0.96234  0.83140  Biso   1.000  O
  P1       1.0000 0.39665  0.99933  0.73535  Biso   1.000  P
  C1       1.0000 0.31456  0.97354  0.81560  Biso   1.000  C
  H1       1.0000 0.31180  0.94120  0.73390  Biso   1.000  H
  H2       1.0000 0.31320  0.96860  0.00540  Biso   1.000  H
  P2       1.0000 0.39472  0.14546  0.44069  Biso   1.000  P
  C2       1.0000 0.31431  0.12368  0.31700  Biso   1.000  C
  O5       1.0000 0.40074  0.19915  0.41000  Biso   1.000  O
  O6       1.0000 0.39318  0.13635  0.74160  Biso   1.000  O
  H3       1.0000 0.31310  0.12970  0.12820  Biso   1.000  H
  H4       1.0000 0.31250  0.08820  0.34300  Biso   1.000  H
  H5       1.0000 0.39550  0.10650  0.77080  Biso   1.000  H
  Zn2      1.0000 0.95384  0.54798  0.77962  Biso   1.000  Zn
  O7       1.0000 0.95282  0.61631  0.68080  Biso   1.000  O
  O8       1.0000 0.89891  0.50836  0.55380  Biso   1.000  O
  O9       1.0000 0.90531  0.54725  0.11360  Biso   1.000  O
  O10      1.0000 0.05081  0.53766  0.83140  Biso   1.000  O
  P3       1.0000 0.10335  0.50067  0.73535  Biso   1.000  P
  C3       1.0000 0.18544  0.52646  0.81560  Biso   1.000  C
  H6       1.0000 0.18820  0.55880  0.73390  Biso   1.000  H
  H7       1.0000 0.18680  0.53140  0.00540  Biso   1.000  H
  P4       1.0000 0.10528  0.35454  0.44069  Biso   1.000  P
  C4       1.0000 0.18569  0.37632  0.31700  Biso   1.000  C
  O11      1.0000 0.09926  0.30085  0.41000  Biso   1.000  O
  O12      1.0000 0.10682  0.36365  0.74160  Biso   1.000  O
  H8       1.0000 0.18690  0.37030  0.12820  Biso   1.000  H
  H9       1.0000 0.18750  0.41180  0.34300  Biso   1.000  H
  H10      1.0000 0.10450  0.39350  0.77080  Biso   1.000  H
  Zn3      1.0000 0.45384  0.45202  0.22038  Biso   1.000  Zn
  O13      1.0000 0.45282  0.38369  0.31920  Biso   1.000  O
  O14      1.0000 0.39891  0.49164  0.44620  Biso   1.000  O
  O15      1.0000 0.40531  0.45275  0.88640  Biso   1.000  O
  O16      1.0000 0.55081  0.46234  0.16860  Biso   1.000  O
  P5       1.0000 0.60335  0.49933  0.26465  Biso   1.000  P
  C5       1.0000 0.68544  0.47354  0.18440  Biso   1.000  C
  H11      1.0000 0.68820  0.44120  0.26610  Biso   1.000  H
  H12      1.0000 0.68680  0.46860  0.99460  Biso   1.000  H
  P6       1.0000 0.60528  0.64546  0.55931  Biso   1.000  P
  C6       1.0000 0.68569  0.62368  0.68300  Biso   1.000  C
  O17      1.0000 0.59926  0.69915  0.59000  Biso   1.000  O
  O18      1.0000 0.60682  0.63635  0.25840  Biso   1.000  O
  H13      1.0000 0.68690  0.62970  0.87180  Biso   1.000  H
  H14      1.0000 0.68750  0.58820  0.65700  Biso   1.000  H
  H15      1.0000 0.60450  0.60650  0.22920  Biso   1.000  H
  Zn4      1.0000 0.04616  0.04798  0.22038  Biso   1.000  Zn
  O19      1.0000 0.04718  0.11631  0.31920  Biso   1.000  O
  O20      1.0000 0.10109  0.00836  0.44620  Biso   1.000  O
  O21      1.0000 0.09469  0.04725  0.88640  Biso   1.000  O
  O22      1.0000 0.94919  0.03766  0.16860  Biso   1.000  O
  P7       1.0000 0.89665  0.00067  0.26465  Biso   1.000  P
  C7       1.0000 0.81456  0.02646  0.18440  Biso   1.000  C
  H16      1.0000 0.81180  0.05880  0.26610  Biso   1.000  H
  H17      1.0000 0.81320  0.03140  0.99460  Biso   1.000  H
  P8       1.0000 0.89472  0.85454  0.55931  Biso   1.000  P
  C8       1.0000 0.81431  0.87632  0.68300  Biso   1.000  C
  O23      1.0000 0.90074  0.80085  0.59000  Biso   1.000  O
  O24      1.0000 0.89318  0.86365  0.25840  Biso   1.000  O
  H18      1.0000 0.81310  0.87030  0.87180  Biso   1.000  H
  H19      1.0000 0.81250  0.91180  0.65700  Biso   1.000  H
  H20      1.0000 0.89550  0.89350  0.22920  Biso   1.000  H
  Zn5      1.0000 0.45384  0.04798  0.22038  Biso   1.000  Zn
  O25      1.0000 0.45282  0.11631  0.31920  Biso   1.000  O
  O26      1.0000 0.39891  0.00836  0.44620  Biso   1.000  O
  O27      1.0000 0.40531  0.04725  0.88640  Biso   1.000  O
  O28      1.0000 0.55081  0.03766  0.16860  Biso   1.000  O
  P9       1.0000 0.60335  0.00067  0.26465  Biso   1.000  P
  C9       1.0000 0.68544  0.02646  0.18440  Biso   1.000  C
  H21      1.0000 0.68820  0.05880  0.26610  Biso   1.000  H
  H22      1.0000 0.68680  0.03140  0.99460  Biso   1.000  H
  P10      1.0000 0.60528  0.85454  0.55931  Biso   1.000  P
  C10      1.0000 0.68569  0.87632  0.68300  Biso   1.000  C
  O29      1.0000 0.59926  0.80085  0.59000  Biso   1.000  O
  O30      1.0000 0.60682  0.86365  0.25840  Biso   1.000  O
  H23      1.0000 0.68690  0.87030  0.87180  Biso   1.000  H
  H24      1.0000 0.68750  0.91180  0.65700  Biso   1.000  H
  H25      1.0000 0.60450  0.89350  0.22920  Biso   1.000  H
  Zn6      1.0000 0.04616  0.45202  0.22038  Biso   1.000  Zn
  O31      1.0000 0.04718  0.38369  0.31920  Biso   1.000  O
  O32      1.0000 0.10109  0.49164  0.44620  Biso   1.000  O
  O33      1.0000 0.09469  0.45275  0.88640  Biso   1.000  O
  O34      1.0000 0.94919  0.46234  0.16860  Biso   1.000  O
  P11      1.0000 0.89665  0.49933  0.26465  Biso   1.000  P
  C11      1.0000 0.81456  0.47354  0.18440  Biso   1.000  C
  H26      1.0000 0.81180  0.44120  0.26610  Biso   1.000  H
  H27      1.0000 0.81320  0.46860  0.99460  Biso   1.000  H
  P12      1.0000 0.89472  0.64546  0.55931  Biso   1.000  P
  C12      1.0000 0.81431  0.62368  0.68300  Biso   1.000  C
  O35      1.0000 0.90074  0.69915  0.59000  Biso   1.000  O
  O36      1.0000 0.89318  0.63635  0.25840  Biso   1.000  O
  H28      1.0000 0.81310  0.62970  0.87180  Biso   1.000  H
  H29      1.0000 0.81250  0.58820  0.65700  Biso   1.000  H
  H30      1.0000 0.89550  0.60650  0.22920  Biso   1.000  H
  Zn7      1.0000 0.54616  0.54798  0.77962  Biso   1.000  Zn
  O37      1.0000 0.54718  0.61631  0.68080  Biso   1.000  O
  O38      1.0000 0.60109  0.50836  0.55380  Biso   1.000  O
  O39      1.0000 0.59469  0.54725  0.11360  Biso   1.000  O
  O40      1.0000 0.44919  0.53766  0.83140  Biso   1.000  O
  P13      1.0000 0.39665  0.50067  0.73535  Biso   1.000  P
  C13      1.0000 0.31456  0.52646  0.81560  Biso   1.000  C
  H31      1.0000 0.31180  0.55880  0.73390  Biso   1.000  H
  H32      1.0000 0.31320  0.53140  0.00540  Biso   1.000  H
  P14      1.0000 0.39472  0.35454  0.44069  Biso   1.000  P
  C14      1.0000 0.31431  0.37632  0.31700  Biso   1.000  C
  O41      1.0000 0.40074  0.30085  0.41000  Biso   1.000  O
  O42      1.0000 0.39318  0.36365  0.74160  Biso   1.000  O
  H33      1.0000 0.31310  0.37030  0.12820  Biso   1.000  H
  H34      1.0000 0.31250  0.41180  0.34300  Biso   1.000  H
  H35      1.0000 0.39550  0.39350  0.77080  Biso   1.000  H
  Zn8      1.0000 0.95384  0.95202  0.77962  Biso   1.000  Zn
  O43      1.0000 0.95282  0.88369  0.68080  Biso   1.000  O
  O44      1.0000 0.89891  0.99164  0.55380  Biso   1.000  O
  O45      1.0000 0.90531  0.95275  0.11360  Biso   1.000  O
  O46      1.0000 0.05081  0.96234  0.83140  Biso   1.000  O
  P15      1.0000 0.10335  0.99933  0.73535  Biso   1.000  P
  C15      1.0000 0.18544  0.97354  0.81560  Biso   1.000  C
  H36      1.0000 0.18820  0.94120  0.73390  Biso   1.000  H
  H37      1.0000 0.18680  0.96860  0.00540  Biso   1.000  H
  P16      1.0000 0.10528  0.14546  0.44069  Biso   1.000  P
  C16      1.0000 0.18569  0.12368  0.31700  Biso   1.000  C
  O47      1.0000 0.09926  0.19915  0.41000  Biso   1.000  O
  O48      1.0000 0.10682  0.13635  0.74160  Biso   1.000  O
  H38      1.0000 0.18690  0.12970  0.12820  Biso   1.000  H
  H39      1.0000 0.18750  0.08820  0.34300  Biso   1.000  H
  H40      1.0000 0.10450  0.10650  0.77080  Biso   1.000  H
  C17      1.0000 0.25000  0.00202  0.73790  Biso   1.000  C
  H41      1.0000 0.25000  0.03390  0.82510  Biso   1.000  H
  H42      1.0000 0.25000  0.00750  0.54850  Biso   1.000  H
  C18      1.0000 0.25000  0.14597  0.43770  Biso   1.000  C
  H43      1.0000 0.25000  0.18140  0.40860  Biso   1.000  H
  H44      1.0000 0.25000  0.14010  0.62680  Biso   1.000  H
  C19      1.0000 0.25000  0.49798  0.73790  Biso   1.000  C
  H45      1.0000 0.25000  0.46610  0.82510  Biso   1.000  H
  H46      1.0000 0.25000  0.49250  0.54850  Biso   1.000  H
  C20      1.0000 0.25000  0.35403  0.43770  Biso   1.000  C
  H47      1.0000 0.25000  0.31860  0.40860  Biso   1.000  H
  H48      1.0000 0.25000  0.35990  0.62680  Biso   1.000  H
  C21      1.0000 0.75000  0.50202  0.26210  Biso   1.000  C
  H49      1.0000 0.75000  0.53390  0.17490  Biso   1.000  H
  H50      1.0000 0.75000  0.50750  0.45150  Biso   1.000  H
  C22      1.0000 0.75000  0.64597  0.56230  Biso   1.000  C
  H51      1.0000 0.75000  0.68140  0.59140  Biso   1.000  H
  H52      1.0000 0.75000  0.64010  0.37320  Biso   1.000  H
  C23      1.0000 0.75000  0.99798  0.26210  Biso   1.000  C
  H53      1.0000 0.75000  0.96610  0.17490  Biso   1.000  H
  H54      1.0000 0.75000  0.99250  0.45150  Biso   1.000  H
  C24      1.0000 0.75000  0.85403  0.56230  Biso   1.000  C
  H55      1.0000 0.75000  0.81860  0.59140  Biso   1.000  H
  H56      1.0000 0.75000  0.85990  0.37320  Biso   1.000  H
  Zn9      1.0000 0.45009  0.25000  0.20559  Biso   1.000  Zn
  Zn10     1.0000 0.04991  0.25000  0.20559  Biso   1.000  Zn
  Zn11     1.0000 0.54991  0.75000  0.79441  Biso   1.000  Zn
  Zn12     1.0000 0.95009  0.75000  0.79441  Biso   1.000  Zn
