data_image0
_cell_length_a       24.408
_cell_length_b       27.827
_cell_length_c       5.1509
_cell_angle_alpha    90
_cell_angle_beta     90
_cell_angle_gamma    90

_symmetry_space_group_name_H-M    "P 1"
_symmetry_int_tables_number       1

loop_
  _symmetry_equiv_pos_as_xyz
  'x, y, z'

loop_
  _atom_site_label
  _atom_site_occupancy
  _atom_site_fract_x
  _atom_site_fract_y
  _atom_site_fract_z
  _atom_site_thermal_displace_type
  _atom_site_B_iso_or_equiv
  _atom_site_type_symbol
  Zn1      1.0000 0.46491  0.45070  0.28711  Biso   1.000  Zn
  P1       1.0000 0.58125  0.50163  0.22400  Biso   1.000  P
  P2       1.0000 0.41671  0.35413  0.07680  Biso   1.000  P
  O1       1.0000 0.57957  0.50970  0.93600  Biso   1.000  O
  O2       1.0000 0.54170  0.46270  0.31870  Biso   1.000  O
  O3       1.0000 0.56970  0.54847  0.37220  Biso   1.000  O
  O4       1.0000 0.46338  0.38250  0.19910  Biso   1.000  O
  O5       1.0000 0.41590  0.36300  0.77570  Biso   1.000  O
  H1       1.0000 0.41360  0.39260  0.74620  Biso   1.000  H
  O6       1.0000 0.42110  0.30120  0.10510  Biso   1.000  O
  C1       1.0000 0.64790  0.48020  0.31420  Biso   1.000  C
  H2       1.0000 0.64900  0.47750  0.50580  Biso   1.000  H
  H3       1.0000 0.65230  0.44740  0.24290  Biso   1.000  H
  C2       1.0000 0.30180  0.35390  0.07120  Biso   1.000  C
  H4       1.0000 0.30170  0.36140  0.88320  Biso   1.000  H
  H5       1.0000 0.30310  0.31860  0.09080  Biso   1.000  H
  C3       1.0000 0.35240  0.37590  0.19570  Biso   1.000  C
  H6       1.0000 0.35080  0.36990  0.38500  Biso   1.000  H
  H7       1.0000 0.35120  0.41110  0.16940  Biso   1.000  H
  C4       1.0000 0.69680  0.50980  0.22940  Biso   1.000  C
  H8       1.0000 0.69710  0.51220  0.03760  Biso   1.000  H
  H9       1.0000 0.69340  0.54280  0.30030  Biso   1.000  H
  Zn2      1.0000 0.03509  0.04930  0.28711  Biso   1.000  Zn
  P3       1.0000 0.91875  0.99837  0.22400  Biso   1.000  P
  P4       1.0000 0.08329  0.14587  0.07680  Biso   1.000  P
  O7       1.0000 0.92043  0.99030  0.93600  Biso   1.000  O
  O8       1.0000 0.95830  0.03730  0.31870  Biso   1.000  O
  O9       1.0000 0.93030  0.95153  0.37220  Biso   1.000  O
  O10      1.0000 0.03662  0.11750  0.19910  Biso   1.000  O
  O11      1.0000 0.08410  0.13700  0.77570  Biso   1.000  O
  H10      1.0000 0.08640  0.10740  0.74620  Biso   1.000  H
  O12      1.0000 0.07890  0.19880  0.10510  Biso   1.000  O
  C5       1.0000 0.85210  0.01980  0.31420  Biso   1.000  C
  H11      1.0000 0.85100  0.02250  0.50580  Biso   1.000  H
  H12      1.0000 0.84770  0.05260  0.24290  Biso   1.000  H
  C6       1.0000 0.19820  0.14610  0.07120  Biso   1.000  C
  H13      1.0000 0.19830  0.13860  0.88320  Biso   1.000  H
  H14      1.0000 0.19690  0.18140  0.09080  Biso   1.000  H
  C7       1.0000 0.14760  0.12410  0.19570  Biso   1.000  C
  H15      1.0000 0.14920  0.13010  0.38500  Biso   1.000  H
  H16      1.0000 0.14880  0.08890  0.16940  Biso   1.000  H
  C8       1.0000 0.80320  0.99020  0.22940  Biso   1.000  C
  H17      1.0000 0.80290  0.98780  0.03760  Biso   1.000  H
  H18      1.0000 0.80660  0.95720  0.30030  Biso   1.000  H
  Zn3      1.0000 0.53509  0.95070  0.71289  Biso   1.000  Zn
  P5       1.0000 0.41875  0.00163  0.77600  Biso   1.000  P
  P6       1.0000 0.58329  0.85413  0.92320  Biso   1.000  P
  O13      1.0000 0.42043  0.00970  0.06400  Biso   1.000  O
  O14      1.0000 0.45830  0.96270  0.68130  Biso   1.000  O
  O15      1.0000 0.43030  0.04847  0.62780  Biso   1.000  O
  O16      1.0000 0.53662  0.88250  0.80090  Biso   1.000  O
  O17      1.0000 0.58410  0.86300  0.22430  Biso   1.000  O
  H19      1.0000 0.58640  0.89260  0.25380  Biso   1.000  H
  O18      1.0000 0.57890  0.80120  0.89490  Biso   1.000  O
  C9       1.0000 0.35210  0.98020  0.68580  Biso   1.000  C
  H20      1.0000 0.35100  0.97750  0.49420  Biso   1.000  H
  H21      1.0000 0.34770  0.94740  0.75710  Biso   1.000  H
  C10      1.0000 0.69820  0.85390  0.92880  Biso   1.000  C
  H22      1.0000 0.69830  0.86140  0.11680  Biso   1.000  H
  H23      1.0000 0.69690  0.81860  0.90920  Biso   1.000  H
  C11      1.0000 0.64760  0.87590  0.80430  Biso   1.000  C
  H24      1.0000 0.64920  0.86990  0.61500  Biso   1.000  H
  H25      1.0000 0.64880  0.91110  0.83060  Biso   1.000  H
  C12      1.0000 0.30320  0.00980  0.77060  Biso   1.000  C
  H26      1.0000 0.30290  0.01220  0.96240  Biso   1.000  H
  H27      1.0000 0.30660  0.04280  0.69970  Biso   1.000  H
  Zn4      1.0000 0.96491  0.54930  0.71289  Biso   1.000  Zn
  P7       1.0000 0.08125  0.49837  0.77600  Biso   1.000  P
  P8       1.0000 0.91671  0.64587  0.92320  Biso   1.000  P
  O19      1.0000 0.07957  0.49030  0.06400  Biso   1.000  O
  O20      1.0000 0.04170  0.53730  0.68130  Biso   1.000  O
  O21      1.0000 0.06970  0.45153  0.62780  Biso   1.000  O
  O22      1.0000 0.96338  0.61750  0.80090  Biso   1.000  O
  O23      1.0000 0.91590  0.63700  0.22430  Biso   1.000  O
  H28      1.0000 0.91360  0.60740  0.25380  Biso   1.000  H
  O24      1.0000 0.92110  0.69880  0.89490  Biso   1.000  O
  C13      1.0000 0.14790  0.51980  0.68580  Biso   1.000  C
  H29      1.0000 0.14900  0.52250  0.49420  Biso   1.000  H
  H30      1.0000 0.15230  0.55260  0.75710  Biso   1.000  H
  C14      1.0000 0.80180  0.64610  0.92880  Biso   1.000  C
  H31      1.0000 0.80170  0.63860  0.11680  Biso   1.000  H
  H32      1.0000 0.80310  0.68140  0.90920  Biso   1.000  H
  C15      1.0000 0.85240  0.62410  0.80430  Biso   1.000  C
  H33      1.0000 0.85080  0.63010  0.61500  Biso   1.000  H
  H34      1.0000 0.85120  0.58890  0.83060  Biso   1.000  H
  C16      1.0000 0.19680  0.49020  0.77060  Biso   1.000  C
  H35      1.0000 0.19710  0.48780  0.96240  Biso   1.000  H
  H36      1.0000 0.19340  0.45720  0.69970  Biso   1.000  H
  Zn5      1.0000 0.53509  0.54930  0.71289  Biso   1.000  Zn
  P9       1.0000 0.41875  0.49837  0.77600  Biso   1.000  P
  P10      1.0000 0.58329  0.64587  0.92320  Biso   1.000  P
  O25      1.0000 0.42043  0.49030  0.06400  Biso   1.000  O
  O26      1.0000 0.45830  0.53730  0.68130  Biso   1.000  O
  O27      1.0000 0.43030  0.45153  0.62780  Biso   1.000  O
  O28      1.0000 0.53662  0.61750  0.80090  Biso   1.000  O
  O29      1.0000 0.58410  0.63700  0.22430  Biso   1.000  O
  H37      1.0000 0.58640  0.60740  0.25380  Biso   1.000  H
  O30      1.0000 0.57890  0.69880  0.89490  Biso   1.000  O
  C17      1.0000 0.35210  0.51980  0.68580  Biso   1.000  C
  H38      1.0000 0.35100  0.52250  0.49420  Biso   1.000  H
  H39      1.0000 0.34770  0.55260  0.75710  Biso   1.000  H
  C18      1.0000 0.69820  0.64610  0.92880  Biso   1.000  C
  H40      1.0000 0.69830  0.63860  0.11680  Biso   1.000  H
  H41      1.0000 0.69690  0.68140  0.90920  Biso   1.000  H
  C19      1.0000 0.64760  0.62410  0.80430  Biso   1.000  C
  H42      1.0000 0.64920  0.63010  0.61500  Biso   1.000  H
  H43      1.0000 0.64880  0.58890  0.83060  Biso   1.000  H
  C20      1.0000 0.30320  0.49020  0.77060  Biso   1.000  C
  H44      1.0000 0.30290  0.48780  0.96240  Biso   1.000  H
  H45      1.0000 0.30660  0.45720  0.69970  Biso   1.000  H
  Zn6      1.0000 0.96491  0.95070  0.71289  Biso   1.000  Zn
  P11      1.0000 0.08125  0.00163  0.77600  Biso   1.000  P
  P12      1.0000 0.91671  0.85413  0.92320  Biso   1.000  P
  O31      1.0000 0.07957  0.00970  0.06400  Biso   1.000  O
  O32      1.0000 0.04170  0.96270  0.68130  Biso   1.000  O
  O33      1.0000 0.06970  0.04847  0.62780  Biso   1.000  O
  O34      1.0000 0.96338  0.88250  0.80090  Biso   1.000  O
  O35      1.0000 0.91590  0.86300  0.22430  Biso   1.000  O
  H46      1.0000 0.91360  0.89260  0.25380  Biso   1.000  H
  O36      1.0000 0.92110  0.80120  0.89490  Biso   1.000  O
  C21      1.0000 0.14790  0.98020  0.68580  Biso   1.000  C
  H47      1.0000 0.14900  0.97750  0.49420  Biso   1.000  H
  H48      1.0000 0.15230  0.94740  0.75710  Biso   1.000  H
  C22      1.0000 0.80180  0.85390  0.92880  Biso   1.000  C
  H49      1.0000 0.80170  0.86140  0.11680  Biso   1.000  H
  H50      1.0000 0.80310  0.81860  0.90920  Biso   1.000  H
  C23      1.0000 0.85240  0.87590  0.80430  Biso   1.000  C
  H51      1.0000 0.85080  0.86990  0.61500  Biso   1.000  H
  H52      1.0000 0.85120  0.91110  0.83060  Biso   1.000  H
  C24      1.0000 0.19680  0.00980  0.77060  Biso   1.000  C
  H53      1.0000 0.19710  0.01220  0.96240  Biso   1.000  H
  H54      1.0000 0.19340  0.04280  0.69970  Biso   1.000  H
  Zn7      1.0000 0.46491  0.04930  0.28711  Biso   1.000  Zn
  P13      1.0000 0.58125  0.99837  0.22400  Biso   1.000  P
  P14      1.0000 0.41671  0.14587  0.07680  Biso   1.000  P
  O37      1.0000 0.57957  0.99030  0.93600  Biso   1.000  O
  O38      1.0000 0.54170  0.03730  0.31870  Biso   1.000  O
  O39      1.0000 0.56970  0.95153  0.37220  Biso   1.000  O
  O40      1.0000 0.46338  0.11750  0.19910  Biso   1.000  O
  O41      1.0000 0.41590  0.13700  0.77570  Biso   1.000  O
  H55      1.0000 0.41360  0.10740  0.74620  Biso   1.000  H
  O42      1.0000 0.42110  0.19880  0.10510  Biso   1.000  O
  C25      1.0000 0.64790  0.01980  0.31420  Biso   1.000  C
  H56      1.0000 0.64900  0.02250  0.50580  Biso   1.000  H
  H57      1.0000 0.65230  0.05260  0.24290  Biso   1.000  H
  C26      1.0000 0.30180  0.14610  0.07120  Biso   1.000  C
  H58      1.0000 0.30170  0.13860  0.88320  Biso   1.000  H
  H59      1.0000 0.30310  0.18140  0.09080  Biso   1.000  H
  C27      1.0000 0.35240  0.12410  0.19570  Biso   1.000  C
  H60      1.0000 0.35080  0.13010  0.38500  Biso   1.000  H
  H61      1.0000 0.35120  0.08890  0.16940  Biso   1.000  H
  C28      1.0000 0.69680  0.99020  0.22940  Biso   1.000  C
  H62      1.0000 0.69710  0.98780  0.03760  Biso   1.000  H
  H63      1.0000 0.69340  0.95720  0.30030  Biso   1.000  H
  Zn8      1.0000 0.03509  0.45070  0.28711  Biso   1.000  Zn
  P15      1.0000 0.91875  0.50163  0.22400  Biso   1.000  P
  P16      1.0000 0.08329  0.35413  0.07680  Biso   1.000  P
  O43      1.0000 0.92043  0.50970  0.93600  Biso   1.000  O
  O44      1.0000 0.95830  0.46270  0.31870  Biso   1.000  O
  O45      1.0000 0.93030  0.54847  0.37220  Biso   1.000  O
  O46      1.0000 0.03662  0.38250  0.19910  Biso   1.000  O
  O47      1.0000 0.08410  0.36300  0.77570  Biso   1.000  O
  H64      1.0000 0.08640  0.39260  0.74620  Biso   1.000  H
  O48      1.0000 0.07890  0.30120  0.10510  Biso   1.000  O
  C29      1.0000 0.85210  0.48020  0.31420  Biso   1.000  C
  H65      1.0000 0.85100  0.47750  0.50580  Biso   1.000  H
  H66      1.0000 0.84770  0.44740  0.24290  Biso   1.000  H
  C30      1.0000 0.19820  0.35390  0.07120  Biso   1.000  C
  H67      1.0000 0.19830  0.36140  0.88320  Biso   1.000  H
  H68      1.0000 0.19690  0.31860  0.09080  Biso   1.000  H
  C31      1.0000 0.14760  0.37590  0.19570  Biso   1.000  C
  H69      1.0000 0.14920  0.36990  0.38500  Biso   1.000  H
  H70      1.0000 0.14880  0.41110  0.16940  Biso   1.000  H
  C32      1.0000 0.80320  0.50980  0.22940  Biso   1.000  C
  H71      1.0000 0.80290  0.51220  0.03760  Biso   1.000  H
  H72      1.0000 0.80660  0.54280  0.30030  Biso   1.000  H
  Zn9      1.0000 0.46138  0.25000  0.30610  Biso   1.000  Zn
  Zn10     1.0000 0.03862  0.25000  0.30610  Biso   1.000  Zn
  Zn11     1.0000 0.53862  0.75000  0.69390  Biso   1.000  Zn
  Zn12     1.0000 0.96138  0.75000  0.69390  Biso   1.000  Zn
  C33      1.0000 0.75000  0.48790  0.32100  Biso   1.000  C
  H73      1.0000 0.75000  0.45370  0.26870  Biso   1.000  H
  H74      1.0000 0.75000  0.48870  0.51320  Biso   1.000  H
  C34      1.0000 0.75000  0.01210  0.32100  Biso   1.000  C
  H75      1.0000 0.75000  0.04630  0.26870  Biso   1.000  H
  H76      1.0000 0.75000  0.01130  0.51320  Biso   1.000  H
  C35      1.0000 0.25000  0.98790  0.67900  Biso   1.000  C
  H77      1.0000 0.25000  0.95370  0.73130  Biso   1.000  H
  H78      1.0000 0.25000  0.98870  0.48680  Biso   1.000  H
  C36      1.0000 0.25000  0.51210  0.67900  Biso   1.000  C
  H79      1.0000 0.25000  0.54630  0.73130  Biso   1.000  H
  H80      1.0000 0.25000  0.51130  0.48680  Biso   1.000  H
  C37      1.0000 0.25000  0.37260  0.19100  Biso   1.000  C
  H81      1.0000 0.25000  0.40810  0.17860  Biso   1.000  H
  H82      1.0000 0.25000  0.36410  0.37780  Biso   1.000  H
  C38      1.0000 0.25000  0.12740  0.19100  Biso   1.000  C
  H83      1.0000 0.25000  0.09190  0.17860  Biso   1.000  H
  H84      1.0000 0.25000  0.13590  0.37780  Biso   1.000  H
  C39      1.0000 0.75000  0.87260  0.80900  Biso   1.000  C
  H85      1.0000 0.75000  0.90810  0.82140  Biso   1.000  H
  H86      1.0000 0.75000  0.86410  0.62220  Biso   1.000  H
  C40      1.0000 0.75000  0.62740  0.80900  Biso   1.000  C
  H87      1.0000 0.75000  0.59190  0.82140  Biso   1.000  H
  H88      1.0000 0.75000  0.63590  0.62220  Biso   1.000  H
