data_image0
_cell_length_a       10.5536
_cell_length_b       17.313
_cell_length_c       10.3937
_cell_angle_alpha    90
_cell_angle_beta     99.502
_cell_angle_gamma    90

_symmetry_space_group_name_H-M    "P 1"
_symmetry_int_tables_number       1

loop_
  _symmetry_equiv_pos_as_xyz
  'x, y, z'

loop_
  _atom_site_label
  _atom_site_occupancy
  _atom_site_fract_x
  _atom_site_fract_y
  _atom_site_fract_z
  _atom_site_thermal_displace_type
  _atom_site_B_iso_or_equiv
  _atom_site_type_symbol
  Zn1      1.0000 0.15130  0.16519  0.82231  Biso   1.000  Zn
  Zn2      1.0000 0.94998  0.16724  0.11638  Biso   1.000  Zn
  P1       1.0000 0.87000  0.28625  0.32600  Biso   1.000  P
  P2       1.0000 0.22560  0.22670  0.10000  Biso   1.000  P
  O1       1.0000 0.13590  0.15970  0.12340  Biso   1.000  O
  O2       1.0000 0.96720  0.35000  0.30320  Biso   1.000  O
  O3       1.0000 0.90960  0.20720  0.27900  Biso   1.000  O
  O4       1.0000 0.90370  0.05700  0.11770  Biso   1.000  O
  O5       1.0000 0.23180  0.23610  0.95600  Biso   1.000  O
  O6       1.0000 0.85430  0.28170  0.46880  Biso   1.000  O
  O7       1.0000 0.18010  0.30340  0.15040  Biso   1.000  O
  O8       1.0000 0.77610  0.93890  0.14840  Biso   1.000  O
  C1       1.0000 0.48620  0.26610  0.16530  Biso   1.000  C
  H1       1.0000 0.50150  0.26290  0.07400  Biso   1.000  H
  H2       1.0000 0.45500  0.31890  0.17930  Biso   1.000  H
  C2       1.0000 0.38150  0.20780  0.18470  Biso   1.000  C
  H3       1.0000 0.37730  0.20510  0.27900  Biso   1.000  H
  H4       1.0000 0.40820  0.15620  0.15780  Biso   1.000  H
  C3       1.0000 0.61100  0.25340  0.25520  Biso   1.000  C
  H5       1.0000 0.64030  0.19990  0.24410  Biso   1.000  H
  H6       1.0000 0.59650  0.25910  0.34640  Biso   1.000  H
  C4       1.0000 0.71760  0.30970  0.23130  Biso   1.000  C
  H7       1.0000 0.72510  0.30880  0.13760  Biso   1.000  H
  H8       1.0000 0.69340  0.36280  0.25320  Biso   1.000  H
  P3       1.0000 0.78920  0.00900  0.06340  Biso   1.000  P
  O9       1.0000 0.79610  0.98460  0.92020  Biso   1.000  O
  H9       1.0000 0.81860  0.93810  0.91890  Biso   1.000  H
  C5       1.0000 0.52660  0.03580  0.96730  Biso   1.000  C
  H10      1.0000 0.54640  0.02070  0.88090  Biso   1.000  H
  H11      1.0000 0.45990  0.07650  0.95350  Biso   1.000  H
  C6       1.0000 0.64780  0.06830  0.05070  Biso   1.000  C
  H12      1.0000 0.62930  0.07760  0.13970  Biso   1.000  H
  H13      1.0000 0.66710  0.11890  0.01410  Biso   1.000  H
  Zn3      1.0000 0.84870  0.66519  0.67769  Biso   1.000  Zn
  Zn4      1.0000 0.05002  0.66724  0.38362  Biso   1.000  Zn
  P4       1.0000 0.13000  0.78625  0.17400  Biso   1.000  P
  P5       1.0000 0.77440  0.72670  0.40000  Biso   1.000  P
  O10      1.0000 0.86410  0.65970  0.37660  Biso   1.000  O
  O11      1.0000 0.03280  0.85000  0.19680  Biso   1.000  O
  O12      1.0000 0.09040  0.70720  0.22100  Biso   1.000  O
  O13      1.0000 0.09630  0.55700  0.38230  Biso   1.000  O
  O14      1.0000 0.76820  0.73610  0.54400  Biso   1.000  O
  O15      1.0000 0.14570  0.78170  0.03120  Biso   1.000  O
  O16      1.0000 0.81990  0.80340  0.34960  Biso   1.000  O
  O17      1.0000 0.22390  0.43890  0.35160  Biso   1.000  O
  C7       1.0000 0.51380  0.76610  0.33470  Biso   1.000  C
  H14      1.0000 0.49850  0.76290  0.42600  Biso   1.000  H
  H15      1.0000 0.54500  0.81890  0.32070  Biso   1.000  H
  C8       1.0000 0.61850  0.70780  0.31530  Biso   1.000  C
  H16      1.0000 0.62270  0.70510  0.22100  Biso   1.000  H
  H17      1.0000 0.59180  0.65620  0.34220  Biso   1.000  H
  C9       1.0000 0.38900  0.75340  0.24480  Biso   1.000  C
  H18      1.0000 0.35970  0.69990  0.25590  Biso   1.000  H
  H19      1.0000 0.40350  0.75910  0.15360  Biso   1.000  H
  C10      1.0000 0.28240  0.80970  0.26870  Biso   1.000  C
  H20      1.0000 0.27490  0.80880  0.36240  Biso   1.000  H
  H21      1.0000 0.30660  0.86280  0.24680  Biso   1.000  H
  P6       1.0000 0.21080  0.50900  0.43660  Biso   1.000  P
  O18      1.0000 0.20390  0.48460  0.57980  Biso   1.000  O
  H22      1.0000 0.18140  0.43810  0.58110  Biso   1.000  H
  C11      1.0000 0.47340  0.53580  0.53270  Biso   1.000  C
  H23      1.0000 0.45360  0.52070  0.61910  Biso   1.000  H
  H24      1.0000 0.54010  0.57650  0.54650  Biso   1.000  H
  C12      1.0000 0.35220  0.56830  0.44930  Biso   1.000  C
  H25      1.0000 0.37070  0.57760  0.36030  Biso   1.000  H
  H26      1.0000 0.33290  0.61890  0.48590  Biso   1.000  H
  Zn5      1.0000 0.84870  0.83481  0.17769  Biso   1.000  Zn
  Zn6      1.0000 0.05002  0.83276  0.88362  Biso   1.000  Zn
  P7       1.0000 0.13000  0.71375  0.67400  Biso   1.000  P
  P8       1.0000 0.77440  0.77330  0.90000  Biso   1.000  P
  O19      1.0000 0.86410  0.84030  0.87660  Biso   1.000  O
  O20      1.0000 0.03280  0.65000  0.69680  Biso   1.000  O
  O21      1.0000 0.09040  0.79280  0.72100  Biso   1.000  O
  O22      1.0000 0.09630  0.94300  0.88230  Biso   1.000  O
  O23      1.0000 0.76820  0.76390  0.04400  Biso   1.000  O
  O24      1.0000 0.14570  0.71830  0.53120  Biso   1.000  O
  O25      1.0000 0.81990  0.69660  0.84960  Biso   1.000  O
  O26      1.0000 0.22390  0.06110  0.85160  Biso   1.000  O
  C13      1.0000 0.51380  0.73390  0.83470  Biso   1.000  C
  H27      1.0000 0.49850  0.73710  0.92600  Biso   1.000  H
  H28      1.0000 0.54500  0.68110  0.82070  Biso   1.000  H
  C14      1.0000 0.61850  0.79220  0.81530  Biso   1.000  C
  H29      1.0000 0.62270  0.79490  0.72100  Biso   1.000  H
  H30      1.0000 0.59180  0.84380  0.84220  Biso   1.000  H
  C15      1.0000 0.38900  0.74660  0.74480  Biso   1.000  C
  H31      1.0000 0.35970  0.80010  0.75590  Biso   1.000  H
  H32      1.0000 0.40350  0.74090  0.65360  Biso   1.000  H
  C16      1.0000 0.28240  0.69030  0.76870  Biso   1.000  C
  H33      1.0000 0.27490  0.69120  0.86240  Biso   1.000  H
  H34      1.0000 0.30660  0.63720  0.74680  Biso   1.000  H
  P9       1.0000 0.21080  0.99100  0.93660  Biso   1.000  P
  O27      1.0000 0.20390  0.01540  0.07980  Biso   1.000  O
  H35      1.0000 0.18140  0.06190  0.08110  Biso   1.000  H
  C17      1.0000 0.47340  0.96420  0.03270  Biso   1.000  C
  H36      1.0000 0.45360  0.97930  0.11910  Biso   1.000  H
  H37      1.0000 0.54010  0.92350  0.04650  Biso   1.000  H
  C18      1.0000 0.35220  0.93170  0.94930  Biso   1.000  C
  H38      1.0000 0.37070  0.92240  0.86030  Biso   1.000  H
  H39      1.0000 0.33290  0.88110  0.98590  Biso   1.000  H
  Zn7      1.0000 0.15130  0.33481  0.32231  Biso   1.000  Zn
  Zn8      1.0000 0.94998  0.33276  0.61638  Biso   1.000  Zn
  P10      1.0000 0.87000  0.21375  0.82600  Biso   1.000  P
  P11      1.0000 0.22560  0.27330  0.60000  Biso   1.000  P
  O28      1.0000 0.13590  0.34030  0.62340  Biso   1.000  O
  O29      1.0000 0.96720  0.15000  0.80320  Biso   1.000  O
  O30      1.0000 0.90960  0.29280  0.77900  Biso   1.000  O
  O31      1.0000 0.90370  0.44300  0.61770  Biso   1.000  O
  O32      1.0000 0.23180  0.26390  0.45600  Biso   1.000  O
  O33      1.0000 0.85430  0.21830  0.96880  Biso   1.000  O
  O34      1.0000 0.18010  0.19660  0.65040  Biso   1.000  O
  O35      1.0000 0.77610  0.56110  0.64840  Biso   1.000  O
  C19      1.0000 0.48620  0.23390  0.66530  Biso   1.000  C
  H40      1.0000 0.50150  0.23710  0.57400  Biso   1.000  H
  H41      1.0000 0.45500  0.18110  0.67930  Biso   1.000  H
  C20      1.0000 0.38150  0.29220  0.68470  Biso   1.000  C
  H42      1.0000 0.37730  0.29490  0.77900  Biso   1.000  H
  H43      1.0000 0.40820  0.34380  0.65780  Biso   1.000  H
  C21      1.0000 0.61100  0.24660  0.75520  Biso   1.000  C
  H44      1.0000 0.64030  0.30010  0.74410  Biso   1.000  H
  H45      1.0000 0.59650  0.24090  0.84640  Biso   1.000  H
  C22      1.0000 0.71760  0.19030  0.73130  Biso   1.000  C
  H46      1.0000 0.72510  0.19120  0.63760  Biso   1.000  H
  H47      1.0000 0.69340  0.13720  0.75320  Biso   1.000  H
  P12      1.0000 0.78920  0.49100  0.56340  Biso   1.000  P
  O36      1.0000 0.79610  0.51540  0.42020  Biso   1.000  O
  H48      1.0000 0.81860  0.56190  0.41890  Biso   1.000  H
  C23      1.0000 0.52660  0.46420  0.46730  Biso   1.000  C
  H49      1.0000 0.54640  0.47930  0.38090  Biso   1.000  H
  H50      1.0000 0.45990  0.42350  0.45350  Biso   1.000  H
  C24      1.0000 0.64780  0.43170  0.55070  Biso   1.000  C
  H51      1.0000 0.62930  0.42240  0.63970  Biso   1.000  H
  H52      1.0000 0.66710  0.38110  0.51410  Biso   1.000  H
