data_image0
_cell_length_a       27.541
_cell_length_b       11.126
_cell_length_c       16.991
_cell_angle_alpha    90
_cell_angle_beta     99.01
_cell_angle_gamma    90

_symmetry_space_group_name_H-M    "P 1"
_symmetry_int_tables_number       1

loop_
  _symmetry_equiv_pos_as_xyz
  'x, y, z'

loop_
  _atom_site_label
  _atom_site_occupancy
  _atom_site_fract_x
  _atom_site_fract_y
  _atom_site_fract_z
  _atom_site_thermal_displace_type
  _atom_site_B_iso_or_equiv
  _atom_site_type_symbol
  Ce1      1.0000 0.25216  0.63210  0.69040  Biso   1.000  Ce
  Ce2      1.0000 0.25119  0.67389  0.97335  Biso   1.000  Ce
  C1       1.0000 0.17690  0.87500  0.62510  Biso   1.000  C
  C2       1.0000 0.12810  0.91400  0.63980  Biso   1.000  C
  C3       1.0000 0.10860  0.87200  0.70460  Biso   1.000  C
  H1       1.0000 0.12690  0.82040  0.74120  Biso   1.000  H
  C4       1.0000 0.06240  0.90500  0.71450  Biso   1.000  C
  H2       1.0000 0.04920  0.87610  0.75800  Biso   1.000  H
  C5       1.0000 0.03480  0.98100  0.66130  Biso   1.000  C
  C6       1.0000 0.09880  0.99330  0.59120  Biso   1.000  C
  H3       1.0000 0.11190  0.02650  0.54890  Biso   1.000  H
  C7       1.0000 0.98320  0.01000  0.66650  Biso   1.000  C
  C8       1.0000 0.95270  0.06060  0.60470  Biso   1.000  C
  H4       1.0000 0.96490  0.08350  0.55880  Biso   1.000  H
  C9       1.0000 0.91970  0.99600  0.73850  Biso   1.000  C
  H5       1.0000 0.90850  0.97490  0.78560  Biso   1.000  H
  C10      1.0000 0.88640  0.04670  0.67960  Biso   1.000  C
  C11      1.0000 0.90510  0.07730  0.61000  Biso   1.000  C
  H6       1.0000 0.88420  0.10970  0.56690  Biso   1.000  H
  C12      1.0000 0.83430  0.06550  0.68800  Biso   1.000  C
  C13      1.0000 0.32900  0.58790  0.54810  Biso   1.000  C
  C14      1.0000 0.38030  0.55800  0.53340  Biso   1.000  C
  C15      1.0000 0.41000  0.47370  0.57770  Biso   1.000  C
  H7       1.0000 0.39740  0.43270  0.61780  Biso   1.000  H
  C16      1.0000 0.44620  0.59110  0.45940  Biso   1.000  C
  H8       1.0000 0.45860  0.63170  0.41900  Biso   1.000  H
  C17      1.0000 0.47430  0.51080  0.50550  Biso   1.000  C
  C18      1.0000 0.39960  0.61200  0.47250  Biso   1.000  C
  H9       1.0000 0.38000  0.66490  0.43900  Biso   1.000  H
  C19      1.0000 0.02540  0.98000  0.99810  Biso   1.000  C
  C20      1.0000 0.03660  0.91800  0.93310  Biso   1.000  C
  H10      1.0000 0.01190  0.89890  0.89120  Biso   1.000  H
  C21      1.0000 0.08410  0.88400  0.93010  Biso   1.000  C
  H11      1.0000 0.09220  0.84700  0.88470  Biso   1.000  H
  C22      1.0000 0.12020  0.90500  0.99630  Biso   1.000  C
  C23      1.0000 0.10610  0.97300  0.05820  Biso   1.000  C
  H12      1.0000 0.13030  0.99540  0.10010  Biso   1.000  H
  C24      1.0000 0.17060  0.86400  0.99670  Biso   1.000  C
  C25      1.0000 0.33810  0.58720  0.85830  Biso   1.000  C
  C26      1.0000 0.39140  0.57810  0.85230  Biso   1.000  C
  C27      1.0000 0.42820  0.59670  0.91600  Biso   1.000  C
  H13      1.0000 0.42020  0.61980  0.96490  Biso   1.000  H
  C28      1.0000 0.47650  0.58160  0.90790  Biso   1.000  C
  H14      1.0000 0.50110  0.59240  0.95150  Biso   1.000  H
  C29      1.0000 0.48840  0.55050  0.83530  Biso   1.000  C
  C30      1.0000 0.40690  0.55880  0.77910  Biso   1.000  C
  H15      1.0000 0.38320  0.55600  0.73360  Biso   1.000  H
  C31      1.0000 0.53890  0.51410  0.82730  Biso   1.000  C
  C32      1.0000 0.54950  0.47360  0.75610  Biso   1.000  C
  H16      1.0000 0.52750  0.48530  0.70930  Biso   1.000  H
  C33      1.0000 0.59340  0.41500  0.75490  Biso   1.000  C
  H17      1.0000 0.60010  0.38050  0.70790  Biso   1.000  H
  C34      1.0000 0.62790  0.40760  0.82480  Biso   1.000  C
  C35      1.0000 0.61610  0.46450  0.89240  Biso   1.000  C
  H18      1.0000 0.63950  0.46650  0.93820  Biso   1.000  H
  C36      1.0000 0.67410  0.33560  0.82650  Biso   1.000  C
  N1       1.0000 0.05340  0.02650  0.59980  Biso   1.000  N
  N2       1.0000 0.96680  0.97300  0.73390  Biso   1.000  N
  N3       1.0000 0.45620  0.44800  0.56550  Biso   1.000  N
  N4       1.0000 0.06010  0.00700  0.06090  Biso   1.000  N
  N5       1.0000 0.45410  0.54420  0.77060  Biso   1.000  N
  N6       1.0000 0.57260  0.51620  0.89400  Biso   1.000  N
  O1       1.0000 0.20460  0.82070  0.68140  Biso   1.000  O
  O2       1.0000 0.18800  0.89590  0.55600  Biso   1.000  O
  O3       1.0000 0.82330  0.07990  0.75460  Biso   1.000  O
  O4       1.0000 0.80320  0.06280  0.62410  Biso   1.000  O
  O5       1.0000 0.31790  0.56110  0.61380  Biso   1.000  O
  O6       1.0000 0.30090  0.64240  0.49170  Biso   1.000  O
  O7       1.0000 0.18060  0.81170  0.93450  Biso   1.000  O
  O8       1.0000 0.20120  0.86720  0.05900  Biso   1.000  O
  O9       1.0000 0.30710  0.54930  0.80130  Biso   1.000  O
  O10      1.0000 0.32710  0.62600  0.92160  Biso   1.000  O
  O11      1.0000 0.70180  0.32530  0.89130  Biso   1.000  O
  O12      1.0000 0.68160  0.28610  0.76310  Biso   1.000  O
  O13      1.0000 0.25090  0.77510  0.83270  Biso   1.000  O
  H19      1.0000 0.27910  0.82810  0.83770  Biso   1.000  H
  H20      1.0000 0.22190  0.82580  0.82280  Biso   1.000  H
  Ce3      1.0000 0.74784  0.13210  0.80960  Biso   1.000  Ce
  Ce4      1.0000 0.74881  0.17389  0.52665  Biso   1.000  Ce
  C37      1.0000 0.82310  0.37500  0.87490  Biso   1.000  C
  C38      1.0000 0.87190  0.41400  0.86020  Biso   1.000  C
  C39      1.0000 0.89140  0.37200  0.79540  Biso   1.000  C
  H21      1.0000 0.87310  0.32040  0.75880  Biso   1.000  H
  C40      1.0000 0.93760  0.40500  0.78550  Biso   1.000  C
  H22      1.0000 0.95080  0.37610  0.74200  Biso   1.000  H
  C41      1.0000 0.96520  0.48100  0.83870  Biso   1.000  C
  C42      1.0000 0.90120  0.49330  0.90880  Biso   1.000  C
  H23      1.0000 0.88810  0.52650  0.95110  Biso   1.000  H
  C43      1.0000 0.01680  0.51000  0.83350  Biso   1.000  C
  C44      1.0000 0.04730  0.56060  0.89530  Biso   1.000  C
  H24      1.0000 0.03510  0.58350  0.94120  Biso   1.000  H
  C45      1.0000 0.08030  0.49600  0.76150  Biso   1.000  C
  H25      1.0000 0.09150  0.47490  0.71440  Biso   1.000  H
  C46      1.0000 0.11360  0.54670  0.82040  Biso   1.000  C
  C47      1.0000 0.09490  0.57730  0.89000  Biso   1.000  C
  H26      1.0000 0.11580  0.60970  0.93310  Biso   1.000  H
  C48      1.0000 0.16570  0.56550  0.81200  Biso   1.000  C
  C49      1.0000 0.67100  0.08790  0.95190  Biso   1.000  C
  C50      1.0000 0.61970  0.05800  0.96660  Biso   1.000  C
  C51      1.0000 0.59000  0.97370  0.92230  Biso   1.000  C
  H27      1.0000 0.60260  0.93270  0.88220  Biso   1.000  H
  C52      1.0000 0.55380  0.09110  0.04060  Biso   1.000  C
  H28      1.0000 0.54140  0.13170  0.08100  Biso   1.000  H
  C53      1.0000 0.52570  0.01080  0.99450  Biso   1.000  C
  C54      1.0000 0.60040  0.11200  0.02750  Biso   1.000  C
  H29      1.0000 0.62000  0.16490  0.06100  Biso   1.000  H
  C55      1.0000 0.97460  0.48000  0.50190  Biso   1.000  C
  C56      1.0000 0.96340  0.41800  0.56690  Biso   1.000  C
  H30      1.0000 0.98810  0.39890  0.60880  Biso   1.000  H
  C57      1.0000 0.91590  0.38400  0.56990  Biso   1.000  C
  H31      1.0000 0.90780  0.34700  0.61530  Biso   1.000  H
  C58      1.0000 0.87980  0.40500  0.50370  Biso   1.000  C
  C59      1.0000 0.89390  0.47300  0.44180  Biso   1.000  C
  H32      1.0000 0.86970  0.49540  0.39990  Biso   1.000  H
  C60      1.0000 0.82940  0.36400  0.50330  Biso   1.000  C
  C61      1.0000 0.66190  0.08720  0.64170  Biso   1.000  C
  C62      1.0000 0.60860  0.07810  0.64770  Biso   1.000  C
  C63      1.0000 0.57180  0.09670  0.58400  Biso   1.000  C
  H33      1.0000 0.57980  0.11980  0.53510  Biso   1.000  H
  C64      1.0000 0.52350  0.08160  0.59210  Biso   1.000  C
  H34      1.0000 0.49890  0.09240  0.54850  Biso   1.000  H
  C65      1.0000 0.51160  0.05050  0.66470  Biso   1.000  C
  C66      1.0000 0.59310  0.05880  0.72090  Biso   1.000  C
  H35      1.0000 0.61680  0.05600  0.76640  Biso   1.000  H
  C67      1.0000 0.46110  0.01410  0.67270  Biso   1.000  C
  C68      1.0000 0.45050  0.97360  0.74390  Biso   1.000  C
  H36      1.0000 0.47250  0.98530  0.79070  Biso   1.000  H
  C69      1.0000 0.40660  0.91500  0.74510  Biso   1.000  C
  H37      1.0000 0.39990  0.88050  0.79210  Biso   1.000  H
  C70      1.0000 0.37210  0.90760  0.67520  Biso   1.000  C
  C71      1.0000 0.38390  0.96450  0.60760  Biso   1.000  C
  H38      1.0000 0.36050  0.96650  0.56180  Biso   1.000  H
  C72      1.0000 0.32590  0.83560  0.67350  Biso   1.000  C
  N7       1.0000 0.94660  0.52650  0.90020  Biso   1.000  N
  N8       1.0000 0.03320  0.47300  0.76610  Biso   1.000  N
  N9       1.0000 0.54380  0.94800  0.93450  Biso   1.000  N
  N10      1.0000 0.93990  0.50700  0.43910  Biso   1.000  N
  N11      1.0000 0.54590  0.04420  0.72940  Biso   1.000  N
  N12      1.0000 0.42740  0.01620  0.60600  Biso   1.000  N
  O14      1.0000 0.79540  0.32070  0.81860  Biso   1.000  O
  O15      1.0000 0.81200  0.39590  0.94400  Biso   1.000  O
  O16      1.0000 0.17670  0.57990  0.74540  Biso   1.000  O
  O17      1.0000 0.19680  0.56280  0.87590  Biso   1.000  O
  O18      1.0000 0.68210  0.06110  0.88620  Biso   1.000  O
  O19      1.0000 0.69910  0.14240  0.00830  Biso   1.000  O
  O20      1.0000 0.81940  0.31170  0.56550  Biso   1.000  O
  O21      1.0000 0.79880  0.36720  0.44100  Biso   1.000  O
  O22      1.0000 0.69290  0.04930  0.69870  Biso   1.000  O
  O23      1.0000 0.67290  0.12600  0.57840  Biso   1.000  O
  O24      1.0000 0.29820  0.82530  0.60870  Biso   1.000  O
  O25      1.0000 0.31840  0.78610  0.73690  Biso   1.000  O
  O26      1.0000 0.74910  0.27510  0.66730  Biso   1.000  O
  H39      1.0000 0.72090  0.32810  0.66230  Biso   1.000  H
  H40      1.0000 0.77810  0.32580  0.67720  Biso   1.000  H
  Ce5      1.0000 0.74784  0.36790  0.30960  Biso   1.000  Ce
  Ce6      1.0000 0.74881  0.32611  0.02665  Biso   1.000  Ce
  C73      1.0000 0.82310  0.12500  0.37490  Biso   1.000  C
  C74      1.0000 0.87190  0.08600  0.36020  Biso   1.000  C
  C75      1.0000 0.89140  0.12800  0.29540  Biso   1.000  C
  H41      1.0000 0.87310  0.17960  0.25880  Biso   1.000  H
  C76      1.0000 0.93760  0.09500  0.28550  Biso   1.000  C
  H42      1.0000 0.95080  0.12390  0.24200  Biso   1.000  H
  C77      1.0000 0.96520  0.01900  0.33870  Biso   1.000  C
  C78      1.0000 0.90120  0.00670  0.40880  Biso   1.000  C
  H43      1.0000 0.88810  0.97350  0.45110  Biso   1.000  H
  C79      1.0000 0.01680  0.99000  0.33350  Biso   1.000  C
  C80      1.0000 0.04730  0.93940  0.39530  Biso   1.000  C
  H44      1.0000 0.03510  0.91650  0.44120  Biso   1.000  H
  C81      1.0000 0.08030  0.00400  0.26150  Biso   1.000  C
  H45      1.0000 0.09150  0.02510  0.21440  Biso   1.000  H
  C82      1.0000 0.11360  0.95330  0.32040  Biso   1.000  C
  C83      1.0000 0.09490  0.92270  0.39000  Biso   1.000  C
  H46      1.0000 0.11580  0.89030  0.43310  Biso   1.000  H
  C84      1.0000 0.16570  0.93450  0.31200  Biso   1.000  C
  C85      1.0000 0.67100  0.41210  0.45190  Biso   1.000  C
  C86      1.0000 0.61970  0.44200  0.46660  Biso   1.000  C
  C87      1.0000 0.59000  0.52630  0.42230  Biso   1.000  C
  H47      1.0000 0.60260  0.56730  0.38220  Biso   1.000  H
  C88      1.0000 0.55380  0.40890  0.54060  Biso   1.000  C
  H48      1.0000 0.54140  0.36830  0.58100  Biso   1.000  H
  C89      1.0000 0.52570  0.48920  0.49450  Biso   1.000  C
  C90      1.0000 0.60040  0.38800  0.52750  Biso   1.000  C
  H49      1.0000 0.62000  0.33510  0.56100  Biso   1.000  H
  C91      1.0000 0.97460  0.02000  0.00190  Biso   1.000  C
  C92      1.0000 0.96340  0.08200  0.06690  Biso   1.000  C
  H50      1.0000 0.98810  0.10110  0.10880  Biso   1.000  H
  C93      1.0000 0.91590  0.11600  0.06990  Biso   1.000  C
  H51      1.0000 0.90780  0.15300  0.11530  Biso   1.000  H
  C94      1.0000 0.87980  0.09500  0.00370  Biso   1.000  C
  C95      1.0000 0.89390  0.02700  0.94180  Biso   1.000  C
  H52      1.0000 0.86970  0.00460  0.89990  Biso   1.000  H
  C96      1.0000 0.82940  0.13600  0.00330  Biso   1.000  C
  C97      1.0000 0.66190  0.41280  0.14170  Biso   1.000  C
  C98      1.0000 0.60860  0.42190  0.14770  Biso   1.000  C
  C99      1.0000 0.57180  0.40330  0.08400  Biso   1.000  C
  H53      1.0000 0.57980  0.38020  0.03510  Biso   1.000  H
  C100     1.0000 0.52350  0.41840  0.09210  Biso   1.000  C
  H54      1.0000 0.49890  0.40760  0.04850  Biso   1.000  H
  C101     1.0000 0.51160  0.44950  0.16470  Biso   1.000  C
  C102     1.0000 0.59310  0.44120  0.22090  Biso   1.000  C
  H55      1.0000 0.61680  0.44400  0.26640  Biso   1.000  H
  C103     1.0000 0.46110  0.48590  0.17270  Biso   1.000  C
  C104     1.0000 0.45050  0.52640  0.24390  Biso   1.000  C
  H56      1.0000 0.47250  0.51470  0.29070  Biso   1.000  H
  C105     1.0000 0.40660  0.58500  0.24510  Biso   1.000  C
  H57      1.0000 0.39990  0.61950  0.29210  Biso   1.000  H
  C106     1.0000 0.37210  0.59240  0.17520  Biso   1.000  C
  C107     1.0000 0.38390  0.53550  0.10760  Biso   1.000  C
  H58      1.0000 0.36050  0.53350  0.06180  Biso   1.000  H
  C108     1.0000 0.32590  0.66440  0.17350  Biso   1.000  C
  N13      1.0000 0.94660  0.97350  0.40020  Biso   1.000  N
  N14      1.0000 0.03320  0.02700  0.26610  Biso   1.000  N
  N15      1.0000 0.54380  0.55200  0.43450  Biso   1.000  N
  N16      1.0000 0.93990  0.99300  0.93910  Biso   1.000  N
  N17      1.0000 0.54590  0.45580  0.22940  Biso   1.000  N
  N18      1.0000 0.42740  0.48380  0.10600  Biso   1.000  N
  O27      1.0000 0.79540  0.17930  0.31860  Biso   1.000  O
  O28      1.0000 0.81200  0.10410  0.44400  Biso   1.000  O
  O29      1.0000 0.17670  0.92010  0.24540  Biso   1.000  O
  O30      1.0000 0.19680  0.93720  0.37590  Biso   1.000  O
  O31      1.0000 0.68210  0.43890  0.38620  Biso   1.000  O
  O32      1.0000 0.69910  0.35760  0.50830  Biso   1.000  O
  O33      1.0000 0.81940  0.18830  0.06550  Biso   1.000  O
  O34      1.0000 0.79880  0.13280  0.94100  Biso   1.000  O
  O35      1.0000 0.69290  0.45070  0.19870  Biso   1.000  O
  O36      1.0000 0.67290  0.37400  0.07840  Biso   1.000  O
  O37      1.0000 0.29820  0.67470  0.10870  Biso   1.000  O
  O38      1.0000 0.31840  0.71390  0.23690  Biso   1.000  O
  O39      1.0000 0.74910  0.22490  0.16730  Biso   1.000  O
  H59      1.0000 0.72090  0.17190  0.16230  Biso   1.000  H
  H60      1.0000 0.77810  0.17420  0.17720  Biso   1.000  H
  Ce7      1.0000 0.25216  0.86790  0.19040  Biso   1.000  Ce
  Ce8      1.0000 0.25119  0.82611  0.47335  Biso   1.000  Ce
  C109     1.0000 0.17690  0.62500  0.12510  Biso   1.000  C
  C110     1.0000 0.12810  0.58600  0.13980  Biso   1.000  C
  C111     1.0000 0.10860  0.62800  0.20460  Biso   1.000  C
  H61      1.0000 0.12690  0.67960  0.24120  Biso   1.000  H
  C112     1.0000 0.06240  0.59500  0.21450  Biso   1.000  C
  H62      1.0000 0.04920  0.62390  0.25800  Biso   1.000  H
  C113     1.0000 0.03480  0.51900  0.16130  Biso   1.000  C
  C114     1.0000 0.09880  0.50670  0.09120  Biso   1.000  C
  H63      1.0000 0.11190  0.47350  0.04890  Biso   1.000  H
  C115     1.0000 0.98320  0.49000  0.16650  Biso   1.000  C
  C116     1.0000 0.95270  0.43940  0.10470  Biso   1.000  C
  H64      1.0000 0.96490  0.41650  0.05880  Biso   1.000  H
  C117     1.0000 0.91970  0.50400  0.23850  Biso   1.000  C
  H65      1.0000 0.90850  0.52510  0.28560  Biso   1.000  H
  C118     1.0000 0.88640  0.45330  0.17960  Biso   1.000  C
  C119     1.0000 0.90510  0.42270  0.11000  Biso   1.000  C
  H66      1.0000 0.88420  0.39030  0.06690  Biso   1.000  H
  C120     1.0000 0.83430  0.43450  0.18800  Biso   1.000  C
  C121     1.0000 0.32900  0.91210  0.04810  Biso   1.000  C
  C122     1.0000 0.38030  0.94200  0.03340  Biso   1.000  C
  C123     1.0000 0.41000  0.02630  0.07770  Biso   1.000  C
  H67      1.0000 0.39740  0.06730  0.11780  Biso   1.000  H
  C124     1.0000 0.44620  0.90890  0.95940  Biso   1.000  C
  H68      1.0000 0.45860  0.86830  0.91900  Biso   1.000  H
  C125     1.0000 0.47430  0.98920  0.00550  Biso   1.000  C
  C126     1.0000 0.39960  0.88800  0.97250  Biso   1.000  C
  H69      1.0000 0.38000  0.83510  0.93900  Biso   1.000  H
  C127     1.0000 0.02540  0.52000  0.49810  Biso   1.000  C
  C128     1.0000 0.03660  0.58200  0.43310  Biso   1.000  C
  H70      1.0000 0.01190  0.60110  0.39120  Biso   1.000  H
  C129     1.0000 0.08410  0.61600  0.43010  Biso   1.000  C
  H71      1.0000 0.09220  0.65300  0.38470  Biso   1.000  H
  C130     1.0000 0.12020  0.59500  0.49630  Biso   1.000  C
  C131     1.0000 0.10610  0.52700  0.55820  Biso   1.000  C
  H72      1.0000 0.13030  0.50460  0.60010  Biso   1.000  H
  C132     1.0000 0.17060  0.63600  0.49670  Biso   1.000  C
  C133     1.0000 0.33810  0.91280  0.35830  Biso   1.000  C
  C134     1.0000 0.39140  0.92190  0.35230  Biso   1.000  C
  C135     1.0000 0.42820  0.90330  0.41600  Biso   1.000  C
  H73      1.0000 0.42020  0.88020  0.46490  Biso   1.000  H
  C136     1.0000 0.47650  0.91840  0.40790  Biso   1.000  C
  H74      1.0000 0.50110  0.90760  0.45150  Biso   1.000  H
  C137     1.0000 0.48840  0.94950  0.33530  Biso   1.000  C
  C138     1.0000 0.40690  0.94120  0.27910  Biso   1.000  C
  H75      1.0000 0.38320  0.94400  0.23360  Biso   1.000  H
  C139     1.0000 0.53890  0.98590  0.32730  Biso   1.000  C
  C140     1.0000 0.54950  0.02640  0.25610  Biso   1.000  C
  H76      1.0000 0.52750  0.01470  0.20930  Biso   1.000  H
  C141     1.0000 0.59340  0.08500  0.25490  Biso   1.000  C
  H77      1.0000 0.60010  0.11950  0.20790  Biso   1.000  H
  C142     1.0000 0.62790  0.09240  0.32480  Biso   1.000  C
  C143     1.0000 0.61610  0.03550  0.39240  Biso   1.000  C
  H78      1.0000 0.63950  0.03350  0.43820  Biso   1.000  H
  C144     1.0000 0.67410  0.16440  0.32650  Biso   1.000  C
  N19      1.0000 0.05340  0.47350  0.09980  Biso   1.000  N
  N20      1.0000 0.96680  0.52700  0.23390  Biso   1.000  N
  N21      1.0000 0.45620  0.05200  0.06550  Biso   1.000  N
  N22      1.0000 0.06010  0.49300  0.56090  Biso   1.000  N
  N23      1.0000 0.45410  0.95580  0.27060  Biso   1.000  N
  N24      1.0000 0.57260  0.98380  0.39400  Biso   1.000  N
  O40      1.0000 0.20460  0.67930  0.18140  Biso   1.000  O
  O41      1.0000 0.18800  0.60410  0.05600  Biso   1.000  O
  O42      1.0000 0.82330  0.42010  0.25460  Biso   1.000  O
  O43      1.0000 0.80320  0.43720  0.12410  Biso   1.000  O
  O44      1.0000 0.31790  0.93890  0.11380  Biso   1.000  O
  O45      1.0000 0.30090  0.85760  0.99170  Biso   1.000  O
  O46      1.0000 0.18060  0.68830  0.43450  Biso   1.000  O
  O47      1.0000 0.20120  0.63280  0.55900  Biso   1.000  O
  O48      1.0000 0.30710  0.95070  0.30130  Biso   1.000  O
  O49      1.0000 0.32710  0.87400  0.42160  Biso   1.000  O
  O50      1.0000 0.70180  0.17470  0.39130  Biso   1.000  O
  O51      1.0000 0.68160  0.21390  0.26310  Biso   1.000  O
  O52      1.0000 0.25090  0.72490  0.33270  Biso   1.000  O
  H79      1.0000 0.27910  0.67190  0.33770  Biso   1.000  H
  H80      1.0000 0.22190  0.67420  0.32280  Biso   1.000  H
