data_image0
_cell_length_a       10.1112
_cell_length_b       15.943
_cell_length_c       16.764
_cell_angle_alpha    111.325
_cell_angle_beta     103.68
_cell_angle_gamma    102.598

_symmetry_space_group_name_H-M    "P 1"
_symmetry_int_tables_number       1

loop_
  _symmetry_equiv_pos_as_xyz
  'x, y, z'

loop_
  _atom_site_label
  _atom_site_occupancy
  _atom_site_fract_x
  _atom_site_fract_y
  _atom_site_fract_z
  _atom_site_thermal_displace_type
  _atom_site_B_iso_or_equiv
  _atom_site_type_symbol
  Co1      1.0000 0.42436  0.37657  0.59235  Biso   1.000  Co
  N1       1.0000 0.51040  0.43560  0.74020  Biso   1.000  N
  O1       1.0000 0.76640  0.70500  0.06730  Biso   1.000  O
  C1       1.0000 0.62670  0.51390  0.79180  Biso   1.000  C
  H1       1.0000 0.67360  0.54350  0.76260  Biso   1.000  H
  Co2      1.0000 0.67789  0.20604  0.59281  Biso   1.000  Co
  N2       1.0000 0.80350  0.63810  0.93280  Biso   1.000  N
  H2       1.0000 0.86350  0.64490  0.90500  Biso   1.000  H
  O2       1.0000 0.21450  0.95390  0.11380  Biso   1.000  O
  C2       1.0000 0.68150  0.55380  0.88630  Biso   1.000  C
  N3       1.0000 0.27360  0.96560  0.25690  Biso   1.000  N
  H3       1.0000 0.24370  0.94180  0.29050  Biso   1.000  H
  O3       1.0000 0.78800  0.39220  0.08170  Biso   1.000  O
  C3       1.0000 0.61590  0.50660  0.92960  Biso   1.000  C
  H4       1.0000 0.65280  0.52860  0.99260  Biso   1.000  H
  N4       1.0000 0.59590  0.14490  0.44540  Biso   1.000  N
  O4       1.0000 0.36560  0.19210  0.11360  Biso   1.000  O
  C4       1.0000 0.49450  0.42630  0.87640  Biso   1.000  C
  H5       1.0000 0.44770  0.39400  0.90370  Biso   1.000  H
  O5       1.0000 0.61990  0.45030  0.59640  Biso   1.000  O
  N5       1.0000 0.76200  0.28080  0.74120  Biso   1.000  N
  C5       1.0000 0.44320  0.39400  0.78350  Biso   1.000  C
  H6       1.0000 0.35880  0.34160  0.74920  Biso   1.000  H
  N6       1.0000 0.66180  0.28190  0.93640  Biso   1.000  N
  H7       1.0000 0.58550  0.23230  0.90360  Biso   1.000  H
  O6       1.0000 0.70710  0.33460  0.59240  Biso   1.000  O
  C6       1.0000 0.83600  0.70970  0.01740  Biso   1.000  C
  O7       1.0000 0.20640  0.36690  0.59010  Biso   1.000  O
  N7       1.0000 0.46190  0.31200  0.25800  Biso   1.000  N
  H8       1.0000 0.52830  0.36680  0.29190  Biso   1.000  H
  C7       1.0000 0.96530  0.79550  0.04430  Biso   1.000  C
  H9       1.0000 0.03420  0.77370  0.01800  Biso   1.000  H
  H10      1.0000 0.93410  0.83600  0.01810  Biso   1.000  H
  O8       1.0000 0.34990  0.50170  0.61120  Biso   1.000  O
  N8       1.0000 0.34240  0.30540  0.44480  Biso   1.000  N
  C8       1.0000 0.04060  0.85450  0.14580  Biso   1.000  C
  H11      1.0000 0.05690  0.81240  0.17400  Biso   1.000  H
  H12      1.0000 0.97830  0.88640  0.17090  Biso   1.000  H
  O9       1.0000 0.48820  0.13650  0.59870  Biso   1.000  O
  C9       1.0000 0.18390  0.92880  0.16970  Biso   1.000  C
  C10      1.0000 0.40980  0.03790  0.29990  Biso   1.000  C
  O10      1.0000 0.39180  0.24420  0.58640  Biso   1.000  O
  O11      1.0000 0.89180  0.21110  0.58700  Biso   1.000  O
  C11      1.0000 0.49100  0.07390  0.25550  Biso   1.000  C
  H13      1.0000 0.45710  0.05100  0.19230  Biso   1.000  H
  O12      1.0000 0.77230  0.09700  0.61050  Biso   1.000  O
  C12      1.0000 0.62420  0.14510  0.30910  Biso   1.000  C
  H14      1.0000 0.68120  0.17000  0.28140  Biso   1.000  H
  C13      1.0000 0.67200  0.17890  0.40120  Biso   1.000  C
  H15      1.0000 0.76090  0.22750  0.43520  Biso   1.000  H
  C14      1.0000 0.46780  0.07550  0.39400  Biso   1.000  C
  H16      1.0000 0.41440  0.05100  0.42360  Biso   1.000  H
  C15      1.0000 0.69200  0.26130  0.79420  Biso   1.000  C
  H17      1.0000 0.60170  0.21380  0.76650  Biso   1.000  H
  C16      1.0000 0.74840  0.30880  0.88850  Biso   1.000  C
  C17      1.0000 0.88560  0.37660  0.93130  Biso   1.000  C
  H18      1.0000 0.92720  0.40820  0.99460  Biso   1.000  H
  C18      1.0000 0.95860  0.39550  0.87580  Biso   1.000  C
  H19      1.0000 0.05050  0.44110  0.90180  Biso   1.000  H
  C19      1.0000 0.89440  0.34670  0.78210  Biso   1.000  C
  H20      1.0000 0.94490  0.36010  0.74600  Biso   1.000  H
  C20      1.0000 0.68290  0.32350  0.02630  Biso   1.000  C
  C21      1.0000 0.56400  0.27620  0.05230  Biso   1.000  C
  H21      1.0000 0.47310  0.27700  0.01740  Biso   1.000  H
  H22      1.0000 0.55710  0.20980  0.03390  Biso   1.000  H
  C22      1.0000 0.58100  0.31950  0.14970  Biso   1.000  C
  H23      1.0000 0.58670  0.38570  0.16860  Biso   1.000  H
  H24      1.0000 0.67130  0.31870  0.18520  Biso   1.000  H
  C23      1.0000 0.45840  0.26840  0.17090  Biso   1.000  C
  C24      1.0000 0.37120  0.27920  0.29970  Biso   1.000  C
  C25      1.0000 0.24070  0.20390  0.25420  Biso   1.000  C
  H25      1.0000 0.20520  0.17020  0.19090  Biso   1.000  H
  C26      1.0000 0.16450  0.18080  0.30770  Biso   1.000  C
  H26      1.0000 0.07720  0.13050  0.27970  Biso   1.000  H
  C27      1.0000 0.21730  0.23150  0.39970  Biso   1.000  C
  H27      1.0000 0.16470  0.21430  0.43330  Biso   1.000  H
  C28      1.0000 0.41680  0.32800  0.39410  Biso   1.000  C
  H28      1.0000 0.50320  0.37910  0.42410  Biso   1.000  H
  C29      1.0000 0.86570  0.47700  0.60800  Biso   1.000  C
  C30      1.0000 0.97760  0.43980  0.60560  Biso   1.000  C
  H29      1.0000 0.96440  0.37840  0.60080  Biso   1.000  H
  C31      1.0000 0.10980  0.49470  0.61040  Biso   1.000  C
  C32      1.0000 0.12970  0.58670  0.61910  Biso   1.000  C
  H30      1.0000 0.21820  0.62340  0.62280  Biso   1.000  H
  C33      1.0000 0.01910  0.62500  0.62220  Biso   1.000  C
  H31      1.0000 0.03330  0.68700  0.62840  Biso   1.000  H
  C34      1.0000 0.88660  0.56940  0.61590  Biso   1.000  C
  H32      1.0000 0.81140  0.59410  0.61690  Biso   1.000  H
  C35      1.0000 0.22790  0.45170  0.60440  Biso   1.000  C
  C36      1.0000 0.72010  0.41600  0.59860  Biso   1.000  C
  C37      1.0000 0.24170  0.03520  0.61790  Biso   1.000  C
  H33      1.0000 0.31900  0.01240  0.62090  Biso   1.000  H
  C38      1.0000 0.25250  0.11870  0.60610  Biso   1.000  C
  C39      1.0000 0.13760  0.15270  0.60310  Biso   1.000  C
  H34      1.0000 0.14380  0.20860  0.59610  Biso   1.000  H
  C40      1.0000 0.01120  0.10290  0.61050  Biso   1.000  C
  C41      1.0000 0.00290  0.02090  0.62090  Biso   1.000  C
  H35      1.0000 0.91910  0.98780  0.62530  Biso   1.000  H
  C42      1.0000 0.11840  0.98640  0.62500  Biso   1.000  C
  H36      1.0000 0.11210  0.93080  0.63250  Biso   1.000  H
  C43      1.0000 0.38670  0.17120  0.59610  Biso   1.000  C
  C44      1.0000 0.88570  0.13920  0.60240  Biso   1.000  C
  Co3      1.0000 0.57564  0.62343  0.40765  Biso   1.000  Co
  N9       1.0000 0.48960  0.56440  0.25980  Biso   1.000  N
  O13      1.0000 0.23360  0.29500  0.93270  Biso   1.000  O
  C45      1.0000 0.37330  0.48610  0.20820  Biso   1.000  C
  H37      1.0000 0.32640  0.45650  0.23740  Biso   1.000  H
  Co4      1.0000 0.32211  0.79396  0.40719  Biso   1.000  Co
  N10      1.0000 0.19650  0.36190  0.06720  Biso   1.000  N
  H38      1.0000 0.13650  0.35510  0.09500  Biso   1.000  H
  O14      1.0000 0.78550  0.04610  0.88620  Biso   1.000  O
  C46      1.0000 0.31850  0.44620  0.11370  Biso   1.000  C
  N11      1.0000 0.72640  0.03440  0.74310  Biso   1.000  N
  H39      1.0000 0.75630  0.05820  0.70950  Biso   1.000  H
  O15      1.0000 0.21200  0.60780  0.91830  Biso   1.000  O
  C47      1.0000 0.38410  0.49340  0.07040  Biso   1.000  C
  H40      1.0000 0.34720  0.47140  0.00740  Biso   1.000  H
  N12      1.0000 0.40410  0.85510  0.55460  Biso   1.000  N
  O16      1.0000 0.63440  0.80790  0.88640  Biso   1.000  O
  C48      1.0000 0.50550  0.57370  0.12360  Biso   1.000  C
  H41      1.0000 0.55230  0.60600  0.09630  Biso   1.000  H
  O17      1.0000 0.38010  0.54970  0.40360  Biso   1.000  O
  N13      1.0000 0.23800  0.71920  0.25880  Biso   1.000  N
  C49      1.0000 0.55680  0.60600  0.21650  Biso   1.000  C
  H42      1.0000 0.64120  0.65840  0.25080  Biso   1.000  H
  N14      1.0000 0.33820  0.71810  0.06360  Biso   1.000  N
  H43      1.0000 0.41450  0.76770  0.09640  Biso   1.000  H
  O18      1.0000 0.29290  0.66540  0.40760  Biso   1.000  O
  C50      1.0000 0.16400  0.29030  0.98260  Biso   1.000  C
  O19      1.0000 0.79360  0.63310  0.40990  Biso   1.000  O
  N15      1.0000 0.53810  0.68800  0.74200  Biso   1.000  N
  H44      1.0000 0.47170  0.63320  0.70810  Biso   1.000  H
  C51      1.0000 0.03470  0.20450  0.95570  Biso   1.000  C
  H45      1.0000 0.96580  0.22630  0.98200  Biso   1.000  H
  H46      1.0000 0.06590  0.16400  0.98190  Biso   1.000  H
  O20      1.0000 0.65010  0.49830  0.38880  Biso   1.000  O
  N16      1.0000 0.65760  0.69460  0.55520  Biso   1.000  N
  C52      1.0000 0.95940  0.14550  0.85420  Biso   1.000  C
  H47      1.0000 0.94310  0.18760  0.82600  Biso   1.000  H
  H48      1.0000 0.02170  0.11360  0.82910  Biso   1.000  H
  O21      1.0000 0.51180  0.86350  0.40130  Biso   1.000  O
  C53      1.0000 0.81610  0.07120  0.83030  Biso   1.000  C
  C54      1.0000 0.59020  0.96210  0.70010  Biso   1.000  C
  O22      1.0000 0.60820  0.75580  0.41360  Biso   1.000  O
  O23      1.0000 0.10820  0.78890  0.41300  Biso   1.000  O
  C55      1.0000 0.50900  0.92610  0.74450  Biso   1.000  C
  H49      1.0000 0.54290  0.94900  0.80770  Biso   1.000  H
  O24      1.0000 0.22770  0.90300  0.38950  Biso   1.000  O
  C56      1.0000 0.37580  0.85490  0.69090  Biso   1.000  C
  H50      1.0000 0.31880  0.83000  0.71860  Biso   1.000  H
  C57      1.0000 0.32800  0.82110  0.59880  Biso   1.000  C
  H51      1.0000 0.23910  0.77250  0.56480  Biso   1.000  H
  C58      1.0000 0.53220  0.92450  0.60600  Biso   1.000  C
  H52      1.0000 0.58560  0.94900  0.57640  Biso   1.000  H
  C59      1.0000 0.30800  0.73870  0.20580  Biso   1.000  C
  H53      1.0000 0.39830  0.78620  0.23350  Biso   1.000  H
  C60      1.0000 0.25160  0.69120  0.11150  Biso   1.000  C
  C61      1.0000 0.11440  0.62340  0.06870  Biso   1.000  C
  H54      1.0000 0.07280  0.59180  0.00540  Biso   1.000  H
  C62      1.0000 0.04140  0.60450  0.12420  Biso   1.000  C
  H55      1.0000 0.94950  0.55890  0.09820  Biso   1.000  H
  C63      1.0000 0.10560  0.65330  0.21790  Biso   1.000  C
  H56      1.0000 0.05510  0.63990  0.25400  Biso   1.000  H
  C64      1.0000 0.31710  0.67650  0.97370  Biso   1.000  C
  C65      1.0000 0.43600  0.72380  0.94770  Biso   1.000  C
  H57      1.0000 0.52690  0.72300  0.98260  Biso   1.000  H
  H58      1.0000 0.44290  0.79020  0.96610  Biso   1.000  H
  C66      1.0000 0.41900  0.68050  0.85030  Biso   1.000  C
  H59      1.0000 0.41330  0.61430  0.83140  Biso   1.000  H
  H60      1.0000 0.32870  0.68130  0.81480  Biso   1.000  H
  C67      1.0000 0.54160  0.73160  0.82910  Biso   1.000  C
  C68      1.0000 0.62880  0.72080  0.70030  Biso   1.000  C
  C69      1.0000 0.75930  0.79610  0.74580  Biso   1.000  C
  H61      1.0000 0.79480  0.82980  0.80910  Biso   1.000  H
  C70      1.0000 0.83550  0.81920  0.69230  Biso   1.000  C
  H62      1.0000 0.92280  0.86950  0.72030  Biso   1.000  H
  C71      1.0000 0.78270  0.76850  0.60030  Biso   1.000  C
  H63      1.0000 0.83530  0.78570  0.56670  Biso   1.000  H
  C72      1.0000 0.58320  0.67200  0.60590  Biso   1.000  C
  H64      1.0000 0.49680  0.62090  0.57590  Biso   1.000  H
  C73      1.0000 0.13430  0.52300  0.39200  Biso   1.000  C
  C74      1.0000 0.02240  0.56020  0.39440  Biso   1.000  C
  H65      1.0000 0.03560  0.62160  0.39920  Biso   1.000  H
  C75      1.0000 0.89020  0.50530  0.38960  Biso   1.000  C
  C76      1.0000 0.87030  0.41330  0.38090  Biso   1.000  C
  H66      1.0000 0.78180  0.37660  0.37720  Biso   1.000  H
  C77      1.0000 0.98090  0.37500  0.37780  Biso   1.000  C
  H67      1.0000 0.96670  0.31300  0.37160  Biso   1.000  H
  C78      1.0000 0.11340  0.43060  0.38410  Biso   1.000  C
  H68      1.0000 0.18860  0.40590  0.38310  Biso   1.000  H
  C79      1.0000 0.77210  0.54830  0.39560  Biso   1.000  C
  C80      1.0000 0.27990  0.58400  0.40140  Biso   1.000  C
  C81      1.0000 0.75830  0.96480  0.38210  Biso   1.000  C
  H69      1.0000 0.68100  0.98760  0.37910  Biso   1.000  H
  C82      1.0000 0.74750  0.88130  0.39390  Biso   1.000  C
  C83      1.0000 0.86240  0.84730  0.39690  Biso   1.000  C
  H70      1.0000 0.85620  0.79140  0.40390  Biso   1.000  H
  C84      1.0000 0.98880  0.89710  0.38950  Biso   1.000  C
  C85      1.0000 0.99710  0.97910  0.37910  Biso   1.000  C
  H71      1.0000 0.08090  0.01220  0.37470  Biso   1.000  H
  C86      1.0000 0.88160  0.01360  0.37500  Biso   1.000  C
  H72      1.0000 0.88790  0.06920  0.36750  Biso   1.000  H
  C87      1.0000 0.61330  0.82880  0.40390  Biso   1.000  C
  C88      1.0000 0.11430  0.86080  0.39760  Biso   1.000  C
