data_image0
_cell_length_a       18.224
_cell_length_b       18.239
_cell_length_c       20.808
_cell_angle_alpha    85.942
_cell_angle_beta     83.558
_cell_angle_gamma    63.398

_symmetry_space_group_name_H-M    "P 1"
_symmetry_int_tables_number       1

loop_
  _symmetry_equiv_pos_as_xyz
  'x, y, z'

loop_
  _atom_site_label
  _atom_site_occupancy
  _atom_site_fract_x
  _atom_site_fract_y
  _atom_site_fract_z
  _atom_site_thermal_displace_type
  _atom_site_B_iso_or_equiv
  _atom_site_type_symbol
  Cd1      1.0000 0.42341  0.17257  0.71522  Biso   1.000  Cd
  Cd2      1.0000 0.61851  0.58806  0.72310  Biso   1.000  Cd
  Cd3      1.0000 0.97308  0.21422  0.25908  Biso   1.000  Cd
  O1       1.0000 0.49010  0.02840  0.69300  Biso   1.000  O
  O2       1.0000 0.55800  0.07510  0.74630  Biso   1.000  O
  O3       1.0000 0.86440  0.89990  0.73970  Biso   1.000  O
  O4       1.0000 0.91910  0.77330  0.70570  Biso   1.000  O
  O5       1.0000 0.72630  0.65120  0.67000  Biso   1.000  O
  O6       1.0000 0.59780  0.71980  0.71140  Biso   1.000  O
  O7       1.0000 0.46300  0.28430  0.74830  Biso   1.000  O
  O8       1.0000 0.33530  0.31840  0.72820  Biso   1.000  O
  O9       1.0000 0.55330  0.50300  0.74720  Biso   1.000  O
  O10      1.0000 0.46580  0.63340  0.73420  Biso   1.000  O
  O11      1.0000 0.16300  0.70520  0.74960  Biso   1.000  O
  O12      1.0000 0.13170  0.61630  0.71060  Biso   1.000  O
  C1       1.0000 0.55410  0.01720  0.71790  Biso   1.000  C
  C2       1.0000 0.62550  0.93470  0.71480  Biso   1.000  C
  C3       1.0000 0.70470  0.92490  0.72150  Biso   1.000  C
  H1       1.0000 0.71190  0.97000  0.73140  Biso   1.000  H
  C4       1.0000 0.77290  0.84960  0.71360  Biso   1.000  C
  C5       1.0000 0.85740  0.84050  0.71900  Biso   1.000  C
  C6       1.0000 0.76110  0.78060  0.70070  Biso   1.000  C
  H2       1.0000 0.80620  0.72980  0.69370  Biso   1.000  H
  C7       1.0000 0.68160  0.78950  0.69870  Biso   1.000  C
  C8       1.0000 0.67000  0.71530  0.69120  Biso   1.000  C
  C9       1.0000 0.61430  0.86690  0.70430  Biso   1.000  C
  H3       1.0000 0.56150  0.87260  0.70100  Biso   1.000  H
  C10      1.0000 0.39110  0.33770  0.73990  Biso   1.000  C
  C11      1.0000 0.37060  0.42650  0.74080  Biso   1.000  C
  C12      1.0000 0.43130  0.45160  0.74330  Biso   1.000  C
  H4       1.0000 0.48550  0.41230  0.74620  Biso   1.000  H
  C13      1.0000 0.41320  0.53410  0.74170  Biso   1.000  C
  C14      1.0000 0.48020  0.55980  0.74090  Biso   1.000  C
  C15      1.0000 0.33100  0.59350  0.73920  Biso   1.000  C
  H5       1.0000 0.31800  0.64900  0.73900  Biso   1.000  H
  C16      1.0000 0.26940  0.56890  0.73720  Biso   1.000  C
  C17      1.0000 0.18250  0.63370  0.73330  Biso   1.000  C
  C18      1.0000 0.28900  0.48590  0.73740  Biso   1.000  C
  H6       1.0000 0.24760  0.46970  0.73520  Biso   1.000  H
  C19      1.0000 0.24380  0.25580  0.66330  Biso   1.000  C
  H7       1.0000 0.24890  0.30420  0.66340  Biso   1.000  H
  C20      1.0000 0.27050  0.12750  0.67170  Biso   1.000  C
  C21      1.0000 0.30610  0.04310  0.68070  Biso   1.000  C
  H8       1.0000 0.36080  0.01430  0.68990  Biso   1.000  H
  C22      1.0000 0.25930  0.00370  0.67590  Biso   1.000  C
  H9       1.0000 0.28220  0.94710  0.68240  Biso   1.000  H
  C23      1.0000 0.17640  0.04670  0.66120  Biso   1.000  C
  H10      1.0000 0.14550  0.01810  0.65900  Biso   1.000  H
  C24      1.0000 0.14080  0.13040  0.65030  Biso   1.000  C
  H11      1.0000 0.08670  0.15870  0.63950  Biso   1.000  H
  C25      1.0000 0.18870  0.17070  0.65590  Biso   1.000  C
  C26      1.0000 0.10070  0.32490  0.63670  Biso   1.000  C
  C27      1.0000 0.02470  0.32870  0.66120  Biso   1.000  C
  H12      1.0000 0.02070  0.28580  0.68570  Biso   1.000  H
  C28      1.0000 0.95550  0.39990  0.64730  Biso   1.000  C
  C29      1.0000 0.95960  0.46500  0.61340  Biso   1.000  C
  H13      1.0000 0.91150  0.51120  0.60460  Biso   1.000  H
  C30      1.0000 0.03570  0.46190  0.59210  Biso   1.000  C
  C31      1.0000 0.10600  0.39020  0.60190  Biso   1.000  C
  H14      1.0000 0.15720  0.38590  0.58510  Biso   1.000  H
  C32      1.0000 0.81200  0.47710  0.69250  Biso   1.000  C
  H15      1.0000 0.81460  0.52700  0.69010  Biso   1.000  H
  C33      1.0000 0.76890  0.38610  0.71060  Biso   1.000  C
  C34      1.0000 0.72270  0.34210  0.72910  Biso   1.000  C
  H16      1.0000 0.66920  0.36820  0.74850  Biso   1.000  H
  C35      1.0000 0.75880  0.26020  0.71760  Biso   1.000  C
  H17      1.0000 0.72970  0.23000  0.73040  Biso   1.000  H
  C36      1.0000 0.83870  0.22040  0.68700  Biso   1.000  C
  H18      1.0000 0.86060  0.16490  0.67840  Biso   1.000  H
  C37      1.0000 0.88540  0.26150  0.66960  Biso   1.000  C
  H19      1.0000 0.93870  0.23490  0.64970  Biso   1.000  H
  C38      1.0000 0.84950  0.34520  0.68280  Biso   1.000  C
  C39      1.0000 0.11530  0.53070  0.53520  Biso   1.000  C
  H20      1.0000 0.16580  0.48470  0.53760  Biso   1.000  H
  C40      1.0000 0.02560  0.65350  0.51830  Biso   1.000  C
  C41      1.0000 0.98650  0.73470  0.50190  Biso   1.000  C
  H21      1.0000 0.01630  0.76220  0.48330  Biso   1.000  H
  C42      1.0000 0.90270  0.77500  0.51320  Biso   1.000  C
  H22      1.0000 0.87500  0.83000  0.50110  Biso   1.000  H
  C43      1.0000 0.85810  0.73390  0.54290  Biso   1.000  C
  H23      1.0000 0.80120  0.76250  0.55080  Biso   1.000  H
  C44      1.0000 0.89740  0.65110  0.56070  Biso   1.000  C
  H24      1.0000 0.86770  0.62370  0.57990  Biso   1.000  H
  C45      1.0000 0.98170  0.61140  0.54880  Biso   1.000  C
  C46      1.0000 0.53290  0.23140  0.60960  Biso   1.000  C
  H25      1.0000 0.54200  0.25610  0.64350  Biso   1.000  H
  C47      1.0000 0.49100  0.16350  0.55480  Biso   1.000  C
  C48      1.0000 0.45420  0.11780  0.53360  Biso   1.000  C
  H26      1.0000 0.42250  0.09940  0.56190  Biso   1.000  H
  C49      1.0000 0.46750  0.10140  0.46770  Biso   1.000  C
  H27      1.0000 0.44400  0.07120  0.45180  Biso   1.000  H
  C50      1.0000 0.51510  0.12920  0.42490  Biso   1.000  C
  H28      1.0000 0.52220  0.11720  0.38130  Biso   1.000  H
  C51      1.0000 0.55210  0.17410  0.44550  Biso   1.000  C
  H29      1.0000 0.58360  0.19280  0.41710  Biso   1.000  H
  C52      1.0000 0.53930  0.18950  0.51080  Biso   1.000  C
  C53      1.0000 0.62100  0.26620  0.52810  Biso   1.000  C
  C54      1.0000 0.69460  0.21970  0.49260  Biso   1.000  C
  H30      1.0000 0.70660  0.16750  0.47960  Biso   1.000  H
  C55      1.0000 0.75070  0.25220  0.47640  Biso   1.000  C
  C56      1.0000 0.73360  0.32960  0.49500  Biso   1.000  C
  H31      1.0000 0.77220  0.35000  0.48540  Biso   1.000  H
  C57      1.0000 0.65840  0.37650  0.52810  Biso   1.000  C
  C58      1.0000 0.60080  0.34600  0.54460  Biso   1.000  C
  H32      1.0000 0.54980  0.37830  0.56620  Biso   1.000  H
  C59      1.0000 0.86370  0.23640  0.39280  Biso   1.000  C
  H33      1.0000 0.84350  0.29230  0.38330  Biso   1.000  H
  C60      1.0000 0.93940  0.10620  0.39020  Biso   1.000  C
  C61      1.0000 0.00080  0.02680  0.37820  Biso   1.000  C
  H34      1.0000 0.04400  0.01710  0.34630  Biso   1.000  H
  C62      1.0000 0.99560  0.96270  0.41510  Biso   1.000  C
  H35      1.0000 0.03520  0.90910  0.40750  Biso   1.000  H
  C63      1.0000 0.93140  0.97770  0.46360  Biso   1.000  C
  H36      1.0000 0.93010  0.93340  0.48790  Biso   1.000  H
  C64      1.0000 0.86990  0.05500  0.47730  Biso   1.000  C
  H37      1.0000 0.82750  0.06430  0.50980  Biso   1.000  H
  C65      1.0000 0.87560  0.11850  0.43880  Biso   1.000  C
  C66      1.0000 0.65960  0.78120  0.14050  Biso   1.000  C
  H38      1.0000 0.66260  0.72970  0.15140  Biso   1.000  H
  C67      1.0000 0.63160  0.91000  0.14580  Biso   1.000  C
  C68      1.0000 0.60210  0.99020  0.16390  Biso   1.000  C
  H39      1.0000 0.57500  0.00770  0.20450  Biso   1.000  H
  C69      1.0000 0.61480  0.04340  0.11840  Biso   1.000  C
  H40      1.0000 0.59720  0.09800  0.12810  Biso   1.000  H
  C70      1.0000 0.65600  0.01260  0.05510  Biso   1.000  C
  H41      1.0000 0.66380  0.04900  0.02460  Biso   1.000  H
  C71      1.0000 0.68290  0.93550  0.03890  Biso   1.000  C
  H42      1.0000 0.70860  0.91900  0.99770  Biso   1.000  H
  C72      1.0000 0.67280  0.87660  0.08440  Biso   1.000  C
  C73      1.0000 0.61890  0.48260  0.60900  Biso   1.000  C
  H43      1.0000 0.60710  0.45240  0.64290  Biso   1.000  H
  C74      1.0000 0.63800  0.57800  0.55460  Biso   1.000  C
  C75      1.0000 0.64410  0.64940  0.53350  Biso   1.000  C
  H44      1.0000 0.63430  0.69030  0.56220  Biso   1.000  H
  C76      1.0000 0.66510  0.65720  0.46850  Biso   1.000  C
  H45      1.0000 0.67060  0.70390  0.45320  Biso   1.000  H
  C77      1.0000 0.67840  0.59650  0.42530  Biso   1.000  C
  H46      1.0000 0.69220  0.60410  0.38180  Biso   1.000  H
  C78      1.0000 0.67180  0.52540  0.44470  Biso   1.000  C
  H47      1.0000 0.67930  0.48560  0.41570  Biso   1.000  H
  C79      1.0000 0.65340  0.51790  0.50980  Biso   1.000  C
  C80      1.0000 0.67400  0.64180  0.84850  Biso   1.000  C
  H48      1.0000 0.68910  0.67520  0.81990  Biso   1.000  H
  C81      1.0000 0.63130  0.55480  0.88660  Biso   1.000  C
  C82      1.0000 0.59980  0.49710  0.89560  Biso   1.000  C
  H49      1.0000 0.58210  0.48060  0.86150  Biso   1.000  H
  C83      1.0000 0.59640  0.46540  0.95930  Biso   1.000  C
  H50      1.0000 0.57630  0.42660  0.96750  Biso   1.000  H
  C84      1.0000 0.62150  0.49020  0.00800  Biso   1.000  C
  H51      1.0000 0.61810  0.46780  0.04910  Biso   1.000  H
  C85      1.0000 0.65150  0.54570  0.00040  Biso   1.000  C
  H52      1.0000 0.66830  0.56180  0.03520  Biso   1.000  H
  C86      1.0000 0.65620  0.57810  0.93890  Biso   1.000  C
  C87      1.0000 0.72450  0.67200  0.94370  Biso   1.000  C
  C88      1.0000 0.68780  0.71440  0.00080  Biso   1.000  C
  H53      1.0000 0.63780  0.71780  0.02010  Biso   1.000  H
  C89      1.0000 0.72880  0.75110  0.02740  Biso   1.000  C
  C90      1.0000 0.80400  0.74590  0.00050  Biso   1.000  C
  H54      1.0000 0.83080  0.77050  0.01970  Biso   1.000  H
  C91      1.0000 0.83810  0.70280  0.94370  Biso   1.000  C
  C92      1.0000 0.79890  0.66620  0.91400  Biso   1.000  C
  H55      1.0000 0.82170  0.63870  0.87540  Biso   1.000  H
  C93      1.0000 0.03570  0.03110  0.20370  Biso   1.000  C
  H56      1.0000 0.08940  0.02090  0.20940  Biso   1.000  H
  C94      1.0000 0.90410  0.09060  0.20230  Biso   1.000  C
  C95      1.0000 0.82090  0.14350  0.20820  Biso   1.000  C
  H57      1.0000 0.80080  0.19430  0.22730  Biso   1.000  H
  C96      1.0000 0.76890  0.11720  0.18450  Biso   1.000  C
  H58      1.0000 0.71260  0.15180  0.18660  Biso   1.000  H
  C97      1.0000 0.79900  0.04010  0.15740  Biso   1.000  C
  H59      1.0000 0.76180  0.02390  0.14360  Biso   1.000  H
  C98      1.0000 0.87980  0.98850  0.15070  Biso   1.000  C
  H60      1.0000 0.89950  0.93860  0.13050  Biso   1.000  H
  C99      1.0000 0.93260  0.01330  0.17550  Biso   1.000  C
  C100     1.0000 0.07350  0.89550  0.15540  Biso   1.000  C
  C101     1.0000 0.05240  0.83270  0.16780  Biso   1.000  C
  H61      1.0000 0.00420  0.84110  0.19340  Biso   1.000  H
  C102     1.0000 0.10300  0.75630  0.14240  Biso   1.000  C
  C103     1.0000 0.17660  0.74360  0.10550  Biso   1.000  C
  H62      1.0000 0.21060  0.69280  0.08750  Biso   1.000  H
  C104     1.0000 0.19780  0.80680  0.09610  Biso   1.000  C
  C105     1.0000 0.14780  0.88380  0.11890  Biso   1.000  C
  H63      1.0000 0.16230  0.92660  0.11060  Biso   1.000  H
  C106     1.0000 0.13800  0.60910  0.16010  Biso   1.000  C
  H64      1.0000 0.19480  0.59080  0.15450  Biso   1.000  H
  C107     1.0000 0.01850  0.61100  0.17690  Biso   1.000  C
  C108     1.0000 0.95320  0.59030  0.19010  Biso   1.000  C
  H65      1.0000 0.96260  0.53600  0.19760  Biso   1.000  H
  C109     1.0000 0.87340  0.65360  0.19180  Biso   1.000  C
  H66      1.0000 0.82870  0.64170  0.20100  Biso   1.000  H
  C110     1.0000 0.86000  0.73380  0.17980  Biso   1.000  C
  H67      1.0000 0.80600  0.77470  0.18110  Biso   1.000  H
  C111     1.0000 0.92360  0.75570  0.16610  Biso   1.000  C
  H68      1.0000 0.91350  0.81010  0.15780  Biso   1.000  H
  C112     1.0000 0.00400  0.69240  0.16540  Biso   1.000  C
  C113     1.0000 0.33380  0.81050  0.08000  Biso   1.000  C
  H69      1.0000 0.32690  0.83790  0.11790  Biso   1.000  H
  C114     1.0000 0.38210  0.75540  0.98820  Biso   1.000  C
  C115     1.0000 0.43010  0.72420  0.93050  Biso   1.000  C
  H70      1.0000 0.48190  0.72280  0.92160  Biso   1.000  H
  C116     1.0000 0.39900  0.69710  0.88940  Biso   1.000  C
  H71      1.0000 0.43050  0.67410  0.85120  Biso   1.000  H
  C117     1.0000 0.32170  0.70160  0.90090  Biso   1.000  C
  H72      1.0000 0.30160  0.68410  0.86910  Biso   1.000  H
  C118     1.0000 0.27250  0.73080  0.95720  Biso   1.000  C
  H73      1.0000 0.22110  0.73110  0.96560  Biso   1.000  H
  C119     1.0000 0.30500  0.75910  0.99950  Biso   1.000  C
  C120     1.0000 0.91950  0.73690  0.85490  Biso   1.000  C
  H74      1.0000 0.87580  0.76350  0.82930  Biso   1.000  H
  C121     1.0000 0.03920  0.68780  0.88870  Biso   1.000  C
  C122     1.0000 0.12170  0.66070  0.89740  Biso   1.000  C
  H75      1.0000 0.15690  0.67110  0.86630  Biso   1.000  H
  C123     1.0000 0.14950  0.61830  0.95330  Biso   1.000  C
  H76      1.0000 0.20420  0.60140  0.96080  Biso   1.000  H
  C124     1.0000 0.09870  0.59960  0.99910  Biso   1.000  C
  H77      1.0000 0.12110  0.56880  0.03560  Biso   1.000  H
  C125     1.0000 0.01710  0.62470  0.99270  Biso   1.000  C
  H78      1.0000 0.98290  0.61300  0.02390  Biso   1.000  H
  C126     1.0000 0.98870  0.66890  0.93620  Biso   1.000  C
  N1       1.0000 0.30370  0.18350  0.67600  Biso   1.000  N
  N2       1.0000 0.17380  0.25350  0.64990  Biso   1.000  N
  N3       1.0000 0.74590  0.46930  0.71630  Biso   1.000  N
  N4       1.0000 0.87610  0.40600  0.67170  Biso   1.000  N
  N5       1.0000 0.10930  0.60100  0.50960  Biso   1.000  N
  N6       1.0000 0.04260  0.53010  0.55800  Biso   1.000  N
  N7       1.0000 0.48780  0.19020  0.61760  Biso   1.000  N
  N8       1.0000 0.56440  0.23410  0.54820  Biso   1.000  N
  N9       1.0000 0.93020  0.18080  0.36230  Biso   1.000  N
  N10      1.0000 0.82680  0.20450  0.44010  Biso   1.000  N
  N11      1.0000 0.62530  0.84230  0.18060  Biso   1.000  N
  N12      1.0000 0.69040  0.79790  0.08220  Biso   1.000  N
  N13      1.0000 0.61640  0.55450  0.61620  Biso   1.000  N
  N14      1.0000 0.64030  0.45680  0.54700  Biso   1.000  N
  N15      1.0000 0.64130  0.59700  0.83110  Biso   1.000  N
  N16      1.0000 0.68410  0.63530  0.91230  Biso   1.000  N
  N17      1.0000 0.97210  0.10010  0.21950  Biso   1.000  N
  N18      1.0000 0.01730  0.97550  0.17840  Biso   1.000  N
  N19      1.0000 0.10360  0.55950  0.17430  Biso   1.000  N
  N20      1.0000 0.08290  0.69040  0.15430  Biso   1.000  N
  N21      1.0000 0.40090  0.78520  0.04250  Biso   1.000  N
  N22      1.0000 0.27370  0.79460  0.06090  Biso   1.000  N
  N23      1.0000 0.99480  0.73050  0.83790  Biso   1.000  N
  N24      1.0000 0.91260  0.70110  0.91260  Biso   1.000  N
  Cd4      1.0000 0.57659  0.82743  0.28478  Biso   1.000  Cd
  Cd5      1.0000 0.38149  0.41194  0.27690  Biso   1.000  Cd
  Cd6      1.0000 0.02692  0.78578  0.74092  Biso   1.000  Cd
  O13      1.0000 0.50990  0.97160  0.30700  Biso   1.000  O
  O14      1.0000 0.44200  0.92490  0.25370  Biso   1.000  O
  O15      1.0000 0.13560  0.10010  0.26030  Biso   1.000  O
  O16      1.0000 0.08090  0.22670  0.29430  Biso   1.000  O
  O17      1.0000 0.27370  0.34880  0.33000  Biso   1.000  O
  O18      1.0000 0.40220  0.28020  0.28860  Biso   1.000  O
  O19      1.0000 0.53700  0.71570  0.25170  Biso   1.000  O
  O20      1.0000 0.66470  0.68160  0.27180  Biso   1.000  O
  O21      1.0000 0.44670  0.49700  0.25280  Biso   1.000  O
  O22      1.0000 0.53420  0.36660  0.26580  Biso   1.000  O
  O23      1.0000 0.83700  0.29480  0.25040  Biso   1.000  O
  O24      1.0000 0.86830  0.38370  0.28940  Biso   1.000  O
  C127     1.0000 0.44590  0.98280  0.28210  Biso   1.000  C
  C128     1.0000 0.37450  0.06530  0.28520  Biso   1.000  C
  C129     1.0000 0.29530  0.07510  0.27850  Biso   1.000  C
  H79      1.0000 0.28810  0.03000  0.26860  Biso   1.000  H
  C130     1.0000 0.22710  0.15040  0.28640  Biso   1.000  C
  C131     1.0000 0.14260  0.15950  0.28100  Biso   1.000  C
  C132     1.0000 0.23890  0.21940  0.29930  Biso   1.000  C
  H80      1.0000 0.19380  0.27020  0.30630  Biso   1.000  H
  C133     1.0000 0.31840  0.21050  0.30130  Biso   1.000  C
  C134     1.0000 0.33000  0.28470  0.30880  Biso   1.000  C
  C135     1.0000 0.38570  0.13310  0.29570  Biso   1.000  C
  H81      1.0000 0.43850  0.12740  0.29900  Biso   1.000  H
  C136     1.0000 0.60890  0.66230  0.26010  Biso   1.000  C
  C137     1.0000 0.62940  0.57350  0.25920  Biso   1.000  C
  C138     1.0000 0.56870  0.54840  0.25670  Biso   1.000  C
  H82      1.0000 0.51450  0.58770  0.25380  Biso   1.000  H
  C139     1.0000 0.58680  0.46590  0.25830  Biso   1.000  C
  C140     1.0000 0.51980  0.44020  0.25910  Biso   1.000  C
  C141     1.0000 0.66900  0.40650  0.26080  Biso   1.000  C
  H83      1.0000 0.68200  0.35100  0.26100  Biso   1.000  H
  C142     1.0000 0.73060  0.43110  0.26280  Biso   1.000  C
  C143     1.0000 0.81750  0.36630  0.26670  Biso   1.000  C
  C144     1.0000 0.71100  0.51410  0.26260  Biso   1.000  C
  H84      1.0000 0.75240  0.53030  0.26480  Biso   1.000  H
  C145     1.0000 0.75620  0.74420  0.33670  Biso   1.000  C
  H85      1.0000 0.75110  0.69580  0.33660  Biso   1.000  H
  C146     1.0000 0.72950  0.87250  0.32830  Biso   1.000  C
  C147     1.0000 0.69390  0.95690  0.31930  Biso   1.000  C
  H86      1.0000 0.63920  0.98570  0.31010  Biso   1.000  H
  C148     1.0000 0.74070  0.99630  0.32410  Biso   1.000  C
  H87      1.0000 0.71780  0.05290  0.31760  Biso   1.000  H
  C149     1.0000 0.82360  0.95330  0.33880  Biso   1.000  C
  H88      1.0000 0.85450  0.98190  0.34100  Biso   1.000  H
  C150     1.0000 0.85920  0.86960  0.34970  Biso   1.000  C
  H89      1.0000 0.91330  0.84130  0.36050  Biso   1.000  H
  C151     1.0000 0.81130  0.82930  0.34410  Biso   1.000  C
  C152     1.0000 0.89930  0.67510  0.36330  Biso   1.000  C
  C153     1.0000 0.97530  0.67130  0.33880  Biso   1.000  C
  H90      1.0000 0.97930  0.71420  0.31430  Biso   1.000  H
  C154     1.0000 0.04450  0.60010  0.35270  Biso   1.000  C
  C155     1.0000 0.04040  0.53500  0.38660  Biso   1.000  C
  H91      1.0000 0.08850  0.48880  0.39540  Biso   1.000  H
  C156     1.0000 0.96430  0.53810  0.40790  Biso   1.000  C
  C157     1.0000 0.89400  0.60980  0.39810  Biso   1.000  C
  H92      1.0000 0.84280  0.61410  0.41490  Biso   1.000  H
  C158     1.0000 0.18800  0.52290  0.30750  Biso   1.000  C
  H93      1.0000 0.18540  0.47300  0.30990  Biso   1.000  H
  C159     1.0000 0.23110  0.61390  0.28940  Biso   1.000  C
  C160     1.0000 0.27730  0.65790  0.27090  Biso   1.000  C
  H94      1.0000 0.33080  0.63180  0.25150  Biso   1.000  H
  C161     1.0000 0.24120  0.73980  0.28240  Biso   1.000  C
  H95      1.0000 0.27030  0.77000  0.26960  Biso   1.000  H
  C162     1.0000 0.16130  0.77960  0.31300  Biso   1.000  C
  H96      1.0000 0.13940  0.83510  0.32160  Biso   1.000  H
  C163     1.0000 0.11460  0.73850  0.33040  Biso   1.000  C
  H97      1.0000 0.06130  0.76510  0.35030  Biso   1.000  H
  C164     1.0000 0.15050  0.65480  0.31720  Biso   1.000  C
  C165     1.0000 0.88470  0.46930  0.46480  Biso   1.000  C
  H98      1.0000 0.83420  0.51530  0.46240  Biso   1.000  H
  C166     1.0000 0.97440  0.34650  0.48170  Biso   1.000  C
  C167     1.0000 0.01350  0.26530  0.49810  Biso   1.000  C
  H99      1.0000 0.98370  0.23780  0.51670  Biso   1.000  H
  C168     1.0000 0.09730  0.22500  0.48680  Biso   1.000  C
  H100     1.0000 0.12500  0.17000  0.49890  Biso   1.000  H
  C169     1.0000 0.14190  0.26610  0.45710  Biso   1.000  C
  H101     1.0000 0.19880  0.23750  0.44920  Biso   1.000  H
  C170     1.0000 0.10260  0.34890  0.43930  Biso   1.000  C
  H102     1.0000 0.13230  0.37630  0.42010  Biso   1.000  H
  C171     1.0000 0.01830  0.38860  0.45120  Biso   1.000  C
  C172     1.0000 0.46710  0.76860  0.39040  Biso   1.000  C
  H103     1.0000 0.45800  0.74390  0.35650  Biso   1.000  H
  C173     1.0000 0.50900  0.83650  0.44520  Biso   1.000  C
  C174     1.0000 0.54580  0.88220  0.46640  Biso   1.000  C
  H104     1.0000 0.57750  0.90060  0.43810  Biso   1.000  H
  C175     1.0000 0.53250  0.89860  0.53230  Biso   1.000  C
  H105     1.0000 0.55600  0.92880  0.54820  Biso   1.000  H
  C176     1.0000 0.48490  0.87080  0.57510  Biso   1.000  C
  H106     1.0000 0.47780  0.88280  0.61870  Biso   1.000  H
  C177     1.0000 0.44790  0.82590  0.55450  Biso   1.000  C
  H107     1.0000 0.41640  0.80720  0.58290  Biso   1.000  H
  C178     1.0000 0.46070  0.81050  0.48920  Biso   1.000  C
  C179     1.0000 0.37900  0.73380  0.47190  Biso   1.000  C
  C180     1.0000 0.30540  0.78030  0.50740  Biso   1.000  C
  H108     1.0000 0.29340  0.83250  0.52040  Biso   1.000  H
  C181     1.0000 0.24930  0.74780  0.52360  Biso   1.000  C
  C182     1.0000 0.26640  0.67040  0.50500  Biso   1.000  C
  H109     1.0000 0.22780  0.65000  0.51460  Biso   1.000  H
  C183     1.0000 0.34160  0.62350  0.47190  Biso   1.000  C
  C184     1.0000 0.39920  0.65400  0.45540  Biso   1.000  C
  H110     1.0000 0.45020  0.62170  0.43380  Biso   1.000  H
  C185     1.0000 0.13630  0.76360  0.60720  Biso   1.000  C
  H111     1.0000 0.15650  0.70770  0.61670  Biso   1.000  H
  C186     1.0000 0.06060  0.89380  0.60980  Biso   1.000  C
  C187     1.0000 0.99920  0.97320  0.62180  Biso   1.000  C
  H112     1.0000 0.95600  0.98290  0.65370  Biso   1.000  H
  C188     1.0000 0.00440  0.03730  0.58490  Biso   1.000  C
  H113     1.0000 0.96480  0.09090  0.59250  Biso   1.000  H
  C189     1.0000 0.06860  0.02230  0.53640  Biso   1.000  C
  H114     1.0000 0.06990  0.06660  0.51210  Biso   1.000  H
  C190     1.0000 0.13010  0.94500  0.52270  Biso   1.000  C
  H115     1.0000 0.17250  0.93570  0.49020  Biso   1.000  H
  C191     1.0000 0.12440  0.88150  0.56120  Biso   1.000  C
  C192     1.0000 0.34040  0.21880  0.85950  Biso   1.000  C
  H116     1.0000 0.33740  0.27030  0.84860  Biso   1.000  H
  C193     1.0000 0.36840  0.09000  0.85420  Biso   1.000  C
  C194     1.0000 0.39790  0.00980  0.83610  Biso   1.000  C
  H117     1.0000 0.42500  0.99230  0.79550  Biso   1.000  H
  C195     1.0000 0.38520  0.95660  0.88160  Biso   1.000  C
  H118     1.0000 0.40280  0.90200  0.87190  Biso   1.000  H
  C196     1.0000 0.34400  0.98740  0.94490  Biso   1.000  C
  H119     1.0000 0.33620  0.95100  0.97540  Biso   1.000  H
  C197     1.0000 0.31710  0.06450  0.96110  Biso   1.000  C
  H120     1.0000 0.29140  0.08100  0.00230  Biso   1.000  H
  C198     1.0000 0.32720  0.12340  0.91560  Biso   1.000  C
  C199     1.0000 0.38110  0.51740  0.39100  Biso   1.000  C
  H121     1.0000 0.39290  0.54760  0.35710  Biso   1.000  H
  C200     1.0000 0.36200  0.42200  0.44540  Biso   1.000  C
  C201     1.0000 0.35590  0.35060  0.46650  Biso   1.000  C
  H122     1.0000 0.36570  0.30970  0.43780  Biso   1.000  H
  C202     1.0000 0.33490  0.34280  0.53150  Biso   1.000  C
  H123     1.0000 0.32940  0.29610  0.54680  Biso   1.000  H
  C203     1.0000 0.32160  0.40350  0.57470  Biso   1.000  C
  H124     1.0000 0.30780  0.39590  0.61820  Biso   1.000  H
  C204     1.0000 0.32820  0.47460  0.55530  Biso   1.000  C
  H125     1.0000 0.32070  0.51440  0.58430  Biso   1.000  H
  C205     1.0000 0.34660  0.48210  0.49020  Biso   1.000  C
  C206     1.0000 0.32600  0.35820  0.15150  Biso   1.000  C
  H126     1.0000 0.31090  0.32480  0.18010  Biso   1.000  H
  C207     1.0000 0.36870  0.44520  0.11340  Biso   1.000  C
  C208     1.0000 0.40020  0.50290  0.10440  Biso   1.000  C
  H127     1.0000 0.41790  0.51940  0.13850  Biso   1.000  H
  C209     1.0000 0.40360  0.53460  0.04070  Biso   1.000  C
  H128     1.0000 0.42370  0.57340  0.03250  Biso   1.000  H
  C210     1.0000 0.37850  0.50980  0.99200  Biso   1.000  C
  H129     1.0000 0.38190  0.53220  0.95090  Biso   1.000  H
  C211     1.0000 0.34850  0.45430  0.99960  Biso   1.000  C
  H130     1.0000 0.33170  0.43820  0.96480  Biso   1.000  H
  C212     1.0000 0.34380  0.42190  0.06110  Biso   1.000  C
  C213     1.0000 0.27550  0.32800  0.05630  Biso   1.000  C
  C214     1.0000 0.31220  0.28560  0.99920  Biso   1.000  C
  H131     1.0000 0.36220  0.28220  0.97990  Biso   1.000  H
  C215     1.0000 0.27120  0.24890  0.97260  Biso   1.000  C
  C216     1.0000 0.19600  0.25410  0.99950  Biso   1.000  C
  H132     1.0000 0.16920  0.22950  0.98030  Biso   1.000  H
  C217     1.0000 0.16190  0.29720  0.05630  Biso   1.000  C
  C218     1.0000 0.20110  0.33380  0.08600  Biso   1.000  C
  H133     1.0000 0.17830  0.36130  0.12460  Biso   1.000  H
  C219     1.0000 0.96430  0.96890  0.79630  Biso   1.000  C
  H134     1.0000 0.91060  0.97910  0.79060  Biso   1.000  H
  C220     1.0000 0.09590  0.90940  0.79770  Biso   1.000  C
  C221     1.0000 0.17910  0.85650  0.79180  Biso   1.000  C
  H135     1.0000 0.19920  0.80570  0.77270  Biso   1.000  H
  C222     1.0000 0.23110  0.88280  0.81550  Biso   1.000  C
  H136     1.0000 0.28740  0.84820  0.81340  Biso   1.000  H
  C223     1.0000 0.20100  0.95990  0.84260  Biso   1.000  C
  H137     1.0000 0.23820  0.97610  0.85640  Biso   1.000  H
  C224     1.0000 0.12020  0.01150  0.84930  Biso   1.000  C
  H138     1.0000 0.10050  0.06140  0.86950  Biso   1.000  H
  C225     1.0000 0.06740  0.98670  0.82450  Biso   1.000  C
  C226     1.0000 0.92650  0.10450  0.84460  Biso   1.000  C
  C227     1.0000 0.94760  0.16730  0.83220  Biso   1.000  C
  H139     1.0000 0.99580  0.15890  0.80660  Biso   1.000  H
  C228     1.0000 0.89700  0.24370  0.85760  Biso   1.000  C
  C229     1.0000 0.82340  0.25640  0.89450  Biso   1.000  C
  H140     1.0000 0.78940  0.30720  0.91250  Biso   1.000  H
  C230     1.0000 0.80220  0.19320  0.90390  Biso   1.000  C
  C231     1.0000 0.85220  0.11620  0.88110  Biso   1.000  C
  H141     1.0000 0.83770  0.07340  0.88940  Biso   1.000  H
  C232     1.0000 0.86200  0.39090  0.83990  Biso   1.000  C
  H142     1.0000 0.80520  0.40920  0.84550  Biso   1.000  H
  C233     1.0000 0.98150  0.38900  0.82310  Biso   1.000  C
  C234     1.0000 0.04680  0.40970  0.80990  Biso   1.000  C
  H143     1.0000 0.03740  0.46400  0.80240  Biso   1.000  H
  C235     1.0000 0.12660  0.34640  0.80820  Biso   1.000  C
  H144     1.0000 0.17130  0.35830  0.79900  Biso   1.000  H
  C236     1.0000 0.14000  0.26620  0.82020  Biso   1.000  C
  H145     1.0000 0.19400  0.22530  0.81890  Biso   1.000  H
  C237     1.0000 0.07640  0.24430  0.83390  Biso   1.000  C
  H146     1.0000 0.08650  0.18990  0.84220  Biso   1.000  H
  C238     1.0000 0.99600  0.30760  0.83460  Biso   1.000  C
  C239     1.0000 0.66620  0.18950  0.92000  Biso   1.000  C
  H147     1.0000 0.67310  0.16210  0.88210  Biso   1.000  H
  C240     1.0000 0.61790  0.24460  0.01180  Biso   1.000  C
  C241     1.0000 0.56990  0.27580  0.06950  Biso   1.000  C
  H148     1.0000 0.51810  0.27720  0.07840  Biso   1.000  H
  C242     1.0000 0.60100  0.30290  0.11060  Biso   1.000  C
  H149     1.0000 0.56950  0.32590  0.14880  Biso   1.000  H
  C243     1.0000 0.67830  0.29840  0.09910  Biso   1.000  C
  H150     1.0000 0.69840  0.31590  0.13090  Biso   1.000  H
  C244     1.0000 0.72750  0.26920  0.04280  Biso   1.000  C
  H151     1.0000 0.77890  0.26890  0.03440  Biso   1.000  H
  C245     1.0000 0.69500  0.24090  0.00050  Biso   1.000  C
  C246     1.0000 0.08050  0.26310  0.14510  Biso   1.000  C
  H152     1.0000 0.12420  0.23650  0.17070  Biso   1.000  H
  C247     1.0000 0.96080  0.31220  0.11130  Biso   1.000  C
  C248     1.0000 0.87830  0.33930  0.10260  Biso   1.000  C
  H153     1.0000 0.84310  0.32890  0.13370  Biso   1.000  H
  C249     1.0000 0.85050  0.38170  0.04670  Biso   1.000  C
  H154     1.0000 0.79580  0.39860  0.03920  Biso   1.000  H
  C250     1.0000 0.90130  0.40040  0.00090  Biso   1.000  C
  H155     1.0000 0.87890  0.43120  0.96440  Biso   1.000  H
  C251     1.0000 0.98290  0.37530  0.00730  Biso   1.000  C
  H156     1.0000 0.01710  0.38700  0.97610  Biso   1.000  H
  C252     1.0000 0.01130  0.33110  0.06380  Biso   1.000  C
  N25      1.0000 0.69630  0.81650  0.32400  Biso   1.000  N
  N26      1.0000 0.82620  0.74650  0.35010  Biso   1.000  N
  N27      1.0000 0.25410  0.53070  0.28370  Biso   1.000  N
  N28      1.0000 0.12390  0.59400  0.32830  Biso   1.000  N
  N29      1.0000 0.89070  0.39900  0.49040  Biso   1.000  N
  N30      1.0000 0.95740  0.46990  0.44200  Biso   1.000  N
  N31      1.0000 0.51220  0.80980  0.38240  Biso   1.000  N
  N32      1.0000 0.43560  0.76590  0.45180  Biso   1.000  N
  N33      1.0000 0.06980  0.81920  0.63770  Biso   1.000  N
  N34      1.0000 0.17320  0.79550  0.55990  Biso   1.000  N
  N35      1.0000 0.37470  0.15770  0.81940  Biso   1.000  N
  N36      1.0000 0.30960  0.20210  0.91780  Biso   1.000  N
  N37      1.0000 0.38360  0.44550  0.38380  Biso   1.000  N
  N38      1.0000 0.35970  0.54320  0.45300  Biso   1.000  N
  N39      1.0000 0.35870  0.40300  0.16890  Biso   1.000  N
  N40      1.0000 0.31590  0.36470  0.08770  Biso   1.000  N
  N41      1.0000 0.02790  0.89990  0.78050  Biso   1.000  N
  N42      1.0000 0.98270  0.02450  0.82160  Biso   1.000  N
  N43      1.0000 0.89640  0.44050  0.82570  Biso   1.000  N
  N44      1.0000 0.91710  0.30960  0.84570  Biso   1.000  N
  N45      1.0000 0.59910  0.21480  0.95750  Biso   1.000  N
  N46      1.0000 0.72630  0.20540  0.93910  Biso   1.000  N
  N47      1.0000 0.00520  0.26950  0.16210  Biso   1.000  N
  N48      1.0000 0.08740  0.29890  0.08740  Biso   1.000  N
