data_VORBUA_clean
_audit_creation_date              2014-07-02
_audit_creation_method            'Materials Studio'
_symmetry_space_group_name_H-M    'P1'
_symmetry_Int_Tables_number       1
_symmetry_cell_setting            triclinic
loop_
_symmetry_equiv_pos_as_xyz
  x,y,z
_cell_length_a                    9.0380
_cell_length_b                    9.0380
_cell_length_c                    14.9034
_cell_angle_alpha                 105.9720
_cell_angle_beta                  105.9730
_cell_angle_gamma                 95.3063
loop_
_atom_site_label
_atom_site_type_symbol
_atom_site_fract_x
_atom_site_fract_y
_atom_site_fract_z
_atom_site_U_iso_or_equiv
_atom_site_adp_type
_atom_site_occupancy
La1    La    0.25386   0.50386   0.00772   0.01267  Uiso   1.00
La2    La    0.49614   0.74614   0.49228   0.01267  Uiso   1.00
La3    La    0.74614   0.49614   0.99228   0.01267  Uiso   1.00
La4    La    0.50386   0.25386   0.50772   0.01267  Uiso   1.00
H1     H     0.61930   0.01690   0.15020   0.01267  Uiso   1.00
H2     H     0.74170   0.90790   0.12500   0.01267  Uiso   1.00
H3     H     0.63950   0.97290   0.04320   0.01267  Uiso   1.00
H4     H     0.03090   0.13330   0.15020   0.01267  Uiso   1.00
H5     H     0.88330   0.21710   0.12500   0.01267  Uiso   1.00
H6     H     0.90370   0.07030   0.04320   0.01267  Uiso   1.00
H7     H     0.98310   0.38070   0.34980   0.01267  Uiso   1.00
H8     H     0.09210   0.25830   0.37500   0.01267  Uiso   1.00
H9     H     0.02710   0.36050   0.45680   0.01267  Uiso   1.00
H10    H     0.86670   0.96910   0.34980   0.01267  Uiso   1.00
H11    H     0.78290   0.11670   0.37500   0.01267  Uiso   1.00
H12    H     0.92970   0.09630   0.45680   0.01267  Uiso   1.00
H13    H     0.38070   0.98310   0.84980   0.01267  Uiso   1.00
H14    H     0.25830   0.09210   0.87500   0.01267  Uiso   1.00
H15    H     0.36050   0.02710   0.95680   0.01267  Uiso   1.00
H16    H     0.96910   0.86670   0.84980   0.01267  Uiso   1.00
H17    H     0.11670   0.78290   0.87500   0.01267  Uiso   1.00
H18    H     0.09630   0.92970   0.95680   0.01267  Uiso   1.00
H19    H     0.01690   0.61930   0.65020   0.01267  Uiso   1.00
H20    H     0.90790   0.74170   0.62500   0.01267  Uiso   1.00
H21    H     0.97290   0.63950   0.54320   0.01267  Uiso   1.00
H22    H     0.13330   0.03090   0.65020   0.01267  Uiso   1.00
H23    H     0.21710   0.88330   0.62500   0.01267  Uiso   1.00
H24    H     0.07030   0.90370   0.54320   0.01267  Uiso   1.00
C1     C     0.51449   0.79269   0.06478   0.01267  Uiso   1.00
C2     C     0.63954   0.93494   0.09868   0.01267  Uiso   1.00
C3     C     0.05029   0.27209   0.06478   0.01267  Uiso   1.00
C4     C     0.95914   0.16374   0.09868   0.01267  Uiso   1.00
C5     C     0.20731   0.48551   0.43522   0.01267  Uiso   1.00
C6     C     0.06506   0.36046   0.40132   0.01267  Uiso   1.00
C7     C     0.72791   0.94971   0.43522   0.01267  Uiso   1.00
C8     C     0.83626   0.04086   0.40132   0.01267  Uiso   1.00
C9     C     0.48551   0.20731   0.93522   0.01267  Uiso   1.00
C10    C     0.36046   0.06506   0.90132   0.01267  Uiso   1.00
C11    C     0.94971   0.72791   0.93522   0.01267  Uiso   1.00
C12    C     0.04086   0.83626   0.90132   0.01267  Uiso   1.00
C13    C     0.79269   0.51449   0.56478   0.01267  Uiso   1.00
C14    C     0.93494   0.63954   0.59868   0.01267  Uiso   1.00
C15    C     0.27209   0.05029   0.56478   0.01267  Uiso   1.00
C16    C     0.16374   0.95914   0.59868   0.01267  Uiso   1.00
C17    C     0.31740   0.68260   0.25000   0.01267  Uiso   1.00
C18    C     0.43260   0.56740   0.25000   0.01267  Uiso   1.00
C19    C     0.68260   0.31740   0.75000   0.01267  Uiso   1.00
C20    C     0.56740   0.43260   0.75000   0.01267  Uiso   1.00
O1     O     0.37675   0.80599   0.06514   0.01267  Uiso   1.00
O2     O     0.54729   0.65775   0.03484   0.01267  Uiso   1.00
O3     O     0.21962   0.66802   0.16864   0.01267  Uiso   1.00
O4     O     0.18839   0.25915   0.06514   0.01267  Uiso   1.00
O5     O     0.98755   0.37709   0.03484   0.01267  Uiso   1.00
O6     O     0.44902   0.50062   0.16864   0.01267  Uiso   1.00
O7     O     0.19401   0.62325   0.43486   0.01267  Uiso   1.00
O8     O     0.34225   0.45271   0.46516   0.01267  Uiso   1.00
O9     O     0.33198   0.78038   0.33136   0.01267  Uiso   1.00
O10    O     0.74085   0.81161   0.43486   0.01267  Uiso   1.00
O11    O     0.62291   0.01245   0.46516   0.01267  Uiso   1.00
O12    O     0.49938   0.55098   0.33136   0.01267  Uiso   1.00
O13    O     0.62325   0.19401   0.93486   0.01267  Uiso   1.00
O14    O     0.45271   0.34225   0.96516   0.01267  Uiso   1.00
O15    O     0.78038   0.33198   0.83136   0.01267  Uiso   1.00
O16    O     0.81161   0.74085   0.93486   0.01267  Uiso   1.00
O17    O     0.01245   0.62291   0.96516   0.01267  Uiso   1.00
O18    O     0.55098   0.49938   0.83136   0.01267  Uiso   1.00
O19    O     0.80599   0.37675   0.56514   0.01267  Uiso   1.00
O20    O     0.65775   0.54729   0.53484   0.01267  Uiso   1.00
O21    O     0.66802   0.21962   0.66864   0.01267  Uiso   1.00
O22    O     0.25915   0.18839   0.56514   0.01267  Uiso   1.00
O23    O     0.37709   0.98755   0.53484   0.01267  Uiso   1.00
O24    O     0.50062   0.44902   0.66864   0.01267  Uiso   1.00
