data_image0
_cell_length_a       20.7677
_cell_length_b       11.7553
_cell_length_c       28.509
_cell_angle_alpha    90
_cell_angle_beta     90
_cell_angle_gamma    90

_symmetry_space_group_name_H-M    "P 1"
_symmetry_int_tables_number       1

loop_
  _symmetry_equiv_pos_as_xyz
  'x, y, z'

loop_
  _atom_site_label
  _atom_site_occupancy
  _atom_site_fract_x
  _atom_site_fract_y
  _atom_site_fract_z
  _atom_site_thermal_displace_type
  _atom_site_B_iso_or_equiv
  _atom_site_type_symbol
  C1       1.0000 0.73777  0.67835  0.82101  Biso   1.000  C
  H1       1.0000 0.71820  0.74450  0.81020  Biso   1.000  H
  C2       1.0000 0.70597  0.60903  0.85276  Biso   1.000  C
  H2       1.0000 0.66500  0.62830  0.86330  Biso   1.000  H
  C3       1.0000 0.73579  0.51023  0.86881  Biso   1.000  C
  C4       1.0000 0.79719  0.48154  0.85312  Biso   1.000  C
  H3       1.0000 0.81700  0.41570  0.86400  Biso   1.000  H
  C5       1.0000 0.82863  0.55058  0.82142  Biso   1.000  C
  H4       1.0000 0.86960  0.53130  0.81090  Biso   1.000  H
  C6       1.0000 0.69676  0.44175  0.90351  Biso   1.000  C
  C7       1.0000 0.72211  0.41671  0.94750  Biso   1.000  C
  H5       1.0000 0.76290  0.44250  0.95570  Biso   1.000  H
  C8       1.0000 0.68652  0.35341  0.97903  Biso   1.000  C
  H6       1.0000 0.70330  0.33650  0.00850  Biso   1.000  H
  C9       1.0000 0.62522  0.31479  0.96659  Biso   1.000  C
  C10      1.0000 0.59991  0.34013  0.92255  Biso   1.000  C
  H7       1.0000 0.55890  0.31500  0.91440  Biso   1.000  H
  C11      1.0000 0.63577  0.40261  0.89104  Biso   1.000  C
  H8       1.0000 0.61930  0.41860  0.86140  Biso   1.000  H
  C12      1.0000 0.48408  0.15674  0.98213  Biso   1.000  C
  H9       1.0000 0.50640  0.09550  0.96940  Biso   1.000  H
  C13      1.0000 0.41704  0.15589  0.98347  Biso   1.000  C
  H10      1.0000 0.39460  0.09200  0.97330  Biso   1.000  H
  C14      1.0000 0.27817  0.27053  0.04129  Biso   1.000  C
  H11      1.0000 0.30060  0.28390  0.06900  Biso   1.000  H
  H12      1.0000 0.18880  0.28570  0.06880  Biso   1.000  H
  C15      1.0000 0.21127  0.27110  0.04137  Biso   1.000  C
  C16      1.0000 0.07328  0.17748  0.96536  Biso   1.000  C
  C17      1.0000 0.01847  0.21945  0.94280  Biso   1.000  C
  H13      1.0000 0.00420  0.29310  0.94860  Biso   1.000  H
  C18      1.0000 0.98618  0.15063  0.91206  Biso   1.000  C
  H14      1.0000 0.95010  0.17880  0.89670  Biso   1.000  H
  C19      1.0000 0.00584  0.04007  0.90327  Biso   1.000  C
  C20      1.0000 0.06024  0.99857  0.92563  Biso   1.000  C
  H15      1.0000 0.07420  0.92470  0.91980  Biso   1.000  H
  C21      1.0000 0.09398  0.06745  0.95682  Biso   1.000  C
  H16      1.0000 0.13040  0.03960  0.97190  Biso   1.000  H
  C22      1.0000 0.87956  0.93505  0.81830  Biso   1.000  C
  H17      1.0000 0.84020  0.96070  0.80680  Biso   1.000  H
  C23      1.0000 0.91334  0.99648  0.85246  Biso   1.000  C
  H18      1.0000 0.89510  0.06310  0.86400  Biso   1.000  H
  C24      1.0000 0.97172  0.96335  0.86965  Biso   1.000  C
  C25      1.0000 0.99739  0.86496  0.85272  Biso   1.000  C
  H19      1.0000 0.03740  0.84150  0.86380  Biso   1.000  H
  C26      1.0000 0.96599  0.79806  0.81950  Biso   1.000  C
  H20      1.0000 0.98420  0.73030  0.80910  Biso   1.000  H
  N1       1.0000 0.79894  0.64903  0.80530  Biso   1.000  N
  N2       1.0000 0.90687  0.83436  0.80210  Biso   1.000  N
  C27      1.0000 0.73777  0.82165  0.17899  Biso   1.000  C
  H21      1.0000 0.71820  0.75550  0.18980  Biso   1.000  H
  C28      1.0000 0.70597  0.89097  0.14724  Biso   1.000  C
  H22      1.0000 0.66500  0.87170  0.13670  Biso   1.000  H
  C29      1.0000 0.73579  0.98977  0.13119  Biso   1.000  C
  C30      1.0000 0.79719  0.01846  0.14688  Biso   1.000  C
  H23      1.0000 0.81700  0.08430  0.13600  Biso   1.000  H
  C31      1.0000 0.82863  0.94942  0.17858  Biso   1.000  C
  H24      1.0000 0.86960  0.96870  0.18910  Biso   1.000  H
  C32      1.0000 0.69676  0.05825  0.09649  Biso   1.000  C
  C33      1.0000 0.72211  0.08329  0.05250  Biso   1.000  C
  H25      1.0000 0.76290  0.05750  0.04430  Biso   1.000  H
  C34      1.0000 0.68652  0.14659  0.02097  Biso   1.000  C
  H26      1.0000 0.70330  0.16350  0.99150  Biso   1.000  H
  C35      1.0000 0.62522  0.18521  0.03341  Biso   1.000  C
  C36      1.0000 0.59991  0.15987  0.07745  Biso   1.000  C
  H27      1.0000 0.55890  0.18500  0.08560  Biso   1.000  H
  C37      1.0000 0.63577  0.09739  0.10896  Biso   1.000  C
  H28      1.0000 0.61930  0.08140  0.13860  Biso   1.000  H
  C38      1.0000 0.48408  0.34326  0.01787  Biso   1.000  C
  H29      1.0000 0.50640  0.40450  0.03060  Biso   1.000  H
  C39      1.0000 0.41704  0.34411  0.01653  Biso   1.000  C
  H30      1.0000 0.39460  0.40800  0.02670  Biso   1.000  H
  C40      1.0000 0.27817  0.22947  0.95871  Biso   1.000  C
  H31      1.0000 0.30060  0.21610  0.93100  Biso   1.000  H
  H32      1.0000 0.18880  0.21430  0.93120  Biso   1.000  H
  C41      1.0000 0.21127  0.22890  0.95863  Biso   1.000  C
  C42      1.0000 0.07328  0.32252  0.03464  Biso   1.000  C
  C43      1.0000 0.01847  0.28055  0.05720  Biso   1.000  C
  H33      1.0000 0.00420  0.20690  0.05140  Biso   1.000  H
  C44      1.0000 0.98618  0.34937  0.08794  Biso   1.000  C
  H34      1.0000 0.95010  0.32120  0.10330  Biso   1.000  H
  C45      1.0000 0.00584  0.45993  0.09673  Biso   1.000  C
  C46      1.0000 0.06024  0.50143  0.07437  Biso   1.000  C
  H35      1.0000 0.07420  0.57530  0.08020  Biso   1.000  H
  C47      1.0000 0.09398  0.43255  0.04318  Biso   1.000  C
  H36      1.0000 0.13040  0.46040  0.02810  Biso   1.000  H
  C48      1.0000 0.87956  0.56495  0.18170  Biso   1.000  C
  H37      1.0000 0.84020  0.53930  0.19320  Biso   1.000  H
  C49      1.0000 0.91334  0.50352  0.14754  Biso   1.000  C
  H38      1.0000 0.89510  0.43690  0.13600  Biso   1.000  H
  C50      1.0000 0.97172  0.53665  0.13035  Biso   1.000  C
  C51      1.0000 0.99739  0.63504  0.14728  Biso   1.000  C
  H39      1.0000 0.03740  0.65850  0.13620  Biso   1.000  H
  C52      1.0000 0.96599  0.70194  0.18050  Biso   1.000  C
  H40      1.0000 0.98420  0.76970  0.19090  Biso   1.000  H
  N3       1.0000 0.79894  0.85097  0.19470  Biso   1.000  N
  N4       1.0000 0.90687  0.66564  0.19790  Biso   1.000  N
  C53      1.0000 0.73777  0.67835  0.67899  Biso   1.000  C
  H41      1.0000 0.71820  0.74450  0.68980  Biso   1.000  H
  C54      1.0000 0.70597  0.60903  0.64724  Biso   1.000  C
  H42      1.0000 0.66500  0.62830  0.63670  Biso   1.000  H
  C55      1.0000 0.73579  0.51023  0.63119  Biso   1.000  C
  C56      1.0000 0.79719  0.48154  0.64688  Biso   1.000  C
  H43      1.0000 0.81700  0.41570  0.63600  Biso   1.000  H
  C57      1.0000 0.82863  0.55058  0.67858  Biso   1.000  C
  H44      1.0000 0.86960  0.53130  0.68910  Biso   1.000  H
  C58      1.0000 0.69676  0.44175  0.59649  Biso   1.000  C
  C59      1.0000 0.72211  0.41671  0.55250  Biso   1.000  C
  H45      1.0000 0.76290  0.44250  0.54430  Biso   1.000  H
  C60      1.0000 0.68652  0.35341  0.52097  Biso   1.000  C
  H46      1.0000 0.70330  0.33650  0.49150  Biso   1.000  H
  C61      1.0000 0.62522  0.31479  0.53341  Biso   1.000  C
  C62      1.0000 0.59991  0.34013  0.57745  Biso   1.000  C
  H47      1.0000 0.55890  0.31500  0.58560  Biso   1.000  H
  C63      1.0000 0.63577  0.40261  0.60896  Biso   1.000  C
  H48      1.0000 0.61930  0.41860  0.63860  Biso   1.000  H
  C64      1.0000 0.48408  0.15674  0.51787  Biso   1.000  C
  H49      1.0000 0.50640  0.09550  0.53060  Biso   1.000  H
  C65      1.0000 0.41704  0.15589  0.51653  Biso   1.000  C
  H50      1.0000 0.39460  0.09200  0.52670  Biso   1.000  H
  C66      1.0000 0.27817  0.27053  0.45871  Biso   1.000  C
  H51      1.0000 0.30060  0.28390  0.43100  Biso   1.000  H
  H52      1.0000 0.18880  0.28570  0.43120  Biso   1.000  H
  C67      1.0000 0.21127  0.27110  0.45863  Biso   1.000  C
  C68      1.0000 0.07328  0.17748  0.53464  Biso   1.000  C
  C69      1.0000 0.01847  0.21945  0.55720  Biso   1.000  C
  H53      1.0000 0.00420  0.29310  0.55140  Biso   1.000  H
  C70      1.0000 0.98618  0.15063  0.58794  Biso   1.000  C
  H54      1.0000 0.95010  0.17880  0.60330  Biso   1.000  H
  C71      1.0000 0.00584  0.04007  0.59673  Biso   1.000  C
  C72      1.0000 0.06024  0.99857  0.57437  Biso   1.000  C
  H55      1.0000 0.07420  0.92470  0.58020  Biso   1.000  H
  C73      1.0000 0.09398  0.06745  0.54318  Biso   1.000  C
  H56      1.0000 0.13040  0.03960  0.52810  Biso   1.000  H
  C74      1.0000 0.87956  0.93505  0.68170  Biso   1.000  C
  H57      1.0000 0.84020  0.96070  0.69320  Biso   1.000  H
  C75      1.0000 0.91334  0.99648  0.64754  Biso   1.000  C
  H58      1.0000 0.89510  0.06310  0.63600  Biso   1.000  H
  C76      1.0000 0.97172  0.96335  0.63035  Biso   1.000  C
  C77      1.0000 0.99739  0.86496  0.64728  Biso   1.000  C
  H59      1.0000 0.03740  0.84150  0.63620  Biso   1.000  H
  C78      1.0000 0.96599  0.79806  0.68050  Biso   1.000  C
  H60      1.0000 0.98420  0.73030  0.69090  Biso   1.000  H
  N5       1.0000 0.79894  0.64903  0.69470  Biso   1.000  N
  N6       1.0000 0.90687  0.83436  0.69790  Biso   1.000  N
  C79      1.0000 0.73777  0.82165  0.32101  Biso   1.000  C
  H61      1.0000 0.71820  0.75550  0.31020  Biso   1.000  H
  C80      1.0000 0.70597  0.89097  0.35276  Biso   1.000  C
  H62      1.0000 0.66500  0.87170  0.36330  Biso   1.000  H
  C81      1.0000 0.73579  0.98977  0.36881  Biso   1.000  C
  C82      1.0000 0.79719  0.01846  0.35312  Biso   1.000  C
  H63      1.0000 0.81700  0.08430  0.36400  Biso   1.000  H
  C83      1.0000 0.82863  0.94942  0.32142  Biso   1.000  C
  H64      1.0000 0.86960  0.96870  0.31090  Biso   1.000  H
  C84      1.0000 0.69676  0.05825  0.40351  Biso   1.000  C
  C85      1.0000 0.72211  0.08329  0.44750  Biso   1.000  C
  H65      1.0000 0.76290  0.05750  0.45570  Biso   1.000  H
  C86      1.0000 0.68652  0.14659  0.47903  Biso   1.000  C
  H66      1.0000 0.70330  0.16350  0.50850  Biso   1.000  H
  C87      1.0000 0.62522  0.18521  0.46659  Biso   1.000  C
  C88      1.0000 0.59991  0.15987  0.42255  Biso   1.000  C
  H67      1.0000 0.55890  0.18500  0.41440  Biso   1.000  H
  C89      1.0000 0.63577  0.09739  0.39104  Biso   1.000  C
  H68      1.0000 0.61930  0.08140  0.36140  Biso   1.000  H
  C90      1.0000 0.48408  0.34326  0.48213  Biso   1.000  C
  H69      1.0000 0.50640  0.40450  0.46940  Biso   1.000  H
  C91      1.0000 0.41704  0.34411  0.48347  Biso   1.000  C
  H70      1.0000 0.39460  0.40800  0.47330  Biso   1.000  H
  C92      1.0000 0.27817  0.22947  0.54129  Biso   1.000  C
  H71      1.0000 0.30060  0.21610  0.56900  Biso   1.000  H
  H72      1.0000 0.18880  0.21430  0.56880  Biso   1.000  H
  C93      1.0000 0.21127  0.22890  0.54137  Biso   1.000  C
  C94      1.0000 0.07328  0.32252  0.46536  Biso   1.000  C
  C95      1.0000 0.01847  0.28055  0.44280  Biso   1.000  C
  H73      1.0000 0.00420  0.20690  0.44860  Biso   1.000  H
  C96      1.0000 0.98618  0.34937  0.41206  Biso   1.000  C
  H74      1.0000 0.95010  0.32120  0.39670  Biso   1.000  H
  C97      1.0000 0.00584  0.45993  0.40327  Biso   1.000  C
  C98      1.0000 0.06024  0.50143  0.42563  Biso   1.000  C
  H75      1.0000 0.07420  0.57530  0.41980  Biso   1.000  H
  C99      1.0000 0.09398  0.43255  0.45682  Biso   1.000  C
  H76      1.0000 0.13040  0.46040  0.47190  Biso   1.000  H
  C100     1.0000 0.87956  0.56495  0.31830  Biso   1.000  C
  H77      1.0000 0.84020  0.53930  0.30680  Biso   1.000  H
  C101     1.0000 0.91334  0.50352  0.35246  Biso   1.000  C
  H78      1.0000 0.89510  0.43690  0.36400  Biso   1.000  H
  C102     1.0000 0.97172  0.53665  0.36965  Biso   1.000  C
  C103     1.0000 0.99739  0.63504  0.35272  Biso   1.000  C
  H79      1.0000 0.03740  0.65850  0.36380  Biso   1.000  H
  C104     1.0000 0.96599  0.70194  0.31950  Biso   1.000  C
  H80      1.0000 0.98420  0.76970  0.30910  Biso   1.000  H
  N7       1.0000 0.79894  0.85097  0.30530  Biso   1.000  N
  N8       1.0000 0.90687  0.66564  0.30210  Biso   1.000  N
  C105     1.0000 0.51745  0.25000  0.00000  Biso   1.000  C
  C106     1.0000 0.38345  0.25000  0.00000  Biso   1.000  C
  C107     1.0000 0.31170  0.25000  0.00000  Biso   1.000  C
  C108     1.0000 0.17756  0.25000  0.00000  Biso   1.000  C
  N9       1.0000 0.58873  0.25000  0.00000  Biso   1.000  N
  N10      1.0000 0.10831  0.25000  0.00000  Biso   1.000  N
  C109     1.0000 0.51745  0.25000  0.50000  Biso   1.000  C
  C110     1.0000 0.38345  0.25000  0.50000  Biso   1.000  C
  C111     1.0000 0.31170  0.25000  0.50000  Biso   1.000  C
  C112     1.0000 0.17756  0.25000  0.50000  Biso   1.000  C
  N11      1.0000 0.58873  0.25000  0.50000  Biso   1.000  N
  N12      1.0000 0.10831  0.25000  0.50000  Biso   1.000  N
  Co1      1.0000 0.84807  0.74539  0.75000  Biso   1.000  Co
  Co2      1.0000 0.84807  0.75461  0.25000  Biso   1.000  Co
  C113     1.0000 0.26223  0.32165  0.32101  Biso   1.000  C
  H81      1.0000 0.28180  0.25550  0.31020  Biso   1.000  H
  C114     1.0000 0.29403  0.39097  0.35276  Biso   1.000  C
  H82      1.0000 0.33500  0.37170  0.36330  Biso   1.000  H
  C115     1.0000 0.26421  0.48977  0.36881  Biso   1.000  C
  C116     1.0000 0.20281  0.51846  0.35312  Biso   1.000  C
  H83      1.0000 0.18300  0.58430  0.36400  Biso   1.000  H
  C117     1.0000 0.17137  0.44942  0.32142  Biso   1.000  C
  H84      1.0000 0.13040  0.46870  0.31090  Biso   1.000  H
  C118     1.0000 0.30324  0.55825  0.40351  Biso   1.000  C
  C119     1.0000 0.27789  0.58329  0.44750  Biso   1.000  C
  H85      1.0000 0.23710  0.55750  0.45570  Biso   1.000  H
  C120     1.0000 0.31348  0.64659  0.47903  Biso   1.000  C
  H86      1.0000 0.29670  0.66350  0.50850  Biso   1.000  H
  C121     1.0000 0.37478  0.68521  0.46659  Biso   1.000  C
  C122     1.0000 0.40009  0.65987  0.42255  Biso   1.000  C
  H87      1.0000 0.44110  0.68500  0.41440  Biso   1.000  H
  C123     1.0000 0.36423  0.59739  0.39104  Biso   1.000  C
  H88      1.0000 0.38070  0.58140  0.36140  Biso   1.000  H
  C124     1.0000 0.51592  0.84326  0.48213  Biso   1.000  C
  H89      1.0000 0.49360  0.90450  0.46940  Biso   1.000  H
  C125     1.0000 0.58296  0.84411  0.48347  Biso   1.000  C
  H90      1.0000 0.60540  0.90800  0.47330  Biso   1.000  H
  C126     1.0000 0.72183  0.72947  0.54129  Biso   1.000  C
  H91      1.0000 0.69940  0.71610  0.56900  Biso   1.000  H
  H92      1.0000 0.81120  0.71430  0.56880  Biso   1.000  H
  C127     1.0000 0.78873  0.72890  0.54137  Biso   1.000  C
  C128     1.0000 0.92672  0.82252  0.46536  Biso   1.000  C
  C129     1.0000 0.98153  0.78055  0.44280  Biso   1.000  C
  H93      1.0000 0.99580  0.70690  0.44860  Biso   1.000  H
  C130     1.0000 0.01382  0.84937  0.41206  Biso   1.000  C
  H94      1.0000 0.04990  0.82120  0.39670  Biso   1.000  H
  C131     1.0000 0.99416  0.95993  0.40327  Biso   1.000  C
  C132     1.0000 0.93976  0.00143  0.42563  Biso   1.000  C
  H95      1.0000 0.92580  0.07530  0.41980  Biso   1.000  H
  C133     1.0000 0.90602  0.93255  0.45682  Biso   1.000  C
  H96      1.0000 0.86960  0.96040  0.47190  Biso   1.000  H
  C134     1.0000 0.12044  0.06495  0.31830  Biso   1.000  C
  H97      1.0000 0.15980  0.03930  0.30680  Biso   1.000  H
  C135     1.0000 0.08666  0.00352  0.35246  Biso   1.000  C
  H98      1.0000 0.10490  0.93690  0.36400  Biso   1.000  H
  C136     1.0000 0.02828  0.03665  0.36965  Biso   1.000  C
  C137     1.0000 0.00261  0.13504  0.35272  Biso   1.000  C
  H99      1.0000 0.96260  0.15850  0.36380  Biso   1.000  H
  C138     1.0000 0.03401  0.20194  0.31950  Biso   1.000  C
  H100     1.0000 0.01580  0.26970  0.30910  Biso   1.000  H
  N13      1.0000 0.20106  0.35097  0.30530  Biso   1.000  N
  N14      1.0000 0.09313  0.16564  0.30210  Biso   1.000  N
  C139     1.0000 0.26223  0.17835  0.67899  Biso   1.000  C
  H101     1.0000 0.28180  0.24450  0.68980  Biso   1.000  H
  C140     1.0000 0.29403  0.10903  0.64724  Biso   1.000  C
  H102     1.0000 0.33500  0.12830  0.63670  Biso   1.000  H
  C141     1.0000 0.26421  0.01023  0.63119  Biso   1.000  C
  C142     1.0000 0.20281  0.98154  0.64688  Biso   1.000  C
  H103     1.0000 0.18300  0.91570  0.63600  Biso   1.000  H
  C143     1.0000 0.17137  0.05058  0.67858  Biso   1.000  C
  H104     1.0000 0.13040  0.03130  0.68910  Biso   1.000  H
  C144     1.0000 0.30324  0.94175  0.59649  Biso   1.000  C
  C145     1.0000 0.27789  0.91671  0.55250  Biso   1.000  C
  H105     1.0000 0.23710  0.94250  0.54430  Biso   1.000  H
  C146     1.0000 0.31348  0.85341  0.52097  Biso   1.000  C
  H106     1.0000 0.29670  0.83650  0.49150  Biso   1.000  H
  C147     1.0000 0.37478  0.81479  0.53341  Biso   1.000  C
  C148     1.0000 0.40009  0.84013  0.57745  Biso   1.000  C
  H107     1.0000 0.44110  0.81500  0.58560  Biso   1.000  H
  C149     1.0000 0.36423  0.90261  0.60896  Biso   1.000  C
  H108     1.0000 0.38070  0.91860  0.63860  Biso   1.000  H
  C150     1.0000 0.51592  0.65674  0.51787  Biso   1.000  C
  H109     1.0000 0.49360  0.59550  0.53060  Biso   1.000  H
  C151     1.0000 0.58296  0.65589  0.51653  Biso   1.000  C
  H110     1.0000 0.60540  0.59200  0.52670  Biso   1.000  H
  C152     1.0000 0.72183  0.77053  0.45871  Biso   1.000  C
  H111     1.0000 0.69940  0.78390  0.43100  Biso   1.000  H
  H112     1.0000 0.81120  0.78570  0.43120  Biso   1.000  H
  C153     1.0000 0.78873  0.77110  0.45863  Biso   1.000  C
  C154     1.0000 0.92672  0.67748  0.53464  Biso   1.000  C
  C155     1.0000 0.98153  0.71945  0.55720  Biso   1.000  C
  H113     1.0000 0.99580  0.79310  0.55140  Biso   1.000  H
  C156     1.0000 0.01382  0.65063  0.58794  Biso   1.000  C
  H114     1.0000 0.04990  0.67880  0.60330  Biso   1.000  H
  C157     1.0000 0.99416  0.54007  0.59673  Biso   1.000  C
  C158     1.0000 0.93976  0.49857  0.57437  Biso   1.000  C
  H115     1.0000 0.92580  0.42470  0.58020  Biso   1.000  H
  C159     1.0000 0.90602  0.56745  0.54318  Biso   1.000  C
  H116     1.0000 0.86960  0.53960  0.52810  Biso   1.000  H
  C160     1.0000 0.12044  0.43505  0.68170  Biso   1.000  C
  H117     1.0000 0.15980  0.46070  0.69320  Biso   1.000  H
  C161     1.0000 0.08666  0.49648  0.64754  Biso   1.000  C
  H118     1.0000 0.10490  0.56310  0.63600  Biso   1.000  H
  C162     1.0000 0.02828  0.46335  0.63035  Biso   1.000  C
  C163     1.0000 0.00261  0.36496  0.64728  Biso   1.000  C
  H119     1.0000 0.96260  0.34150  0.63620  Biso   1.000  H
  C164     1.0000 0.03401  0.29806  0.68050  Biso   1.000  C
  H120     1.0000 0.01580  0.23030  0.69090  Biso   1.000  H
  N15      1.0000 0.20106  0.14903  0.69470  Biso   1.000  N
  N16      1.0000 0.09313  0.33436  0.69790  Biso   1.000  N
  C165     1.0000 0.26223  0.32165  0.17899  Biso   1.000  C
  H121     1.0000 0.28180  0.25550  0.18980  Biso   1.000  H
  C166     1.0000 0.29403  0.39097  0.14724  Biso   1.000  C
  H122     1.0000 0.33500  0.37170  0.13670  Biso   1.000  H
  C167     1.0000 0.26421  0.48977  0.13119  Biso   1.000  C
  C168     1.0000 0.20281  0.51846  0.14688  Biso   1.000  C
  H123     1.0000 0.18300  0.58430  0.13600  Biso   1.000  H
  C169     1.0000 0.17137  0.44942  0.17858  Biso   1.000  C
  H124     1.0000 0.13040  0.46870  0.18910  Biso   1.000  H
  C170     1.0000 0.30324  0.55825  0.09649  Biso   1.000  C
  C171     1.0000 0.27789  0.58329  0.05250  Biso   1.000  C
  H125     1.0000 0.23710  0.55750  0.04430  Biso   1.000  H
  C172     1.0000 0.31348  0.64659  0.02097  Biso   1.000  C
  H126     1.0000 0.29670  0.66350  0.99150  Biso   1.000  H
  C173     1.0000 0.37478  0.68521  0.03341  Biso   1.000  C
  C174     1.0000 0.40009  0.65987  0.07745  Biso   1.000  C
  H127     1.0000 0.44110  0.68500  0.08560  Biso   1.000  H
  C175     1.0000 0.36423  0.59739  0.10896  Biso   1.000  C
  H128     1.0000 0.38070  0.58140  0.13860  Biso   1.000  H
  C176     1.0000 0.51592  0.84326  0.01787  Biso   1.000  C
  H129     1.0000 0.49360  0.90450  0.03060  Biso   1.000  H
  C177     1.0000 0.58296  0.84411  0.01653  Biso   1.000  C
  H130     1.0000 0.60540  0.90800  0.02670  Biso   1.000  H
  C178     1.0000 0.72183  0.72947  0.95871  Biso   1.000  C
  H131     1.0000 0.69940  0.71610  0.93100  Biso   1.000  H
  H132     1.0000 0.81120  0.71430  0.93120  Biso   1.000  H
  C179     1.0000 0.78873  0.72890  0.95863  Biso   1.000  C
  C180     1.0000 0.92672  0.82252  0.03464  Biso   1.000  C
  C181     1.0000 0.98153  0.78055  0.05720  Biso   1.000  C
  H133     1.0000 0.99580  0.70690  0.05140  Biso   1.000  H
  C182     1.0000 0.01382  0.84937  0.08794  Biso   1.000  C
  H134     1.0000 0.04990  0.82120  0.10330  Biso   1.000  H
  C183     1.0000 0.99416  0.95993  0.09673  Biso   1.000  C
  C184     1.0000 0.93976  0.00143  0.07437  Biso   1.000  C
  H135     1.0000 0.92580  0.07530  0.08020  Biso   1.000  H
  C185     1.0000 0.90602  0.93255  0.04318  Biso   1.000  C
  H136     1.0000 0.86960  0.96040  0.02810  Biso   1.000  H
  C186     1.0000 0.12044  0.06495  0.18170  Biso   1.000  C
  H137     1.0000 0.15980  0.03930  0.19320  Biso   1.000  H
  C187     1.0000 0.08666  0.00352  0.14754  Biso   1.000  C
  H138     1.0000 0.10490  0.93690  0.13600  Biso   1.000  H
  C188     1.0000 0.02828  0.03665  0.13035  Biso   1.000  C
  C189     1.0000 0.00261  0.13504  0.14728  Biso   1.000  C
  H139     1.0000 0.96260  0.15850  0.13620  Biso   1.000  H
  C190     1.0000 0.03401  0.20194  0.18050  Biso   1.000  C
  H140     1.0000 0.01580  0.26970  0.19090  Biso   1.000  H
  N17      1.0000 0.20106  0.35097  0.19470  Biso   1.000  N
  N18      1.0000 0.09313  0.16564  0.19790  Biso   1.000  N
  C191     1.0000 0.26223  0.17835  0.82101  Biso   1.000  C
  H141     1.0000 0.28180  0.24450  0.81020  Biso   1.000  H
  C192     1.0000 0.29403  0.10903  0.85276  Biso   1.000  C
  H142     1.0000 0.33500  0.12830  0.86330  Biso   1.000  H
  C193     1.0000 0.26421  0.01023  0.86881  Biso   1.000  C
  C194     1.0000 0.20281  0.98154  0.85312  Biso   1.000  C
  H143     1.0000 0.18300  0.91570  0.86400  Biso   1.000  H
  C195     1.0000 0.17137  0.05058  0.82142  Biso   1.000  C
  H144     1.0000 0.13040  0.03130  0.81090  Biso   1.000  H
  C196     1.0000 0.30324  0.94175  0.90351  Biso   1.000  C
  C197     1.0000 0.27789  0.91671  0.94750  Biso   1.000  C
  H145     1.0000 0.23710  0.94250  0.95570  Biso   1.000  H
  C198     1.0000 0.31348  0.85341  0.97903  Biso   1.000  C
  H146     1.0000 0.29670  0.83650  0.00850  Biso   1.000  H
  C199     1.0000 0.37478  0.81479  0.96659  Biso   1.000  C
  C200     1.0000 0.40009  0.84013  0.92255  Biso   1.000  C
  H147     1.0000 0.44110  0.81500  0.91440  Biso   1.000  H
  C201     1.0000 0.36423  0.90261  0.89104  Biso   1.000  C
  H148     1.0000 0.38070  0.91860  0.86140  Biso   1.000  H
  C202     1.0000 0.51592  0.65674  0.98213  Biso   1.000  C
  H149     1.0000 0.49360  0.59550  0.96940  Biso   1.000  H
  C203     1.0000 0.58296  0.65589  0.98347  Biso   1.000  C
  H150     1.0000 0.60540  0.59200  0.97330  Biso   1.000  H
  C204     1.0000 0.72183  0.77053  0.04129  Biso   1.000  C
  H151     1.0000 0.69940  0.78390  0.06900  Biso   1.000  H
  H152     1.0000 0.81120  0.78570  0.06880  Biso   1.000  H
  C205     1.0000 0.78873  0.77110  0.04137  Biso   1.000  C
  C206     1.0000 0.92672  0.67748  0.96536  Biso   1.000  C
  C207     1.0000 0.98153  0.71945  0.94280  Biso   1.000  C
  H153     1.0000 0.99580  0.79310  0.94860  Biso   1.000  H
  C208     1.0000 0.01382  0.65063  0.91206  Biso   1.000  C
  H154     1.0000 0.04990  0.67880  0.89670  Biso   1.000  H
  C209     1.0000 0.99416  0.54007  0.90327  Biso   1.000  C
  C210     1.0000 0.93976  0.49857  0.92563  Biso   1.000  C
  H155     1.0000 0.92580  0.42470  0.91980  Biso   1.000  H
  C211     1.0000 0.90602  0.56745  0.95682  Biso   1.000  C
  H156     1.0000 0.86960  0.53960  0.97190  Biso   1.000  H
  C212     1.0000 0.12044  0.43505  0.81830  Biso   1.000  C
  H157     1.0000 0.15980  0.46070  0.80680  Biso   1.000  H
  C213     1.0000 0.08666  0.49648  0.85246  Biso   1.000  C
  H158     1.0000 0.10490  0.56310  0.86400  Biso   1.000  H
  C214     1.0000 0.02828  0.46335  0.86965  Biso   1.000  C
  C215     1.0000 0.00261  0.36496  0.85272  Biso   1.000  C
  H159     1.0000 0.96260  0.34150  0.86380  Biso   1.000  H
  C216     1.0000 0.03401  0.29806  0.81950  Biso   1.000  C
  H160     1.0000 0.01580  0.23030  0.80910  Biso   1.000  H
  N19      1.0000 0.20106  0.14903  0.80530  Biso   1.000  N
  N20      1.0000 0.09313  0.33436  0.80210  Biso   1.000  N
  C217     1.0000 0.48255  0.75000  0.50000  Biso   1.000  C
  C218     1.0000 0.61655  0.75000  0.50000  Biso   1.000  C
  C219     1.0000 0.68830  0.75000  0.50000  Biso   1.000  C
  C220     1.0000 0.82244  0.75000  0.50000  Biso   1.000  C
  N21      1.0000 0.41127  0.75000  0.50000  Biso   1.000  N
  N22      1.0000 0.89169  0.75000  0.50000  Biso   1.000  N
  C221     1.0000 0.48255  0.75000  0.00000  Biso   1.000  C
  C222     1.0000 0.61655  0.75000  0.00000  Biso   1.000  C
  C223     1.0000 0.68830  0.75000  0.00000  Biso   1.000  C
  C224     1.0000 0.82244  0.75000  0.00000  Biso   1.000  C
  N23      1.0000 0.41127  0.75000  0.00000  Biso   1.000  N
  N24      1.0000 0.89169  0.75000  0.00000  Biso   1.000  N
  Co3      1.0000 0.15193  0.25461  0.25000  Biso   1.000  Co
  Co4      1.0000 0.15193  0.24539  0.75000  Biso   1.000  Co
