data_image0
_cell_length_a       23.984
_cell_length_b       13.122
_cell_length_c       11.917
_cell_angle_alpha    90
_cell_angle_beta     90
_cell_angle_gamma    90

_symmetry_space_group_name_H-M    "P 1"
_symmetry_int_tables_number       1

loop_
  _symmetry_equiv_pos_as_xyz
  'x, y, z'

loop_
  _atom_site_label
  _atom_site_occupancy
  _atom_site_fract_x
  _atom_site_fract_y
  _atom_site_fract_z
  _atom_site_thermal_displace_type
  _atom_site_B_iso_or_equiv
  _atom_site_type_symbol
  O1       1.0000 0.48075  0.68170  0.88330  Biso   1.000  O
  O2       1.0000 0.50303  0.58480  0.73950  Biso   1.000  O
  N1       1.0000 0.32669  0.20010  0.98830  Biso   1.000  N
  N2       1.0000 0.31981  0.12260  0.06110  Biso   1.000  N
  N3       1.0000 0.35518  0.12860  0.14400  Biso   1.000  N
  N4       1.0000 0.38740  0.21080  0.12600  Biso   1.000  N
  C1       1.0000 0.36892  0.25370  0.03230  Biso   1.000  C
  C2       1.0000 0.39293  0.34540  0.98010  Biso   1.000  C
  C3       1.0000 0.39911  0.43530  0.03930  Biso   1.000  C
  H1       1.0000 0.38620  0.43990  0.11270  Biso   1.000  H
  C4       1.0000 0.42472  0.51910  0.98890  Biso   1.000  C
  H2       1.0000 0.42810  0.57990  0.02860  Biso   1.000  H
  C5       1.0000 0.44506  0.51280  0.88100  Biso   1.000  C
  C6       1.0000 0.43740  0.42390  0.82140  Biso   1.000  C
  H3       1.0000 0.44930  0.41990  0.74720  Biso   1.000  H
  C7       1.0000 0.41210  0.34020  0.87140  Biso   1.000  C
  H4       1.0000 0.40810  0.28000  0.83100  Biso   1.000  H
  C8       1.0000 0.47821  0.59890  0.83060  Biso   1.000  C
  C9       1.0000 0.24483  0.08640  0.31030  Biso   1.000  C
  H5       1.0000 0.24190  0.14740  0.27090  Biso   1.000  H
  C10      1.0000 0.24362  0.09000  0.42630  Biso   1.000  C
  H6       1.0000 0.23860  0.15180  0.46310  Biso   1.000  H
  C11      1.0000 0.26570  0.08520  0.67380  Biso   1.000  C
  H7       1.0000 0.27660  0.14440  0.63700  Biso   1.000  H
  C12      1.0000 0.26520  0.08220  0.78940  Biso   1.000  C
  H8       1.0000 0.27590  0.14040  0.82830  Biso   1.000  H
  O3       1.0000 0.01925  0.31830  0.88330  Biso   1.000  O
  O4       1.0000 0.99697  0.41520  0.73950  Biso   1.000  O
  N5       1.0000 0.17331  0.79990  0.98830  Biso   1.000  N
  N6       1.0000 0.18019  0.87740  0.06110  Biso   1.000  N
  N7       1.0000 0.14482  0.87140  0.14400  Biso   1.000  N
  N8       1.0000 0.11260  0.78920  0.12600  Biso   1.000  N
  C13      1.0000 0.13108  0.74630  0.03230  Biso   1.000  C
  C14      1.0000 0.10707  0.65460  0.98010  Biso   1.000  C
  C15      1.0000 0.10089  0.56470  0.03930  Biso   1.000  C
  H9       1.0000 0.11380  0.56010  0.11270  Biso   1.000  H
  C16      1.0000 0.07528  0.48090  0.98890  Biso   1.000  C
  H10      1.0000 0.07190  0.42010  0.02860  Biso   1.000  H
  C17      1.0000 0.05494  0.48720  0.88100  Biso   1.000  C
  C18      1.0000 0.06260  0.57610  0.82140  Biso   1.000  C
  H11      1.0000 0.05070  0.58010  0.74720  Biso   1.000  H
  C19      1.0000 0.08790  0.65980  0.87140  Biso   1.000  C
  H12      1.0000 0.09190  0.72000  0.83100  Biso   1.000  H
  C20      1.0000 0.02179  0.40110  0.83060  Biso   1.000  C
  C21      1.0000 0.25517  0.91360  0.31030  Biso   1.000  C
  H13      1.0000 0.25810  0.85260  0.27090  Biso   1.000  H
  C22      1.0000 0.25638  0.91000  0.42630  Biso   1.000  C
  H14      1.0000 0.26140  0.84820  0.46310  Biso   1.000  H
  C23      1.0000 0.23430  0.91480  0.67380  Biso   1.000  C
  H15      1.0000 0.22340  0.85560  0.63700  Biso   1.000  H
  C24      1.0000 0.23480  0.91780  0.78940  Biso   1.000  C
  H16      1.0000 0.22410  0.85960  0.82830  Biso   1.000  H
  O5       1.0000 0.01925  0.18170  0.61670  Biso   1.000  O
  O6       1.0000 0.99697  0.08480  0.76050  Biso   1.000  O
  N9       1.0000 0.17331  0.70010  0.51170  Biso   1.000  N
  N10      1.0000 0.18019  0.62260  0.43890  Biso   1.000  N
  N11      1.0000 0.14482  0.62860  0.35600  Biso   1.000  N
  N12      1.0000 0.11260  0.71080  0.37400  Biso   1.000  N
  C25      1.0000 0.13108  0.75370  0.46770  Biso   1.000  C
  C26      1.0000 0.10707  0.84540  0.51990  Biso   1.000  C
  C27      1.0000 0.10089  0.93530  0.46070  Biso   1.000  C
  H17      1.0000 0.11380  0.93990  0.38730  Biso   1.000  H
  C28      1.0000 0.07528  0.01910  0.51110  Biso   1.000  C
  H18      1.0000 0.07190  0.07990  0.47140  Biso   1.000  H
  C29      1.0000 0.05494  0.01280  0.61900  Biso   1.000  C
  C30      1.0000 0.06260  0.92390  0.67860  Biso   1.000  C
  H19      1.0000 0.05070  0.91990  0.75280  Biso   1.000  H
  C31      1.0000 0.08790  0.84020  0.62860  Biso   1.000  C
  H20      1.0000 0.09190  0.78000  0.66900  Biso   1.000  H
  C32      1.0000 0.02179  0.09890  0.66940  Biso   1.000  C
  C33      1.0000 0.25517  0.58640  0.18970  Biso   1.000  C
  H21      1.0000 0.25810  0.64740  0.22910  Biso   1.000  H
  C34      1.0000 0.25638  0.59000  0.07370  Biso   1.000  C
  H22      1.0000 0.26140  0.65180  0.03690  Biso   1.000  H
  C35      1.0000 0.23430  0.58520  0.82620  Biso   1.000  C
  H23      1.0000 0.22340  0.64440  0.86300  Biso   1.000  H
  C36      1.0000 0.23480  0.58220  0.71060  Biso   1.000  C
  H24      1.0000 0.22410  0.64040  0.67170  Biso   1.000  H
  O7       1.0000 0.48075  0.81830  0.61670  Biso   1.000  O
  O8       1.0000 0.50303  0.91520  0.76050  Biso   1.000  O
  N13      1.0000 0.32669  0.29990  0.51170  Biso   1.000  N
  N14      1.0000 0.31981  0.37740  0.43890  Biso   1.000  N
  N15      1.0000 0.35518  0.37140  0.35600  Biso   1.000  N
  N16      1.0000 0.38740  0.28920  0.37400  Biso   1.000  N
  C37      1.0000 0.36892  0.24630  0.46770  Biso   1.000  C
  C38      1.0000 0.39293  0.15460  0.51990  Biso   1.000  C
  C39      1.0000 0.39911  0.06470  0.46070  Biso   1.000  C
  H25      1.0000 0.38620  0.06010  0.38730  Biso   1.000  H
  C40      1.0000 0.42472  0.98090  0.51110  Biso   1.000  C
  H26      1.0000 0.42810  0.92010  0.47140  Biso   1.000  H
  C41      1.0000 0.44506  0.98720  0.61900  Biso   1.000  C
  C42      1.0000 0.43740  0.07610  0.67860  Biso   1.000  C
  H27      1.0000 0.44930  0.08010  0.75280  Biso   1.000  H
  C43      1.0000 0.41210  0.15980  0.62860  Biso   1.000  C
  H28      1.0000 0.40810  0.22000  0.66900  Biso   1.000  H
  C44      1.0000 0.47821  0.90110  0.66940  Biso   1.000  C
  C45      1.0000 0.24483  0.41360  0.18970  Biso   1.000  C
  H29      1.0000 0.24190  0.35260  0.22910  Biso   1.000  H
  C46      1.0000 0.24362  0.41000  0.07370  Biso   1.000  C
  H30      1.0000 0.23860  0.34820  0.03690  Biso   1.000  H
  C47      1.0000 0.26570  0.41480  0.82620  Biso   1.000  C
  H31      1.0000 0.27660  0.35560  0.86300  Biso   1.000  H
  C48      1.0000 0.26520  0.41780  0.71060  Biso   1.000  C
  H32      1.0000 0.27590  0.35960  0.67170  Biso   1.000  H
  O9       1.0000 0.51925  0.31830  0.11670  Biso   1.000  O
  O10      1.0000 0.49697  0.41520  0.26050  Biso   1.000  O
  N17      1.0000 0.67331  0.79990  0.01170  Biso   1.000  N
  N18      1.0000 0.68019  0.87740  0.93890  Biso   1.000  N
  N19      1.0000 0.64482  0.87140  0.85600  Biso   1.000  N
  N20      1.0000 0.61260  0.78920  0.87400  Biso   1.000  N
  C49      1.0000 0.63108  0.74630  0.96770  Biso   1.000  C
  C50      1.0000 0.60707  0.65460  0.01990  Biso   1.000  C
  C51      1.0000 0.60089  0.56470  0.96070  Biso   1.000  C
  H33      1.0000 0.61380  0.56010  0.88730  Biso   1.000  H
  C52      1.0000 0.57528  0.48090  0.01110  Biso   1.000  C
  H34      1.0000 0.57190  0.42010  0.97140  Biso   1.000  H
  C53      1.0000 0.55494  0.48720  0.11900  Biso   1.000  C
  C54      1.0000 0.56260  0.57610  0.17860  Biso   1.000  C
  H35      1.0000 0.55070  0.58010  0.25280  Biso   1.000  H
  C55      1.0000 0.58790  0.65980  0.12860  Biso   1.000  C
  H36      1.0000 0.59190  0.72000  0.16900  Biso   1.000  H
  C56      1.0000 0.52179  0.40110  0.16940  Biso   1.000  C
  C57      1.0000 0.75517  0.91360  0.68970  Biso   1.000  C
  H37      1.0000 0.75810  0.85260  0.72910  Biso   1.000  H
  C58      1.0000 0.75638  0.91000  0.57370  Biso   1.000  C
  H38      1.0000 0.76140  0.84820  0.53690  Biso   1.000  H
  C59      1.0000 0.73430  0.91480  0.32620  Biso   1.000  C
  H39      1.0000 0.72340  0.85560  0.36300  Biso   1.000  H
  C60      1.0000 0.73480  0.91780  0.21060  Biso   1.000  C
  H40      1.0000 0.72410  0.85960  0.17170  Biso   1.000  H
  O11      1.0000 0.98075  0.68170  0.11670  Biso   1.000  O
  O12      1.0000 0.00303  0.58480  0.26050  Biso   1.000  O
  N21      1.0000 0.82669  0.20010  0.01170  Biso   1.000  N
  N22      1.0000 0.81981  0.12260  0.93890  Biso   1.000  N
  N23      1.0000 0.85518  0.12860  0.85600  Biso   1.000  N
  N24      1.0000 0.88740  0.21080  0.87400  Biso   1.000  N
  C61      1.0000 0.86892  0.25370  0.96770  Biso   1.000  C
  C62      1.0000 0.89293  0.34540  0.01990  Biso   1.000  C
  C63      1.0000 0.89911  0.43530  0.96070  Biso   1.000  C
  H41      1.0000 0.88620  0.43990  0.88730  Biso   1.000  H
  C64      1.0000 0.92472  0.51910  0.01110  Biso   1.000  C
  H42      1.0000 0.92810  0.57990  0.97140  Biso   1.000  H
  C65      1.0000 0.94506  0.51280  0.11900  Biso   1.000  C
  C66      1.0000 0.93740  0.42390  0.17860  Biso   1.000  C
  H43      1.0000 0.94930  0.41990  0.25280  Biso   1.000  H
  C67      1.0000 0.91210  0.34020  0.12860  Biso   1.000  C
  H44      1.0000 0.90810  0.28000  0.16900  Biso   1.000  H
  C68      1.0000 0.97821  0.59890  0.16940  Biso   1.000  C
  C69      1.0000 0.74483  0.08640  0.68970  Biso   1.000  C
  H45      1.0000 0.74190  0.14740  0.72910  Biso   1.000  H
  C70      1.0000 0.74362  0.09000  0.57370  Biso   1.000  C
  H46      1.0000 0.73860  0.15180  0.53690  Biso   1.000  H
  C71      1.0000 0.76570  0.08520  0.32620  Biso   1.000  C
  H47      1.0000 0.77660  0.14440  0.36300  Biso   1.000  H
  C72      1.0000 0.76520  0.08220  0.21060  Biso   1.000  C
  H48      1.0000 0.77590  0.14040  0.17170  Biso   1.000  H
  O13      1.0000 0.98075  0.81830  0.38330  Biso   1.000  O
  O14      1.0000 0.00303  0.91520  0.23950  Biso   1.000  O
  N25      1.0000 0.82669  0.29990  0.48830  Biso   1.000  N
  N26      1.0000 0.81981  0.37740  0.56110  Biso   1.000  N
  N27      1.0000 0.85518  0.37140  0.64400  Biso   1.000  N
  N28      1.0000 0.88740  0.28920  0.62600  Biso   1.000  N
  C73      1.0000 0.86892  0.24630  0.53230  Biso   1.000  C
  C74      1.0000 0.89293  0.15460  0.48010  Biso   1.000  C
  C75      1.0000 0.89911  0.06470  0.53930  Biso   1.000  C
  H49      1.0000 0.88620  0.06010  0.61270  Biso   1.000  H
  C76      1.0000 0.92472  0.98090  0.48890  Biso   1.000  C
  H50      1.0000 0.92810  0.92010  0.52860  Biso   1.000  H
  C77      1.0000 0.94506  0.98720  0.38100  Biso   1.000  C
  C78      1.0000 0.93740  0.07610  0.32140  Biso   1.000  C
  H51      1.0000 0.94930  0.08010  0.24720  Biso   1.000  H
  C79      1.0000 0.91210  0.15980  0.37140  Biso   1.000  C
  H52      1.0000 0.90810  0.22000  0.33100  Biso   1.000  H
  C80      1.0000 0.97821  0.90110  0.33060  Biso   1.000  C
  C81      1.0000 0.74483  0.41360  0.81030  Biso   1.000  C
  H53      1.0000 0.74190  0.35260  0.77090  Biso   1.000  H
  C82      1.0000 0.74362  0.41000  0.92630  Biso   1.000  C
  H54      1.0000 0.73860  0.34820  0.96310  Biso   1.000  H
  C83      1.0000 0.76570  0.41480  0.17380  Biso   1.000  C
  H55      1.0000 0.77660  0.35560  0.13700  Biso   1.000  H
  C84      1.0000 0.76520  0.41780  0.28940  Biso   1.000  C
  H56      1.0000 0.77590  0.35960  0.32830  Biso   1.000  H
  O15      1.0000 0.51925  0.18170  0.38330  Biso   1.000  O
  O16      1.0000 0.49697  0.08480  0.23950  Biso   1.000  O
  N29      1.0000 0.67331  0.70010  0.48830  Biso   1.000  N
  N30      1.0000 0.68019  0.62260  0.56110  Biso   1.000  N
  N31      1.0000 0.64482  0.62860  0.64400  Biso   1.000  N
  N32      1.0000 0.61260  0.71080  0.62600  Biso   1.000  N
  C85      1.0000 0.63108  0.75370  0.53230  Biso   1.000  C
  C86      1.0000 0.60707  0.84540  0.48010  Biso   1.000  C
  C87      1.0000 0.60089  0.93530  0.53930  Biso   1.000  C
  H57      1.0000 0.61380  0.93990  0.61270  Biso   1.000  H
  C88      1.0000 0.57528  0.01910  0.48890  Biso   1.000  C
  H58      1.0000 0.57190  0.07990  0.52860  Biso   1.000  H
  C89      1.0000 0.55494  0.01280  0.38100  Biso   1.000  C
  C90      1.0000 0.56260  0.92390  0.32140  Biso   1.000  C
  H59      1.0000 0.55070  0.91990  0.24720  Biso   1.000  H
  C91      1.0000 0.58790  0.84020  0.37140  Biso   1.000  C
  H60      1.0000 0.59190  0.78000  0.33100  Biso   1.000  H
  C92      1.0000 0.52179  0.09890  0.33060  Biso   1.000  C
  C93      1.0000 0.75517  0.58640  0.81030  Biso   1.000  C
  H61      1.0000 0.75810  0.64740  0.77090  Biso   1.000  H
  C94      1.0000 0.75638  0.59000  0.92630  Biso   1.000  C
  H62      1.0000 0.76140  0.65180  0.96310  Biso   1.000  H
  C95      1.0000 0.73430  0.58520  0.17380  Biso   1.000  C
  H63      1.0000 0.72340  0.64440  0.13700  Biso   1.000  H
  C96      1.0000 0.73480  0.58220  0.28940  Biso   1.000  C
  H64      1.0000 0.72410  0.64040  0.32830  Biso   1.000  H
  Cd1      1.0000 0.25000  0.00000  0.05118  Biso   1.000  Cd
  N33      1.0000 0.25000  0.00000  0.25160  Biso   1.000  N
  N34      1.0000 0.25000  0.00000  0.84870  Biso   1.000  N
  C97      1.0000 0.25000  0.00000  0.48740  Biso   1.000  C
  C98      1.0000 0.25000  0.00000  0.61220  Biso   1.000  C
  Cd2      1.0000 0.25000  0.50000  0.44882  Biso   1.000  Cd
  N35      1.0000 0.25000  0.50000  0.24840  Biso   1.000  N
  N36      1.0000 0.25000  0.50000  0.65130  Biso   1.000  N
  C99      1.0000 0.25000  0.50000  0.01260  Biso   1.000  C
  C100     1.0000 0.25000  0.50000  0.88780  Biso   1.000  C
  Cd3      1.0000 0.75000  0.00000  0.94882  Biso   1.000  Cd
  N37      1.0000 0.75000  0.00000  0.74840  Biso   1.000  N
  N38      1.0000 0.75000  0.00000  0.15130  Biso   1.000  N
  C101     1.0000 0.75000  0.00000  0.51260  Biso   1.000  C
  C102     1.0000 0.75000  0.00000  0.38780  Biso   1.000  C
  Cd4      1.0000 0.75000  0.50000  0.55118  Biso   1.000  Cd
  N39      1.0000 0.75000  0.50000  0.75160  Biso   1.000  N
  N40      1.0000 0.75000  0.50000  0.34870  Biso   1.000  N
  C103     1.0000 0.75000  0.50000  0.98740  Biso   1.000  C
  C104     1.0000 0.75000  0.50000  0.11220  Biso   1.000  C
  Cd5      1.0000 0.45754  0.25000  0.25000  Biso   1.000  Cd
  Cd6      1.0000 0.04246  0.75000  0.25000  Biso   1.000  Cd
  Cd7      1.0000 0.54246  0.75000  0.75000  Biso   1.000  Cd
  Cd8      1.0000 0.95754  0.25000  0.75000  Biso   1.000  Cd
