data_VOTMAS_clean
_audit_creation_date              2014-07-02
_audit_creation_method            'Materials Studio'
_symmetry_space_group_name_H-M    'P1'
_symmetry_Int_Tables_number       1
_symmetry_cell_setting            triclinic
loop_
_symmetry_equiv_pos_as_xyz
  x,y,z
_cell_length_a                    11.3574
_cell_length_b                    11.3574
_cell_length_c                    16.0280
_cell_angle_alpha                 85.2079
_cell_angle_beta                  85.2079
_cell_angle_gamma                 61.0372
loop_
_atom_site_label
_atom_site_type_symbol
_atom_site_fract_x
_atom_site_fract_y
_atom_site_fract_z
_atom_site_U_iso_or_equiv
_atom_site_adp_type
_atom_site_occupancy
Sr1    Sr    0.05785   0.66077   0.98688   0.01267  Uiso   1.00
Sr2    Sr    0.33923   0.94215   0.51312   0.01267  Uiso   1.00
Sr3    Sr    0.94215   0.33923   0.01312   0.01267  Uiso   1.00
Sr4    Sr    0.66077   0.05785   0.48688   0.01267  Uiso   1.00
Ca1    Ca    0.88044   0.31224   0.74827   0.01267  Uiso   1.00
Ca2    Ca    0.68776   0.11956   0.75173   0.01267  Uiso   1.00
Ca3    Ca    0.11956   0.68776   0.25173   0.01267  Uiso   1.00
Ca4    Ca    0.31224   0.88044   0.24827   0.01267  Uiso   1.00
H1     H     0.76190   0.63690   0.55430   0.01267  Uiso   1.00
H2     H     0.75320   0.65460   0.66070   0.01267  Uiso   1.00
H3     H     0.97510   0.59790   0.60860   0.01267  Uiso   1.00
H4     H     0.98390   0.46190   0.56250   0.01267  Uiso   1.00
H5     H     0.70180   0.46300   0.51810   0.01267  Uiso   1.00
H6     H     0.84700   0.37580   0.52110   0.01267  Uiso   1.00
H7     H     0.56010   0.50010   0.65930   0.01267  Uiso   1.00
H8     H     0.54730   0.64650   0.63390   0.01267  Uiso   1.00
H9     H     0.20170   0.38870   0.65280   0.01267  Uiso   1.00
H10    H     0.18160   0.29300   0.73090   0.01267  Uiso   1.00
H11    H     0.06920   0.56100   0.75180   0.01267  Uiso   1.00
H12    H     0.90170   0.60050   0.77960   0.01267  Uiso   1.00
H13    H     0.36310   0.23810   0.94570   0.01267  Uiso   1.00
H14    H     0.34540   0.24680   0.83930   0.01267  Uiso   1.00
H15    H     0.40210   0.02490   0.89140   0.01267  Uiso   1.00
H16    H     0.53810   0.01610   0.93750   0.01267  Uiso   1.00
H17    H     0.53700   0.29820   0.98190   0.01267  Uiso   1.00
H18    H     0.62420   0.15300   0.97890   0.01267  Uiso   1.00
H19    H     0.49990   0.43990   0.84070   0.01267  Uiso   1.00
H20    H     0.35350   0.45270   0.86610   0.01267  Uiso   1.00
H21    H     0.61130   0.79830   0.84720   0.01267  Uiso   1.00
H22    H     0.70700   0.81840   0.76910   0.01267  Uiso   1.00
H23    H     0.43900   0.93080   0.74820   0.01267  Uiso   1.00
H24    H     0.39950   0.09830   0.72040   0.01267  Uiso   1.00
H25    H     0.23810   0.36310   0.44570   0.01267  Uiso   1.00
H26    H     0.24680   0.34540   0.33930   0.01267  Uiso   1.00
H27    H     0.02490   0.40210   0.39140   0.01267  Uiso   1.00
H28    H     0.01610   0.53810   0.43750   0.01267  Uiso   1.00
H29    H     0.29820   0.53700   0.48190   0.01267  Uiso   1.00
H30    H     0.15300   0.62420   0.47890   0.01267  Uiso   1.00
H31    H     0.43990   0.49990   0.34070   0.01267  Uiso   1.00
H32    H     0.45270   0.35350   0.36610   0.01267  Uiso   1.00
H33    H     0.79830   0.61130   0.34720   0.01267  Uiso   1.00
H34    H     0.81840   0.70700   0.26910   0.01267  Uiso   1.00
H35    H     0.93080   0.43900   0.24820   0.01267  Uiso   1.00
H36    H     0.09830   0.39950   0.22040   0.01267  Uiso   1.00
H37    H     0.63690   0.76190   0.05430   0.01267  Uiso   1.00
H38    H     0.65460   0.75320   0.16070   0.01267  Uiso   1.00
H39    H     0.59790   0.97510   0.10860   0.01267  Uiso   1.00
H40    H     0.46190   0.98390   0.06250   0.01267  Uiso   1.00
H41    H     0.46300   0.70180   0.01810   0.01267  Uiso   1.00
H42    H     0.37580   0.84700   0.02110   0.01267  Uiso   1.00
H43    H     0.50010   0.56010   0.15930   0.01267  Uiso   1.00
H44    H     0.64650   0.54730   0.13390   0.01267  Uiso   1.00
H45    H     0.38870   0.20170   0.15280   0.01267  Uiso   1.00
H46    H     0.29300   0.18160   0.23090   0.01267  Uiso   1.00
H47    H     0.56100   0.06920   0.25180   0.01267  Uiso   1.00
H48    H     0.60050   0.90170   0.27960   0.01267  Uiso   1.00
C1     C     0.79540   0.59200   0.61880   0.01267  Uiso   1.00
C2     C     0.94430   0.53210   0.61860   0.01267  Uiso   1.00
C3     C     0.74870   0.29050   0.58290   0.01267  Uiso   1.00
C4     C     0.75910   0.41810   0.55980   0.01267  Uiso   1.00
C5     C     0.60980   0.56680   0.66290   0.01267  Uiso   1.00
C6     C     0.58990   0.59930   0.75440   0.01267  Uiso   1.00
C7     C     0.14230   0.34350   0.67470   0.01267  Uiso   1.00
C8     C     0.14350   0.23930   0.62040   0.01267  Uiso   1.00
C9     C     0.00040   0.52240   0.76550   0.01267  Uiso   1.00
C10    C     0.02100   0.44140   0.84830   0.01267  Uiso   1.00
C11    C     0.40800   0.20460   0.88120   0.01267  Uiso   1.00
C12    C     0.46790   0.05570   0.88140   0.01267  Uiso   1.00
C13    C     0.70950   0.25130   0.91710   0.01267  Uiso   1.00
C14    C     0.58190   0.24090   0.94020   0.01267  Uiso   1.00
C15    C     0.43320   0.39020   0.83710   0.01267  Uiso   1.00
C16    C     0.40070   0.41010   0.74560   0.01267  Uiso   1.00
C17    C     0.65650   0.85770   0.82530   0.01267  Uiso   1.00
C18    C     0.76070   0.85650   0.87960   0.01267  Uiso   1.00
C19    C     0.47760   0.99960   0.73450   0.01267  Uiso   1.00
C20    C     0.55860   0.97900   0.65170   0.01267  Uiso   1.00
C21    C     0.20460   0.40800   0.38120   0.01267  Uiso   1.00
C22    C     0.05570   0.46790   0.38140   0.01267  Uiso   1.00
C23    C     0.25130   0.70950   0.41710   0.01267  Uiso   1.00
C24    C     0.24090   0.58190   0.44020   0.01267  Uiso   1.00
C25    C     0.39020   0.43320   0.33710   0.01267  Uiso   1.00
C26    C     0.41010   0.40070   0.24560   0.01267  Uiso   1.00
C27    C     0.85770   0.65650   0.32530   0.01267  Uiso   1.00
C28    C     0.85650   0.76070   0.37960   0.01267  Uiso   1.00
C29    C     0.99960   0.47760   0.23450   0.01267  Uiso   1.00
C30    C     0.97900   0.55860   0.15170   0.01267  Uiso   1.00
C31    C     0.59200   0.79540   0.11880   0.01267  Uiso   1.00
C32    C     0.53210   0.94430   0.11860   0.01267  Uiso   1.00
C33    C     0.29050   0.74870   0.08290   0.01267  Uiso   1.00
C34    C     0.41810   0.75910   0.05980   0.01267  Uiso   1.00
C35    C     0.56680   0.60980   0.16290   0.01267  Uiso   1.00
C36    C     0.59930   0.58990   0.25440   0.01267  Uiso   1.00
C37    C     0.34350   0.14230   0.17470   0.01267  Uiso   1.00
C38    C     0.23930   0.14350   0.12040   0.01267  Uiso   1.00
C39    C     0.52240   0.00040   0.26550   0.01267  Uiso   1.00
C40    C     0.44140   0.02100   0.34830   0.01267  Uiso   1.00
N1     N     0.74600   0.49220   0.63330   0.01267  Uiso   1.00
N2     N     0.00330   0.44610   0.69530   0.01267  Uiso   1.00
N3     N     0.50780   0.25400   0.86670   0.01267  Uiso   1.00
N4     N     0.55390   0.99670   0.80470   0.01267  Uiso   1.00
N5     N     0.25400   0.50780   0.36670   0.01267  Uiso   1.00
N6     N     0.99670   0.55390   0.30470   0.01267  Uiso   1.00
N7     N     0.49220   0.74600   0.13330   0.01267  Uiso   1.00
N8     N     0.44610   0.00330   0.19530   0.01267  Uiso   1.00
O1     O     0.76430   0.24610   0.65850   0.01267  Uiso   1.00
O2     O     0.72730   0.23710   0.52540   0.01267  Uiso   1.00
O3     O     0.68660   0.52680   0.79950   0.01267  Uiso   1.00
O4     O     0.48070   0.69730   0.77660   0.01267  Uiso   1.00
O5     O     0.04230   0.22190   0.62620   0.01267  Uiso   1.00
O6     O     0.24700   0.17460   0.57450   0.01267  Uiso   1.00
O7     O     0.99260   0.34800   0.85420   0.01267  Uiso   1.00
O8     O     0.05970   0.47510   0.90790   0.01267  Uiso   1.00
O9     O     0.75390   0.23570   0.84150   0.01267  Uiso   1.00
O10    O     0.76290   0.27270   0.97460   0.01267  Uiso   1.00
O11    O     0.47320   0.31340   0.70050   0.01267  Uiso   1.00
O12    O     0.30270   0.51930   0.72340   0.01267  Uiso   1.00
O13    O     0.77810   0.95770   0.87380   0.01267  Uiso   1.00
O14    O     0.82540   0.75300   0.92550   0.01267  Uiso   1.00
O15    O     0.65200   0.00740   0.64580   0.01267  Uiso   1.00
O16    O     0.52490   0.94030   0.59210   0.01267  Uiso   1.00
O17    O     0.23570   0.75390   0.34150   0.01267  Uiso   1.00
O18    O     0.27270   0.76290   0.47460   0.01267  Uiso   1.00
O19    O     0.31340   0.47320   0.20050   0.01267  Uiso   1.00
O20    O     0.51930   0.30270   0.22340   0.01267  Uiso   1.00
O21    O     0.95770   0.77810   0.37380   0.01267  Uiso   1.00
O22    O     0.75300   0.82540   0.42550   0.01267  Uiso   1.00
O23    O     0.00740   0.65200   0.14580   0.01267  Uiso   1.00
O24    O     0.94030   0.52490   0.09210   0.01267  Uiso   1.00
O25    O     0.24610   0.76430   0.15850   0.01267  Uiso   1.00
O26    O     0.23710   0.72730   0.02540   0.01267  Uiso   1.00
O27    O     0.52680   0.68660   0.29950   0.01267  Uiso   1.00
O28    O     0.69730   0.48070   0.27660   0.01267  Uiso   1.00
O29    O     0.22190   0.04230   0.12620   0.01267  Uiso   1.00
O30    O     0.17460   0.24700   0.07450   0.01267  Uiso   1.00
O31    O     0.34800   0.99260   0.35420   0.01267  Uiso   1.00
O32    O     0.47510   0.05970   0.40790   0.01267  Uiso   1.00
