data_image0
_cell_length_a       12.647
_cell_length_b       13.284
_cell_length_c       24.926
_cell_angle_alpha    90
_cell_angle_beta     90
_cell_angle_gamma    90

_symmetry_space_group_name_H-M    "P 1"
_symmetry_int_tables_number       1

loop_
  _symmetry_equiv_pos_as_xyz
  'x, y, z'

loop_
  _atom_site_label
  _atom_site_occupancy
  _atom_site_fract_x
  _atom_site_fract_y
  _atom_site_fract_z
  _atom_site_thermal_displace_type
  _atom_site_B_iso_or_equiv
  _atom_site_type_symbol
  O1       1.0000 0.59250  0.33580  0.72720  Biso   1.000  O
  U1       1.0000 0.61111  0.21192  0.80253  Biso   1.000  U
  U2       1.0000 0.76106  0.30727  0.67798  Biso   1.000  U
  U3       1.0000 0.90564  0.17151  0.79409  Biso   1.000  U
  O2       1.0000 0.75650  0.12790  0.84720  Biso   1.000  O
  O3       1.0000 0.93310  0.22830  0.70050  Biso   1.000  O
  O4       1.0000 0.75820  0.23710  0.75690  Biso   1.000  O
  O5       1.0000 0.65810  0.39650  0.61200  Biso   1.000  O
  O6       1.0000 0.48480  0.39350  0.62990  Biso   1.000  O
  O7       1.0000 0.87380  0.34180  0.60300  Biso   1.000  O
  O8       1.0000 0.03260  0.39130  0.63080  Biso   1.000  O
  C1       1.0000 0.56310  0.41420  0.60020  Biso   1.000  C
  C2       1.0000 0.53570  0.46070  0.54780  Biso   1.000  C
  C3       1.0000 0.95720  0.39320  0.59900  Biso   1.000  C
  C4       1.0000 0.97400  0.45310  0.54880  Biso   1.000  C
  O9       1.0000 0.40750  0.66420  0.72720  Biso   1.000  O
  U4       1.0000 0.38889  0.78808  0.80253  Biso   1.000  U
  U5       1.0000 0.23894  0.69273  0.67798  Biso   1.000  U
  U6       1.0000 0.09436  0.82849  0.79409  Biso   1.000  U
  O10      1.0000 0.24350  0.87210  0.84720  Biso   1.000  O
  O11      1.0000 0.06690  0.77170  0.70050  Biso   1.000  O
  O12      1.0000 0.24180  0.76290  0.75690  Biso   1.000  O
  O13      1.0000 0.34190  0.60350  0.61200  Biso   1.000  O
  O14      1.0000 0.51520  0.60650  0.62990  Biso   1.000  O
  O15      1.0000 0.12620  0.65820  0.60300  Biso   1.000  O
  O16      1.0000 0.96740  0.60870  0.63080  Biso   1.000  O
  C5       1.0000 0.43690  0.58580  0.60020  Biso   1.000  C
  C6       1.0000 0.46430  0.53930  0.54780  Biso   1.000  C
  C7       1.0000 0.04280  0.60680  0.59900  Biso   1.000  C
  C8       1.0000 0.02600  0.54690  0.54880  Biso   1.000  C
  O17      1.0000 0.90750  0.83580  0.77280  Biso   1.000  O
  U7       1.0000 0.88889  0.71192  0.69747  Biso   1.000  U
  U8       1.0000 0.73894  0.80727  0.82202  Biso   1.000  U
  U9       1.0000 0.59436  0.67151  0.70591  Biso   1.000  U
  O18      1.0000 0.74350  0.62790  0.65280  Biso   1.000  O
  O19      1.0000 0.56690  0.72830  0.79950  Biso   1.000  O
  O20      1.0000 0.74180  0.73710  0.74310  Biso   1.000  O
  O21      1.0000 0.84190  0.89650  0.88800  Biso   1.000  O
  O22      1.0000 0.01520  0.89350  0.87010  Biso   1.000  O
  O23      1.0000 0.62620  0.84180  0.89700  Biso   1.000  O
  O24      1.0000 0.46740  0.89130  0.86920  Biso   1.000  O
  C9       1.0000 0.93690  0.91420  0.89980  Biso   1.000  C
  C10      1.0000 0.96430  0.96070  0.95220  Biso   1.000  C
  C11      1.0000 0.54280  0.89320  0.90100  Biso   1.000  C
  C12      1.0000 0.52600  0.95310  0.95120  Biso   1.000  C
  O25      1.0000 0.09250  0.16420  0.77280  Biso   1.000  O
  U10      1.0000 0.11111  0.28808  0.69747  Biso   1.000  U
  U11      1.0000 0.26106  0.19273  0.82202  Biso   1.000  U
  U12      1.0000 0.40564  0.32849  0.70591  Biso   1.000  U
  O26      1.0000 0.25650  0.37210  0.65280  Biso   1.000  O
  O27      1.0000 0.43310  0.27170  0.79950  Biso   1.000  O
  O28      1.0000 0.25820  0.26290  0.74310  Biso   1.000  O
  O29      1.0000 0.15810  0.10350  0.88800  Biso   1.000  O
  O30      1.0000 0.98480  0.10650  0.87010  Biso   1.000  O
  O31      1.0000 0.37380  0.15820  0.89700  Biso   1.000  O
  O32      1.0000 0.53260  0.10870  0.86920  Biso   1.000  O
  C13      1.0000 0.06310  0.08580  0.89980  Biso   1.000  C
  C14      1.0000 0.03570  0.03930  0.95220  Biso   1.000  C
  C15      1.0000 0.45720  0.10680  0.90100  Biso   1.000  C
  C16      1.0000 0.47400  0.04690  0.95120  Biso   1.000  C
  O33      1.0000 0.40750  0.66420  0.27280  Biso   1.000  O
  U13      1.0000 0.38889  0.78808  0.19747  Biso   1.000  U
  U14      1.0000 0.23894  0.69273  0.32202  Biso   1.000  U
  U15      1.0000 0.09436  0.82849  0.20591  Biso   1.000  U
  O34      1.0000 0.24350  0.87210  0.15280  Biso   1.000  O
  O35      1.0000 0.06690  0.77170  0.29950  Biso   1.000  O
  O36      1.0000 0.24180  0.76290  0.24310  Biso   1.000  O
  O37      1.0000 0.34190  0.60350  0.38800  Biso   1.000  O
  O38      1.0000 0.51520  0.60650  0.37010  Biso   1.000  O
  O39      1.0000 0.12620  0.65820  0.39700  Biso   1.000  O
  O40      1.0000 0.96740  0.60870  0.36920  Biso   1.000  O
  C17      1.0000 0.43690  0.58580  0.39980  Biso   1.000  C
  C18      1.0000 0.46430  0.53930  0.45220  Biso   1.000  C
  C19      1.0000 0.04280  0.60680  0.40100  Biso   1.000  C
  C20      1.0000 0.02600  0.54690  0.45120  Biso   1.000  C
  O41      1.0000 0.59250  0.33580  0.27280  Biso   1.000  O
  U16      1.0000 0.61111  0.21192  0.19747  Biso   1.000  U
  U17      1.0000 0.76106  0.30727  0.32202  Biso   1.000  U
  U18      1.0000 0.90564  0.17151  0.20591  Biso   1.000  U
  O42      1.0000 0.75650  0.12790  0.15280  Biso   1.000  O
  O43      1.0000 0.93310  0.22830  0.29950  Biso   1.000  O
  O44      1.0000 0.75820  0.23710  0.24310  Biso   1.000  O
  O45      1.0000 0.65810  0.39650  0.38800  Biso   1.000  O
  O46      1.0000 0.48480  0.39350  0.37010  Biso   1.000  O
  O47      1.0000 0.87380  0.34180  0.39700  Biso   1.000  O
  O48      1.0000 0.03260  0.39130  0.36920  Biso   1.000  O
  C21      1.0000 0.56310  0.41420  0.39980  Biso   1.000  C
  C22      1.0000 0.53570  0.46070  0.45220  Biso   1.000  C
  C23      1.0000 0.95720  0.39320  0.40100  Biso   1.000  C
  C24      1.0000 0.97400  0.45310  0.45120  Biso   1.000  C
  O49      1.0000 0.09250  0.16420  0.22720  Biso   1.000  O
  U19      1.0000 0.11111  0.28808  0.30253  Biso   1.000  U
  U20      1.0000 0.26106  0.19273  0.17798  Biso   1.000  U
  U21      1.0000 0.40564  0.32849  0.29409  Biso   1.000  U
  O50      1.0000 0.25650  0.37210  0.34720  Biso   1.000  O
  O51      1.0000 0.43310  0.27170  0.20050  Biso   1.000  O
  O52      1.0000 0.25820  0.26290  0.25690  Biso   1.000  O
  O53      1.0000 0.15810  0.10350  0.11200  Biso   1.000  O
  O54      1.0000 0.98480  0.10650  0.12990  Biso   1.000  O
  O55      1.0000 0.37380  0.15820  0.10300  Biso   1.000  O
  O56      1.0000 0.53260  0.10870  0.13080  Biso   1.000  O
  C25      1.0000 0.06310  0.08580  0.10020  Biso   1.000  C
  C26      1.0000 0.03570  0.03930  0.04780  Biso   1.000  C
  C27      1.0000 0.45720  0.10680  0.09900  Biso   1.000  C
  C28      1.0000 0.47400  0.04690  0.04880  Biso   1.000  C
  O57      1.0000 0.90750  0.83580  0.22720  Biso   1.000  O
  U22      1.0000 0.88889  0.71192  0.30253  Biso   1.000  U
  U23      1.0000 0.73894  0.80727  0.17798  Biso   1.000  U
  U24      1.0000 0.59436  0.67151  0.29409  Biso   1.000  U
  O58      1.0000 0.74350  0.62790  0.34720  Biso   1.000  O
  O59      1.0000 0.56690  0.72830  0.20050  Biso   1.000  O
  O60      1.0000 0.74180  0.73710  0.25690  Biso   1.000  O
  O61      1.0000 0.84190  0.89650  0.11200  Biso   1.000  O
  O62      1.0000 0.01520  0.89350  0.12990  Biso   1.000  O
  O63      1.0000 0.62620  0.84180  0.10300  Biso   1.000  O
  O64      1.0000 0.46740  0.89130  0.13080  Biso   1.000  O
  C29      1.0000 0.93690  0.91420  0.10020  Biso   1.000  C
  C30      1.0000 0.96430  0.96070  0.04780  Biso   1.000  C
  C31      1.0000 0.54280  0.89320  0.09900  Biso   1.000  C
  C32      1.0000 0.52600  0.95310  0.04880  Biso   1.000  C
  C33      1.0000 0.57300  0.42100  0.50000  Biso   1.000  C
  H1       1.0000 0.62160  0.36890  0.50000  Biso   1.000  H
  C34      1.0000 0.94900  0.40900  0.50000  Biso   1.000  C
  H2       1.0000 0.91380  0.34710  0.50000  Biso   1.000  H
  C35      1.0000 0.42700  0.57900  0.50000  Biso   1.000  C
  H3       1.0000 0.37840  0.63110  0.50000  Biso   1.000  H
  C36      1.0000 0.05100  0.59100  0.50000  Biso   1.000  C
  H4       1.0000 0.08620  0.65290  0.50000  Biso   1.000  H
  C37      1.0000 0.92700  0.92100  0.00000  Biso   1.000  C
  H5       1.0000 0.87840  0.86890  0.00000  Biso   1.000  H
  C38      1.0000 0.55100  0.90900  0.00000  Biso   1.000  C
  H6       1.0000 0.58620  0.84710  0.00000  Biso   1.000  H
  C39      1.0000 0.07300  0.07900  0.00000  Biso   1.000  C
  H7       1.0000 0.12160  0.13110  0.00000  Biso   1.000  H
  C40      1.0000 0.44900  0.09100  0.00000  Biso   1.000  C
  H8       1.0000 0.41380  0.15290  0.00000  Biso   1.000  H
