data_image0
_cell_length_a       11.683
_cell_length_b       16.583
_cell_length_c       22.832
_cell_angle_alpha    90
_cell_angle_beta     90
_cell_angle_gamma    90

_symmetry_space_group_name_H-M    "P 1"
_symmetry_int_tables_number       1

loop_
  _symmetry_equiv_pos_as_xyz
  'x, y, z'

loop_
  _atom_site_label
  _atom_site_occupancy
  _atom_site_fract_x
  _atom_site_fract_y
  _atom_site_fract_z
  _atom_site_thermal_displace_type
  _atom_site_B_iso_or_equiv
  _atom_site_type_symbol
  U1       1.0000 0.20497  0.03435  0.09931  Biso   1.000  U
  O1       1.0000 0.63500  0.16160  0.26910  Biso   1.000  O
  O2       1.0000 0.67530  0.03690  0.29680  Biso   1.000  O
  O3       1.0000 0.43840  0.11420  0.21110  Biso   1.000  O
  O4       1.0000 0.39130  0.03490  0.13640  Biso   1.000  O
  O5       1.0000 0.66630  0.97850  0.98460  Biso   1.000  O
  O6       1.0000 0.85060  0.97710  0.00310  Biso   1.000  O
  O7       1.0000 0.00890  0.03700  0.10560  Biso   1.000  O
  O8       1.0000 0.94940  0.91050  0.11800  Biso   1.000  O
  C1       1.0000 0.46380  0.06900  0.16850  Biso   1.000  C
  C2       1.0000 0.58540  0.05320  0.15430  Biso   1.000  C
  C3       1.0000 0.61410  0.02710  0.09870  Biso   1.000  C
  H1       1.0000 0.55610  0.02250  0.07100  Biso   1.000  H
  C4       1.0000 0.72330  0.00770  0.08240  Biso   1.000  C
  C5       1.0000 0.74840  0.98550  0.02140  Biso   1.000  C
  C6       1.0000 0.81240  0.01240  0.12470  Biso   1.000  C
  C7       1.0000 0.93160  0.98360  0.11400  Biso   1.000  C
  C8       1.0000 0.78640  0.03980  0.18040  Biso   1.000  C
  H2       1.0000 0.84420  0.04340  0.20830  Biso   1.000  H
  C9       1.0000 0.67490  0.06230  0.19560  Biso   1.000  C
  C10      1.0000 0.65780  0.08960  0.25860  Biso   1.000  C
  U2       1.0000 0.29503  0.96565  0.59931  Biso   1.000  U
  O9       1.0000 0.86500  0.83840  0.76910  Biso   1.000  O
  O10      1.0000 0.82470  0.96310  0.79680  Biso   1.000  O
  O11      1.0000 0.06160  0.88580  0.71110  Biso   1.000  O
  O12      1.0000 0.10870  0.96510  0.63640  Biso   1.000  O
  O13      1.0000 0.83370  0.02150  0.48460  Biso   1.000  O
  O14      1.0000 0.64940  0.02290  0.50310  Biso   1.000  O
  O15      1.0000 0.49110  0.96300  0.60560  Biso   1.000  O
  O16      1.0000 0.55060  0.08950  0.61800  Biso   1.000  O
  C11      1.0000 0.03620  0.93100  0.66850  Biso   1.000  C
  C12      1.0000 0.91460  0.94680  0.65430  Biso   1.000  C
  C13      1.0000 0.88590  0.97290  0.59870  Biso   1.000  C
  H3       1.0000 0.94390  0.97750  0.57100  Biso   1.000  H
  C14      1.0000 0.77670  0.99230  0.58240  Biso   1.000  C
  C15      1.0000 0.75160  0.01450  0.52140  Biso   1.000  C
  C16      1.0000 0.68760  0.98760  0.62470  Biso   1.000  C
  C17      1.0000 0.56840  0.01640  0.61400  Biso   1.000  C
  C18      1.0000 0.71360  0.96020  0.68040  Biso   1.000  C
  H4       1.0000 0.65580  0.95660  0.70830  Biso   1.000  H
  C19      1.0000 0.82510  0.93770  0.69560  Biso   1.000  C
  C20      1.0000 0.84220  0.91040  0.75860  Biso   1.000  C
  U3       1.0000 0.79503  0.53435  0.90069  Biso   1.000  U
  O17      1.0000 0.36500  0.66160  0.73090  Biso   1.000  O
  O18      1.0000 0.32470  0.53690  0.70320  Biso   1.000  O
  O19      1.0000 0.56160  0.61420  0.78890  Biso   1.000  O
  O20      1.0000 0.60870  0.53490  0.86360  Biso   1.000  O
  O21      1.0000 0.33370  0.47850  0.01540  Biso   1.000  O
  O22      1.0000 0.14940  0.47710  0.99690  Biso   1.000  O
  O23      1.0000 0.99110  0.53700  0.89440  Biso   1.000  O
  O24      1.0000 0.05060  0.41050  0.88200  Biso   1.000  O
  C21      1.0000 0.53620  0.56900  0.83150  Biso   1.000  C
  C22      1.0000 0.41460  0.55320  0.84570  Biso   1.000  C
  C23      1.0000 0.38590  0.52710  0.90130  Biso   1.000  C
  H5       1.0000 0.44390  0.52250  0.92900  Biso   1.000  H
  C24      1.0000 0.27670  0.50770  0.91760  Biso   1.000  C
  C25      1.0000 0.25160  0.48550  0.97860  Biso   1.000  C
  C26      1.0000 0.18760  0.51240  0.87530  Biso   1.000  C
  C27      1.0000 0.06840  0.48360  0.88600  Biso   1.000  C
  C28      1.0000 0.21360  0.53980  0.81960  Biso   1.000  C
  H6       1.0000 0.15580  0.54340  0.79170  Biso   1.000  H
  C29      1.0000 0.32510  0.56230  0.80440  Biso   1.000  C
  C30      1.0000 0.34220  0.58960  0.74140  Biso   1.000  C
  U4       1.0000 0.70497  0.46565  0.40069  Biso   1.000  U
  O25      1.0000 0.13500  0.33840  0.23090  Biso   1.000  O
  O26      1.0000 0.17530  0.46310  0.20320  Biso   1.000  O
  O27      1.0000 0.93840  0.38580  0.28890  Biso   1.000  O
  O28      1.0000 0.89130  0.46510  0.36360  Biso   1.000  O
  O29      1.0000 0.16630  0.52150  0.51540  Biso   1.000  O
  O30      1.0000 0.35060  0.52290  0.49690  Biso   1.000  O
  O31      1.0000 0.50890  0.46300  0.39440  Biso   1.000  O
  O32      1.0000 0.44940  0.58950  0.38200  Biso   1.000  O
  C31      1.0000 0.96380  0.43100  0.33150  Biso   1.000  C
  C32      1.0000 0.08540  0.44680  0.34570  Biso   1.000  C
  C33      1.0000 0.11410  0.47290  0.40130  Biso   1.000  C
  H7       1.0000 0.05610  0.47750  0.42900  Biso   1.000  H
  C34      1.0000 0.22330  0.49230  0.41760  Biso   1.000  C
  C35      1.0000 0.24840  0.51450  0.47860  Biso   1.000  C
  C36      1.0000 0.31240  0.48760  0.37530  Biso   1.000  C
  C37      1.0000 0.43160  0.51640  0.38600  Biso   1.000  C
  C38      1.0000 0.28640  0.46020  0.31960  Biso   1.000  C
  H8       1.0000 0.34420  0.45660  0.29170  Biso   1.000  H
  C39      1.0000 0.17490  0.43770  0.30440  Biso   1.000  C
  C40      1.0000 0.15780  0.41040  0.24140  Biso   1.000  C
  U5       1.0000 0.79503  0.96565  0.90069  Biso   1.000  U
  O33      1.0000 0.36500  0.83840  0.73090  Biso   1.000  O
  O34      1.0000 0.32470  0.96310  0.70320  Biso   1.000  O
  O35      1.0000 0.56160  0.88580  0.78890  Biso   1.000  O
  O36      1.0000 0.60870  0.96510  0.86360  Biso   1.000  O
  O37      1.0000 0.33370  0.02150  0.01540  Biso   1.000  O
  O38      1.0000 0.14940  0.02290  0.99690  Biso   1.000  O
  O39      1.0000 0.99110  0.96300  0.89440  Biso   1.000  O
  O40      1.0000 0.05060  0.08950  0.88200  Biso   1.000  O
  C41      1.0000 0.53620  0.93100  0.83150  Biso   1.000  C
  C42      1.0000 0.41460  0.94680  0.84570  Biso   1.000  C
  C43      1.0000 0.38590  0.97290  0.90130  Biso   1.000  C
  H9       1.0000 0.44390  0.97750  0.92900  Biso   1.000  H
  C44      1.0000 0.27670  0.99230  0.91760  Biso   1.000  C
  C45      1.0000 0.25160  0.01450  0.97860  Biso   1.000  C
  C46      1.0000 0.18760  0.98760  0.87530  Biso   1.000  C
  C47      1.0000 0.06840  0.01640  0.88600  Biso   1.000  C
  C48      1.0000 0.21360  0.96020  0.81960  Biso   1.000  C
  H10      1.0000 0.15580  0.95660  0.79170  Biso   1.000  H
  C49      1.0000 0.32510  0.93770  0.80440  Biso   1.000  C
  C50      1.0000 0.34220  0.91040  0.74140  Biso   1.000  C
  U6       1.0000 0.70497  0.03435  0.40069  Biso   1.000  U
  O41      1.0000 0.13500  0.16160  0.23090  Biso   1.000  O
  O42      1.0000 0.17530  0.03690  0.20320  Biso   1.000  O
  O43      1.0000 0.93840  0.11420  0.28890  Biso   1.000  O
  O44      1.0000 0.89130  0.03490  0.36360  Biso   1.000  O
  O45      1.0000 0.16630  0.97850  0.51540  Biso   1.000  O
  O46      1.0000 0.35060  0.97710  0.49690  Biso   1.000  O
  O47      1.0000 0.50890  0.03700  0.39440  Biso   1.000  O
  O48      1.0000 0.44940  0.91050  0.38200  Biso   1.000  O
  C51      1.0000 0.96380  0.06900  0.33150  Biso   1.000  C
  C52      1.0000 0.08540  0.05320  0.34570  Biso   1.000  C
  C53      1.0000 0.11410  0.02710  0.40130  Biso   1.000  C
  H11      1.0000 0.05610  0.02250  0.42900  Biso   1.000  H
  C54      1.0000 0.22330  0.00770  0.41760  Biso   1.000  C
  C55      1.0000 0.24840  0.98550  0.47860  Biso   1.000  C
  C56      1.0000 0.31240  0.01240  0.37530  Biso   1.000  C
  C57      1.0000 0.43160  0.98360  0.38600  Biso   1.000  C
  C58      1.0000 0.28640  0.03980  0.31960  Biso   1.000  C
  H12      1.0000 0.34420  0.04340  0.29170  Biso   1.000  H
  C59      1.0000 0.17490  0.06230  0.30440  Biso   1.000  C
  C60      1.0000 0.15780  0.08960  0.24140  Biso   1.000  C
  U7       1.0000 0.20497  0.46565  0.09931  Biso   1.000  U
  O49      1.0000 0.63500  0.33840  0.26910  Biso   1.000  O
  O50      1.0000 0.67530  0.46310  0.29680  Biso   1.000  O
  O51      1.0000 0.43840  0.38580  0.21110  Biso   1.000  O
  O52      1.0000 0.39130  0.46510  0.13640  Biso   1.000  O
  O53      1.0000 0.66630  0.52150  0.98460  Biso   1.000  O
  O54      1.0000 0.85060  0.52290  0.00310  Biso   1.000  O
  O55      1.0000 0.00890  0.46300  0.10560  Biso   1.000  O
  O56      1.0000 0.94940  0.58950  0.11800  Biso   1.000  O
  C61      1.0000 0.46380  0.43100  0.16850  Biso   1.000  C
  C62      1.0000 0.58540  0.44680  0.15430  Biso   1.000  C
  C63      1.0000 0.61410  0.47290  0.09870  Biso   1.000  C
  H13      1.0000 0.55610  0.47750  0.07100  Biso   1.000  H
  C64      1.0000 0.72330  0.49230  0.08240  Biso   1.000  C
  C65      1.0000 0.74840  0.51450  0.02140  Biso   1.000  C
  C66      1.0000 0.81240  0.48760  0.12470  Biso   1.000  C
  C67      1.0000 0.93160  0.51640  0.11400  Biso   1.000  C
  C68      1.0000 0.78640  0.46020  0.18040  Biso   1.000  C
  H14      1.0000 0.84420  0.45660  0.20830  Biso   1.000  H
  C69      1.0000 0.67490  0.43770  0.19560  Biso   1.000  C
  C70      1.0000 0.65780  0.41040  0.25860  Biso   1.000  C
  U8       1.0000 0.29503  0.53435  0.59931  Biso   1.000  U
  O57      1.0000 0.86500  0.66160  0.76910  Biso   1.000  O
  O58      1.0000 0.82470  0.53690  0.79680  Biso   1.000  O
  O59      1.0000 0.06160  0.61420  0.71110  Biso   1.000  O
  O60      1.0000 0.10870  0.53490  0.63640  Biso   1.000  O
  O61      1.0000 0.83370  0.47850  0.48460  Biso   1.000  O
  O62      1.0000 0.64940  0.47710  0.50310  Biso   1.000  O
  O63      1.0000 0.49110  0.53700  0.60560  Biso   1.000  O
  O64      1.0000 0.55060  0.41050  0.61800  Biso   1.000  O
  C71      1.0000 0.03620  0.56900  0.66850  Biso   1.000  C
  C72      1.0000 0.91460  0.55320  0.65430  Biso   1.000  C
  C73      1.0000 0.88590  0.52710  0.59870  Biso   1.000  C
  H15      1.0000 0.94390  0.52250  0.57100  Biso   1.000  H
  C74      1.0000 0.77670  0.50770  0.58240  Biso   1.000  C
  C75      1.0000 0.75160  0.48550  0.52140  Biso   1.000  C
  C76      1.0000 0.68760  0.51240  0.62470  Biso   1.000  C
  C77      1.0000 0.56840  0.48360  0.61400  Biso   1.000  C
  C78      1.0000 0.71360  0.53980  0.68040  Biso   1.000  C
  H16      1.0000 0.65580  0.54340  0.70830  Biso   1.000  H
  C79      1.0000 0.82510  0.56230  0.69560  Biso   1.000  C
  C80      1.0000 0.84220  0.58960  0.75860  Biso   1.000  C
  U9       1.0000 0.49214  0.25000  0.22767  Biso   1.000  U
  U10      1.0000 0.00786  0.75000  0.72767  Biso   1.000  U
  U11      1.0000 0.50786  0.75000  0.77233  Biso   1.000  U
  U12      1.0000 0.99214  0.25000  0.27233  Biso   1.000  U
