data_image0
_cell_length_a       23.7544
_cell_length_b       10.5386
_cell_length_c       19.7584
_cell_angle_alpha    90
_cell_angle_beta     125.805
_cell_angle_gamma    90

_symmetry_space_group_name_H-M    "P 1"
_symmetry_int_tables_number       1

loop_
  _symmetry_equiv_pos_as_xyz
  'x, y, z'

loop_
  _atom_site_label
  _atom_site_occupancy
  _atom_site_fract_x
  _atom_site_fract_y
  _atom_site_fract_z
  _atom_site_thermal_displace_type
  _atom_site_B_iso_or_equiv
  _atom_site_type_symbol
  Tb1      1.0000 0.49868  0.04659  0.12647  Biso   1.000  Tb
  O1       1.0000 0.11214  0.41110  0.75623  Biso   1.000  O
  O2       1.0000 0.08663  0.29530  0.64916  Biso   1.000  O
  O3       1.0000 0.44564  0.15330  0.00356  Biso   1.000  O
  O4       1.0000 0.42683  0.05880  0.89190  Biso   1.000  O
  O5       1.0000 0.48112  0.21870  0.18350  Biso   1.000  O
  O6       1.0000 0.51722  0.87760  0.20910  Biso   1.000  O
  C1       1.0000 0.40832  0.12710  0.92700  Biso   1.000  C
  C2       1.0000 0.50900  0.61390  0.19630  Biso   1.000  C
  H1       1.0000 0.51570  0.65820  0.16090  Biso   1.000  H
  C3       1.0000 0.33604  0.18060  0.87360  Biso   1.000  C
  C4       1.0000 0.31300  0.26140  0.90820  Biso   1.000  C
  H2       1.0000 0.34240  0.28290  0.96440  Biso   1.000  H
  C5       1.0000 0.29140  0.14970  0.78960  Biso   1.000  C
  C6       1.0000 0.50790  0.48160  0.19510  Biso   1.000  C
  H3       1.0000 0.51240  0.43790  0.15760  Biso   1.000  H
  C7       1.0000 0.20155  0.27780  0.77580  Biso   1.000  C
  C8       1.0000 0.24590  0.31010  0.85860  Biso   1.000  C
  H4       1.0000 0.23100  0.36520  0.88190  Biso   1.000  H
  C9       1.0000 0.22460  0.19630  0.74150  Biso   1.000  C
  H5       1.0000 0.19460  0.17290  0.68570  Biso   1.000  H
  C10      1.0000 0.12957  0.32970  0.72410  Biso   1.000  C
  H6       1.0000 0.30400  0.09000  0.76400  Biso   1.000  H
  Tb2      1.0000 0.99868  0.54659  0.12647  Biso   1.000  Tb
  O7       1.0000 0.61214  0.91110  0.75623  Biso   1.000  O
  O8       1.0000 0.58663  0.79530  0.64916  Biso   1.000  O
  O9       1.0000 0.94564  0.65330  0.00356  Biso   1.000  O
  O10      1.0000 0.92683  0.55880  0.89190  Biso   1.000  O
  O11      1.0000 0.98112  0.71870  0.18350  Biso   1.000  O
  O12      1.0000 0.01722  0.37760  0.20910  Biso   1.000  O
  C11      1.0000 0.90832  0.62710  0.92700  Biso   1.000  C
  C12      1.0000 0.00900  0.11390  0.19630  Biso   1.000  C
  H7       1.0000 0.01570  0.15820  0.16090  Biso   1.000  H
  C13      1.0000 0.83604  0.68060  0.87360  Biso   1.000  C
  C14      1.0000 0.81300  0.76140  0.90820  Biso   1.000  C
  H8       1.0000 0.84240  0.78290  0.96440  Biso   1.000  H
  C15      1.0000 0.79140  0.64970  0.78960  Biso   1.000  C
  C16      1.0000 0.00790  0.98160  0.19510  Biso   1.000  C
  H9       1.0000 0.01240  0.93790  0.15760  Biso   1.000  H
  C17      1.0000 0.70155  0.77780  0.77580  Biso   1.000  C
  C18      1.0000 0.74590  0.81010  0.85860  Biso   1.000  C
  H10      1.0000 0.73100  0.86520  0.88190  Biso   1.000  H
  C19      1.0000 0.72460  0.69630  0.74150  Biso   1.000  C
  H11      1.0000 0.69460  0.67290  0.68570  Biso   1.000  H
  C20      1.0000 0.62957  0.82970  0.72410  Biso   1.000  C
  H12      1.0000 0.80400  0.59000  0.76400  Biso   1.000  H
  Tb3      1.0000 0.50132  0.04659  0.37353  Biso   1.000  Tb
  O13      1.0000 0.88786  0.41110  0.74377  Biso   1.000  O
  O14      1.0000 0.91337  0.29530  0.85084  Biso   1.000  O
  O15      1.0000 0.55436  0.15330  0.49644  Biso   1.000  O
  O16      1.0000 0.57317  0.05880  0.60810  Biso   1.000  O
  O17      1.0000 0.51888  0.21870  0.31650  Biso   1.000  O
  O18      1.0000 0.48278  0.87760  0.29090  Biso   1.000  O
  C21      1.0000 0.59168  0.12710  0.57300  Biso   1.000  C
  C22      1.0000 0.49100  0.61390  0.30370  Biso   1.000  C
  H13      1.0000 0.48430  0.65820  0.33910  Biso   1.000  H
  C23      1.0000 0.66396  0.18060  0.62640  Biso   1.000  C
  C24      1.0000 0.68700  0.26140  0.59180  Biso   1.000  C
  H14      1.0000 0.65760  0.28290  0.53560  Biso   1.000  H
  C25      1.0000 0.70860  0.14970  0.71040  Biso   1.000  C
  C26      1.0000 0.49210  0.48160  0.30490  Biso   1.000  C
  H15      1.0000 0.48760  0.43790  0.34240  Biso   1.000  H
  C27      1.0000 0.79845  0.27780  0.72420  Biso   1.000  C
  C28      1.0000 0.75410  0.31010  0.64140  Biso   1.000  C
  H16      1.0000 0.76900  0.36520  0.61810  Biso   1.000  H
  C29      1.0000 0.77540  0.19630  0.75850  Biso   1.000  C
  H17      1.0000 0.80540  0.17290  0.81430  Biso   1.000  H
  C30      1.0000 0.87043  0.32970  0.77590  Biso   1.000  C
  H18      1.0000 0.69600  0.09000  0.73600  Biso   1.000  H
  Tb4      1.0000 0.00132  0.54659  0.37353  Biso   1.000  Tb
  O19      1.0000 0.38786  0.91110  0.74377  Biso   1.000  O
  O20      1.0000 0.41337  0.79530  0.85084  Biso   1.000  O
  O21      1.0000 0.05436  0.65330  0.49644  Biso   1.000  O
  O22      1.0000 0.07317  0.55880  0.60810  Biso   1.000  O
  O23      1.0000 0.01888  0.71870  0.31650  Biso   1.000  O
  O24      1.0000 0.98278  0.37760  0.29090  Biso   1.000  O
  C31      1.0000 0.09168  0.62710  0.57300  Biso   1.000  C
  C32      1.0000 0.99100  0.11390  0.30370  Biso   1.000  C
  H19      1.0000 0.98430  0.15820  0.33910  Biso   1.000  H
  C33      1.0000 0.16396  0.68060  0.62640  Biso   1.000  C
  C34      1.0000 0.18700  0.76140  0.59180  Biso   1.000  C
  H20      1.0000 0.15760  0.78290  0.53560  Biso   1.000  H
  C35      1.0000 0.20860  0.64970  0.71040  Biso   1.000  C
  C36      1.0000 0.99210  0.98160  0.30490  Biso   1.000  C
  H21      1.0000 0.98760  0.93790  0.34240  Biso   1.000  H
  C37      1.0000 0.29845  0.77780  0.72420  Biso   1.000  C
  C38      1.0000 0.25410  0.81010  0.64140  Biso   1.000  C
  H22      1.0000 0.26900  0.86520  0.61810  Biso   1.000  H
  C39      1.0000 0.27540  0.69630  0.75850  Biso   1.000  C
  H23      1.0000 0.30540  0.67290  0.81430  Biso   1.000  H
  C40      1.0000 0.37043  0.82970  0.77590  Biso   1.000  C
  H24      1.0000 0.19600  0.59000  0.73600  Biso   1.000  H
  Tb5      1.0000 0.50132  0.95341  0.87353  Biso   1.000  Tb
  O25      1.0000 0.88786  0.58890  0.24377  Biso   1.000  O
  O26      1.0000 0.91337  0.70470  0.35084  Biso   1.000  O
  O27      1.0000 0.55436  0.84670  0.99644  Biso   1.000  O
  O28      1.0000 0.57317  0.94120  0.10810  Biso   1.000  O
  O29      1.0000 0.51888  0.78130  0.81650  Biso   1.000  O
  O30      1.0000 0.48278  0.12240  0.79090  Biso   1.000  O
  C41      1.0000 0.59168  0.87290  0.07300  Biso   1.000  C
  C42      1.0000 0.49100  0.38610  0.80370  Biso   1.000  C
  H25      1.0000 0.48430  0.34180  0.83910  Biso   1.000  H
  C43      1.0000 0.66396  0.81940  0.12640  Biso   1.000  C
  C44      1.0000 0.68700  0.73860  0.09180  Biso   1.000  C
  H26      1.0000 0.65760  0.71710  0.03560  Biso   1.000  H
  C45      1.0000 0.70860  0.85030  0.21040  Biso   1.000  C
  C46      1.0000 0.49210  0.51840  0.80490  Biso   1.000  C
  H27      1.0000 0.48760  0.56210  0.84240  Biso   1.000  H
  C47      1.0000 0.79845  0.72220  0.22420  Biso   1.000  C
  C48      1.0000 0.75410  0.68990  0.14140  Biso   1.000  C
  H28      1.0000 0.76900  0.63480  0.11810  Biso   1.000  H
  C49      1.0000 0.77540  0.80370  0.25850  Biso   1.000  C
  H29      1.0000 0.80540  0.82710  0.31430  Biso   1.000  H
  C50      1.0000 0.87043  0.67030  0.27590  Biso   1.000  C
  H30      1.0000 0.69600  0.91000  0.23600  Biso   1.000  H
  Tb6      1.0000 0.00132  0.45341  0.87353  Biso   1.000  Tb
  O31      1.0000 0.38786  0.08890  0.24377  Biso   1.000  O
  O32      1.0000 0.41337  0.20470  0.35084  Biso   1.000  O
  O33      1.0000 0.05436  0.34670  0.99644  Biso   1.000  O
  O34      1.0000 0.07317  0.44120  0.10810  Biso   1.000  O
  O35      1.0000 0.01888  0.28130  0.81650  Biso   1.000  O
  O36      1.0000 0.98278  0.62240  0.79090  Biso   1.000  O
  C51      1.0000 0.09168  0.37290  0.07300  Biso   1.000  C
  C52      1.0000 0.99100  0.88610  0.80370  Biso   1.000  C
  H31      1.0000 0.98430  0.84180  0.83910  Biso   1.000  H
  C53      1.0000 0.16396  0.31940  0.12640  Biso   1.000  C
  C54      1.0000 0.18700  0.23860  0.09180  Biso   1.000  C
  H32      1.0000 0.15760  0.21710  0.03560  Biso   1.000  H
  C55      1.0000 0.20860  0.35030  0.21040  Biso   1.000  C
  C56      1.0000 0.99210  0.01840  0.80490  Biso   1.000  C
  H33      1.0000 0.98760  0.06210  0.84240  Biso   1.000  H
  C57      1.0000 0.29845  0.22220  0.22420  Biso   1.000  C
  C58      1.0000 0.25410  0.18990  0.14140  Biso   1.000  C
  H34      1.0000 0.26900  0.13480  0.11810  Biso   1.000  H
  C59      1.0000 0.27540  0.30370  0.25850  Biso   1.000  C
  H35      1.0000 0.30540  0.32710  0.31430  Biso   1.000  H
  C60      1.0000 0.37043  0.17030  0.27590  Biso   1.000  C
  H36      1.0000 0.19600  0.41000  0.23600  Biso   1.000  H
  Tb7      1.0000 0.49868  0.95341  0.62647  Biso   1.000  Tb
  O37      1.0000 0.11214  0.58890  0.25623  Biso   1.000  O
  O38      1.0000 0.08663  0.70470  0.14916  Biso   1.000  O
  O39      1.0000 0.44564  0.84670  0.50356  Biso   1.000  O
  O40      1.0000 0.42683  0.94120  0.39190  Biso   1.000  O
  O41      1.0000 0.48112  0.78130  0.68350  Biso   1.000  O
  O42      1.0000 0.51722  0.12240  0.70910  Biso   1.000  O
  C61      1.0000 0.40832  0.87290  0.42700  Biso   1.000  C
  C62      1.0000 0.50900  0.38610  0.69630  Biso   1.000  C
  H37      1.0000 0.51570  0.34180  0.66090  Biso   1.000  H
  C63      1.0000 0.33604  0.81940  0.37360  Biso   1.000  C
  C64      1.0000 0.31300  0.73860  0.40820  Biso   1.000  C
  H38      1.0000 0.34240  0.71710  0.46440  Biso   1.000  H
  C65      1.0000 0.29140  0.85030  0.28960  Biso   1.000  C
  C66      1.0000 0.50790  0.51840  0.69510  Biso   1.000  C
  H39      1.0000 0.51240  0.56210  0.65760  Biso   1.000  H
  C67      1.0000 0.20155  0.72220  0.27580  Biso   1.000  C
  C68      1.0000 0.24590  0.68990  0.35860  Biso   1.000  C
  H40      1.0000 0.23100  0.63480  0.38190  Biso   1.000  H
  C69      1.0000 0.22460  0.80370  0.24150  Biso   1.000  C
  H41      1.0000 0.19460  0.82710  0.18570  Biso   1.000  H
  C70      1.0000 0.12957  0.67030  0.22410  Biso   1.000  C
  H42      1.0000 0.30400  0.91000  0.26400  Biso   1.000  H
  Tb8      1.0000 0.99868  0.45341  0.62647  Biso   1.000  Tb
  O43      1.0000 0.61214  0.08890  0.25623  Biso   1.000  O
  O44      1.0000 0.58663  0.20470  0.14916  Biso   1.000  O
  O45      1.0000 0.94564  0.34670  0.50356  Biso   1.000  O
  O46      1.0000 0.92683  0.44120  0.39190  Biso   1.000  O
  O47      1.0000 0.98112  0.28130  0.68350  Biso   1.000  O
  O48      1.0000 0.01722  0.62240  0.70910  Biso   1.000  O
  C71      1.0000 0.90832  0.37290  0.42700  Biso   1.000  C
  C72      1.0000 0.00900  0.88610  0.69630  Biso   1.000  C
  H43      1.0000 0.01570  0.84180  0.66090  Biso   1.000  H
  C73      1.0000 0.83604  0.31940  0.37360  Biso   1.000  C
  C74      1.0000 0.81300  0.23860  0.40820  Biso   1.000  C
  H44      1.0000 0.84240  0.21710  0.46440  Biso   1.000  H
  C75      1.0000 0.79140  0.35030  0.28960  Biso   1.000  C
  C76      1.0000 0.00790  0.01840  0.69510  Biso   1.000  C
  H45      1.0000 0.01240  0.06210  0.65760  Biso   1.000  H
  C77      1.0000 0.70155  0.22220  0.27580  Biso   1.000  C
  C78      1.0000 0.74590  0.18990  0.35860  Biso   1.000  C
  H46      1.0000 0.73100  0.13480  0.38190  Biso   1.000  H
  C79      1.0000 0.72460  0.30370  0.24150  Biso   1.000  C
  H47      1.0000 0.69460  0.32710  0.18570  Biso   1.000  H
  C80      1.0000 0.62957  0.17030  0.22410  Biso   1.000  C
  H48      1.0000 0.80400  0.41000  0.26400  Biso   1.000  H
  C81      1.0000 0.50000  0.82190  0.25000  Biso   1.000  C
  C82      1.0000 0.50000  0.27260  0.25000  Biso   1.000  C
  C83      1.0000 0.50000  0.41460  0.25000  Biso   1.000  C
  C84      1.0000 0.50000  0.67940  0.25000  Biso   1.000  C
  C85      1.0000 0.00000  0.32190  0.25000  Biso   1.000  C
  C86      1.0000 0.00000  0.77260  0.25000  Biso   1.000  C
  C87      1.0000 0.00000  0.91460  0.25000  Biso   1.000  C
  C88      1.0000 0.00000  0.17940  0.25000  Biso   1.000  C
  C89      1.0000 0.50000  0.17810  0.75000  Biso   1.000  C
  C90      1.0000 0.50000  0.72740  0.75000  Biso   1.000  C
  C91      1.0000 0.50000  0.58540  0.75000  Biso   1.000  C
  C92      1.0000 0.50000  0.32060  0.75000  Biso   1.000  C
  C93      1.0000 0.00000  0.67810  0.75000  Biso   1.000  C
  C94      1.0000 0.00000  0.22740  0.75000  Biso   1.000  C
  C95      1.0000 0.00000  0.08540  0.75000  Biso   1.000  C
  C96      1.0000 0.00000  0.82060  0.75000  Biso   1.000  C
