data_image0
_cell_length_a       12.5382
_cell_length_b       16.2052
_cell_length_c       20.0829
_cell_angle_alpha    90
_cell_angle_beta     94.732
_cell_angle_gamma    90

_symmetry_space_group_name_H-M    "P 1"
_symmetry_int_tables_number       1

loop_
  _symmetry_equiv_pos_as_xyz
  'x, y, z'

loop_
  _atom_site_label
  _atom_site_occupancy
  _atom_site_fract_x
  _atom_site_fract_y
  _atom_site_fract_z
  _atom_site_thermal_displace_type
  _atom_site_B_iso_or_equiv
  _atom_site_type_symbol
  Zn1      1.0000 0.28847  0.40981  0.41205  Biso   1.000  Zn
  C1       1.0000 0.41480  0.54191  0.34332  Biso   1.000  C
  C2       1.0000 0.51830  0.53150  0.38416  Biso   1.000  C
  H1       1.0000 0.51080  0.48990  0.41750  Biso   1.000  H
  H2       1.0000 0.53840  0.58280  0.40560  Biso   1.000  H
  H3       1.0000 0.57250  0.51500  0.35580  Biso   1.000  H
  C3       1.0000 0.15730  0.29610  0.31400  Biso   1.000  C
  C4       1.0000 0.21840  0.30760  0.25480  Biso   1.000  C
  H4       1.0000 0.19000  0.27210  0.21940  Biso   1.000  H
  H5       1.0000 0.29230  0.29420  0.26620  Biso   1.000  H
  H6       1.0000 0.21280  0.36400  0.24030  Biso   1.000  H
  C5       1.0000 0.46480  0.32160  0.41628  Biso   1.000  C
  C6       1.0000 0.57340  0.28800  0.43841  Biso   1.000  C
  C7       1.0000 0.63030  0.24160  0.39366  Biso   1.000  C
  H7       1.0000 0.59930  0.23080  0.35090  Biso   1.000  H
  C8       1.0000 0.72960  0.21240  0.41223  Biso   1.000  C
  H8       1.0000 0.76650  0.18270  0.38190  Biso   1.000  H
  C9       1.0000 0.77750  0.22690  0.47739  Biso   1.000  C
  C10      1.0000 0.88150  0.19670  0.49839  Biso   1.000  C
  H9       1.0000 0.91920  0.16630  0.46890  Biso   1.000  H
  N1       1.0000 0.32520  0.50074  0.35097  Biso   1.000  N
  N2       1.0000 0.25150  0.52915  0.30191  Biso   1.000  N
  N3       1.0000 0.29530  0.58484  0.26776  Biso   1.000  N
  N4       1.0000 0.39900  0.59538  0.29260  Biso   1.000  N
  N5       1.0000 0.17350  0.33469  0.37221  Biso   1.000  N
  N6       1.0000 0.09940  0.30536  0.41162  Biso   1.000  N
  N7       1.0000 0.04090  0.25118  0.37839  Biso   1.000  N
  N8       1.0000 0.07610  0.24399  0.31629  Biso   1.000  N
  O1       1.0000 0.41666  0.36260  0.45873  Biso   1.000  O
  O2       1.0000 0.42690  0.31107  0.35815  Biso   1.000  O
  Zn2      1.0000 0.78847  0.90981  0.41205  Biso   1.000  Zn
  C11      1.0000 0.91480  0.04191  0.34332  Biso   1.000  C
  C12      1.0000 0.01830  0.03150  0.38416  Biso   1.000  C
  H10      1.0000 0.01080  0.98990  0.41750  Biso   1.000  H
  H11      1.0000 0.03840  0.08280  0.40560  Biso   1.000  H
  H12      1.0000 0.07250  0.01500  0.35580  Biso   1.000  H
  C13      1.0000 0.65730  0.79610  0.31400  Biso   1.000  C
  C14      1.0000 0.71840  0.80760  0.25480  Biso   1.000  C
  H13      1.0000 0.69000  0.77210  0.21940  Biso   1.000  H
  H14      1.0000 0.79230  0.79420  0.26620  Biso   1.000  H
  H15      1.0000 0.71280  0.86400  0.24030  Biso   1.000  H
  C15      1.0000 0.96480  0.82160  0.41628  Biso   1.000  C
  C16      1.0000 0.07340  0.78800  0.43841  Biso   1.000  C
  C17      1.0000 0.13030  0.74160  0.39366  Biso   1.000  C
  H16      1.0000 0.09930  0.73080  0.35090  Biso   1.000  H
  C18      1.0000 0.22960  0.71240  0.41223  Biso   1.000  C
  H17      1.0000 0.26650  0.68270  0.38190  Biso   1.000  H
  C19      1.0000 0.27750  0.72690  0.47739  Biso   1.000  C
  C20      1.0000 0.38150  0.69670  0.49839  Biso   1.000  C
  H18      1.0000 0.41920  0.66630  0.46890  Biso   1.000  H
  N9       1.0000 0.82520  0.00074  0.35097  Biso   1.000  N
  N10      1.0000 0.75150  0.02915  0.30191  Biso   1.000  N
  N11      1.0000 0.79530  0.08484  0.26776  Biso   1.000  N
  N12      1.0000 0.89900  0.09538  0.29260  Biso   1.000  N
  N13      1.0000 0.67350  0.83469  0.37221  Biso   1.000  N
  N14      1.0000 0.59940  0.80536  0.41162  Biso   1.000  N
  N15      1.0000 0.54090  0.75118  0.37839  Biso   1.000  N
  N16      1.0000 0.57610  0.74399  0.31629  Biso   1.000  N
  O3       1.0000 0.91666  0.86260  0.45873  Biso   1.000  O
  O4       1.0000 0.92690  0.81107  0.35815  Biso   1.000  O
  Zn3      1.0000 0.71153  0.40981  0.08795  Biso   1.000  Zn
  C21      1.0000 0.58520  0.54191  0.15668  Biso   1.000  C
  C22      1.0000 0.48170  0.53150  0.11584  Biso   1.000  C
  H19      1.0000 0.48920  0.48990  0.08250  Biso   1.000  H
  H20      1.0000 0.46160  0.58280  0.09440  Biso   1.000  H
  H21      1.0000 0.42750  0.51500  0.14420  Biso   1.000  H
  C23      1.0000 0.84270  0.29610  0.18600  Biso   1.000  C
  C24      1.0000 0.78160  0.30760  0.24520  Biso   1.000  C
  H22      1.0000 0.81000  0.27210  0.28060  Biso   1.000  H
  H23      1.0000 0.70770  0.29420  0.23380  Biso   1.000  H
  H24      1.0000 0.78720  0.36400  0.25970  Biso   1.000  H
  C25      1.0000 0.53520  0.32160  0.08372  Biso   1.000  C
  C26      1.0000 0.42660  0.28800  0.06159  Biso   1.000  C
  C27      1.0000 0.36970  0.24160  0.10634  Biso   1.000  C
  H25      1.0000 0.40070  0.23080  0.14910  Biso   1.000  H
  C28      1.0000 0.27040  0.21240  0.08777  Biso   1.000  C
  H26      1.0000 0.23350  0.18270  0.11810  Biso   1.000  H
  C29      1.0000 0.22250  0.22690  0.02261  Biso   1.000  C
  C30      1.0000 0.11850  0.19670  0.00161  Biso   1.000  C
  H27      1.0000 0.08080  0.16630  0.03110  Biso   1.000  H
  N17      1.0000 0.67480  0.50074  0.14903  Biso   1.000  N
  N18      1.0000 0.74850  0.52915  0.19809  Biso   1.000  N
  N19      1.0000 0.70470  0.58484  0.23224  Biso   1.000  N
  N20      1.0000 0.60100  0.59538  0.20740  Biso   1.000  N
  N21      1.0000 0.82650  0.33469  0.12779  Biso   1.000  N
  N22      1.0000 0.90060  0.30536  0.08838  Biso   1.000  N
  N23      1.0000 0.95910  0.25118  0.12161  Biso   1.000  N
  N24      1.0000 0.92390  0.24399  0.18371  Biso   1.000  N
  O5       1.0000 0.58334  0.36260  0.04127  Biso   1.000  O
  O6       1.0000 0.57310  0.31107  0.14185  Biso   1.000  O
  Zn4      1.0000 0.21153  0.90981  0.08795  Biso   1.000  Zn
  C31      1.0000 0.08520  0.04191  0.15668  Biso   1.000  C
  C32      1.0000 0.98170  0.03150  0.11584  Biso   1.000  C
  H28      1.0000 0.98920  0.98990  0.08250  Biso   1.000  H
  H29      1.0000 0.96160  0.08280  0.09440  Biso   1.000  H
  H30      1.0000 0.92750  0.01500  0.14420  Biso   1.000  H
  C33      1.0000 0.34270  0.79610  0.18600  Biso   1.000  C
  C34      1.0000 0.28160  0.80760  0.24520  Biso   1.000  C
  H31      1.0000 0.31000  0.77210  0.28060  Biso   1.000  H
  H32      1.0000 0.20770  0.79420  0.23380  Biso   1.000  H
  H33      1.0000 0.28720  0.86400  0.25970  Biso   1.000  H
  C35      1.0000 0.03520  0.82160  0.08372  Biso   1.000  C
  C36      1.0000 0.92660  0.78800  0.06159  Biso   1.000  C
  C37      1.0000 0.86970  0.74160  0.10634  Biso   1.000  C
  H34      1.0000 0.90070  0.73080  0.14910  Biso   1.000  H
  C38      1.0000 0.77040  0.71240  0.08777  Biso   1.000  C
  H35      1.0000 0.73350  0.68270  0.11810  Biso   1.000  H
  C39      1.0000 0.72250  0.72690  0.02261  Biso   1.000  C
  C40      1.0000 0.61850  0.69670  0.00161  Biso   1.000  C
  H36      1.0000 0.58080  0.66630  0.03110  Biso   1.000  H
  N25      1.0000 0.17480  0.00074  0.14903  Biso   1.000  N
  N26      1.0000 0.24850  0.02915  0.19809  Biso   1.000  N
  N27      1.0000 0.20470  0.08484  0.23224  Biso   1.000  N
  N28      1.0000 0.10100  0.09538  0.20740  Biso   1.000  N
  N29      1.0000 0.32650  0.83469  0.12779  Biso   1.000  N
  N30      1.0000 0.40060  0.80536  0.08838  Biso   1.000  N
  N31      1.0000 0.45910  0.75118  0.12161  Biso   1.000  N
  N32      1.0000 0.42390  0.74399  0.18371  Biso   1.000  N
  O7       1.0000 0.08334  0.86260  0.04127  Biso   1.000  O
  O8       1.0000 0.07310  0.81107  0.14185  Biso   1.000  O
  Zn5      1.0000 0.71153  0.59019  0.58795  Biso   1.000  Zn
  C41      1.0000 0.58520  0.45809  0.65668  Biso   1.000  C
  C42      1.0000 0.48170  0.46850  0.61584  Biso   1.000  C
  H37      1.0000 0.48920  0.51010  0.58250  Biso   1.000  H
  H38      1.0000 0.46160  0.41720  0.59440  Biso   1.000  H
  H39      1.0000 0.42750  0.48500  0.64420  Biso   1.000  H
  C43      1.0000 0.84270  0.70390  0.68600  Biso   1.000  C
  C44      1.0000 0.78160  0.69240  0.74520  Biso   1.000  C
  H40      1.0000 0.81000  0.72790  0.78060  Biso   1.000  H
  H41      1.0000 0.70770  0.70580  0.73380  Biso   1.000  H
  H42      1.0000 0.78720  0.63600  0.75970  Biso   1.000  H
  C45      1.0000 0.53520  0.67840  0.58372  Biso   1.000  C
  C46      1.0000 0.42660  0.71200  0.56159  Biso   1.000  C
  C47      1.0000 0.36970  0.75840  0.60634  Biso   1.000  C
  H43      1.0000 0.40070  0.76920  0.64910  Biso   1.000  H
  C48      1.0000 0.27040  0.78760  0.58777  Biso   1.000  C
  H44      1.0000 0.23350  0.81730  0.61810  Biso   1.000  H
  C49      1.0000 0.22250  0.77310  0.52261  Biso   1.000  C
  C50      1.0000 0.11850  0.80330  0.50161  Biso   1.000  C
  H45      1.0000 0.08080  0.83370  0.53110  Biso   1.000  H
  N33      1.0000 0.67480  0.49926  0.64903  Biso   1.000  N
  N34      1.0000 0.74850  0.47085  0.69809  Biso   1.000  N
  N35      1.0000 0.70470  0.41516  0.73224  Biso   1.000  N
  N36      1.0000 0.60100  0.40462  0.70740  Biso   1.000  N
  N37      1.0000 0.82650  0.66531  0.62779  Biso   1.000  N
  N38      1.0000 0.90060  0.69464  0.58838  Biso   1.000  N
  N39      1.0000 0.95910  0.74882  0.62161  Biso   1.000  N
  N40      1.0000 0.92390  0.75601  0.68371  Biso   1.000  N
  O9       1.0000 0.58334  0.63740  0.54127  Biso   1.000  O
  O10      1.0000 0.57310  0.68893  0.64185  Biso   1.000  O
  Zn6      1.0000 0.21153  0.09019  0.58795  Biso   1.000  Zn
  C51      1.0000 0.08520  0.95809  0.65668  Biso   1.000  C
  C52      1.0000 0.98170  0.96850  0.61584  Biso   1.000  C
  H46      1.0000 0.98920  0.01010  0.58250  Biso   1.000  H
  H47      1.0000 0.96160  0.91720  0.59440  Biso   1.000  H
  H48      1.0000 0.92750  0.98500  0.64420  Biso   1.000  H
  C53      1.0000 0.34270  0.20390  0.68600  Biso   1.000  C
  C54      1.0000 0.28160  0.19240  0.74520  Biso   1.000  C
  H49      1.0000 0.31000  0.22790  0.78060  Biso   1.000  H
  H50      1.0000 0.20770  0.20580  0.73380  Biso   1.000  H
  H51      1.0000 0.28720  0.13600  0.75970  Biso   1.000  H
  C55      1.0000 0.03520  0.17840  0.58372  Biso   1.000  C
  C56      1.0000 0.92660  0.21200  0.56159  Biso   1.000  C
  C57      1.0000 0.86970  0.25840  0.60634  Biso   1.000  C
  H52      1.0000 0.90070  0.26920  0.64910  Biso   1.000  H
  C58      1.0000 0.77040  0.28760  0.58777  Biso   1.000  C
  H53      1.0000 0.73350  0.31730  0.61810  Biso   1.000  H
  C59      1.0000 0.72250  0.27310  0.52261  Biso   1.000  C
  C60      1.0000 0.61850  0.30330  0.50161  Biso   1.000  C
  H54      1.0000 0.58080  0.33370  0.53110  Biso   1.000  H
  N41      1.0000 0.17480  0.99926  0.64903  Biso   1.000  N
  N42      1.0000 0.24850  0.97085  0.69809  Biso   1.000  N
  N43      1.0000 0.20470  0.91516  0.73224  Biso   1.000  N
  N44      1.0000 0.10100  0.90462  0.70740  Biso   1.000  N
  N45      1.0000 0.32650  0.16531  0.62779  Biso   1.000  N
  N46      1.0000 0.40060  0.19464  0.58838  Biso   1.000  N
  N47      1.0000 0.45910  0.24882  0.62161  Biso   1.000  N
  N48      1.0000 0.42390  0.25601  0.68371  Biso   1.000  N
  O11      1.0000 0.08334  0.13740  0.54127  Biso   1.000  O
  O12      1.0000 0.07310  0.18893  0.64185  Biso   1.000  O
  Zn7      1.0000 0.28847  0.59019  0.91205  Biso   1.000  Zn
  C61      1.0000 0.41480  0.45809  0.84332  Biso   1.000  C
  C62      1.0000 0.51830  0.46850  0.88416  Biso   1.000  C
  H55      1.0000 0.51080  0.51010  0.91750  Biso   1.000  H
  H56      1.0000 0.53840  0.41720  0.90560  Biso   1.000  H
  H57      1.0000 0.57250  0.48500  0.85580  Biso   1.000  H
  C63      1.0000 0.15730  0.70390  0.81400  Biso   1.000  C
  C64      1.0000 0.21840  0.69240  0.75480  Biso   1.000  C
  H58      1.0000 0.19000  0.72790  0.71940  Biso   1.000  H
  H59      1.0000 0.29230  0.70580  0.76620  Biso   1.000  H
  H60      1.0000 0.21280  0.63600  0.74030  Biso   1.000  H
  C65      1.0000 0.46480  0.67840  0.91628  Biso   1.000  C
  C66      1.0000 0.57340  0.71200  0.93841  Biso   1.000  C
  C67      1.0000 0.63030  0.75840  0.89366  Biso   1.000  C
  H61      1.0000 0.59930  0.76920  0.85090  Biso   1.000  H
  C68      1.0000 0.72960  0.78760  0.91223  Biso   1.000  C
  H62      1.0000 0.76650  0.81730  0.88190  Biso   1.000  H
  C69      1.0000 0.77750  0.77310  0.97739  Biso   1.000  C
  C70      1.0000 0.88150  0.80330  0.99839  Biso   1.000  C
  H63      1.0000 0.91920  0.83370  0.96890  Biso   1.000  H
  N49      1.0000 0.32520  0.49926  0.85097  Biso   1.000  N
  N50      1.0000 0.25150  0.47085  0.80191  Biso   1.000  N
  N51      1.0000 0.29530  0.41516  0.76776  Biso   1.000  N
  N52      1.0000 0.39900  0.40462  0.79260  Biso   1.000  N
  N53      1.0000 0.17350  0.66531  0.87221  Biso   1.000  N
  N54      1.0000 0.09940  0.69464  0.91162  Biso   1.000  N
  N55      1.0000 0.04090  0.74882  0.87839  Biso   1.000  N
  N56      1.0000 0.07610  0.75601  0.81629  Biso   1.000  N
  O13      1.0000 0.41666  0.63740  0.95873  Biso   1.000  O
  O14      1.0000 0.42690  0.68893  0.85815  Biso   1.000  O
  Zn8      1.0000 0.78847  0.09019  0.91205  Biso   1.000  Zn
  C71      1.0000 0.91480  0.95809  0.84332  Biso   1.000  C
  C72      1.0000 0.01830  0.96850  0.88416  Biso   1.000  C
  H64      1.0000 0.01080  0.01010  0.91750  Biso   1.000  H
  H65      1.0000 0.03840  0.91720  0.90560  Biso   1.000  H
  H66      1.0000 0.07250  0.98500  0.85580  Biso   1.000  H
  C73      1.0000 0.65730  0.20390  0.81400  Biso   1.000  C
  C74      1.0000 0.71840  0.19240  0.75480  Biso   1.000  C
  H67      1.0000 0.69000  0.22790  0.71940  Biso   1.000  H
  H68      1.0000 0.79230  0.20580  0.76620  Biso   1.000  H
  H69      1.0000 0.71280  0.13600  0.74030  Biso   1.000  H
  C75      1.0000 0.96480  0.17840  0.91628  Biso   1.000  C
  C76      1.0000 0.07340  0.21200  0.93841  Biso   1.000  C
  C77      1.0000 0.13030  0.25840  0.89366  Biso   1.000  C
  H70      1.0000 0.09930  0.26920  0.85090  Biso   1.000  H
  C78      1.0000 0.22960  0.28760  0.91223  Biso   1.000  C
  H71      1.0000 0.26650  0.31730  0.88190  Biso   1.000  H
  C79      1.0000 0.27750  0.27310  0.97739  Biso   1.000  C
  C80      1.0000 0.38150  0.30330  0.99839  Biso   1.000  C
  H72      1.0000 0.41920  0.33370  0.96890  Biso   1.000  H
  N57      1.0000 0.82520  0.99926  0.85097  Biso   1.000  N
  N58      1.0000 0.75150  0.97085  0.80191  Biso   1.000  N
  N59      1.0000 0.79530  0.91516  0.76776  Biso   1.000  N
  N60      1.0000 0.89900  0.90462  0.79260  Biso   1.000  N
  N61      1.0000 0.67350  0.16531  0.87221  Biso   1.000  N
  N62      1.0000 0.59940  0.19464  0.91162  Biso   1.000  N
  N63      1.0000 0.54090  0.24882  0.87839  Biso   1.000  N
  N64      1.0000 0.57610  0.25601  0.81629  Biso   1.000  N
  O15      1.0000 0.91666  0.13740  0.95873  Biso   1.000  O
  O16      1.0000 0.92690  0.18893  0.85815  Biso   1.000  O
  Zn9      1.0000 0.50000  0.66848  0.25000  Biso   1.000  Zn
  Zn10     1.0000 0.00000  0.16848  0.25000  Biso   1.000  Zn
  Zn11     1.0000 0.50000  0.33152  0.75000  Biso   1.000  Zn
  Zn12     1.0000 0.00000  0.83152  0.75000  Biso   1.000  Zn
