data_image0
_cell_length_a       14.6958
_cell_length_b       11.6451
_cell_length_c       20.5912
_cell_angle_alpha    90
_cell_angle_beta     93.811
_cell_angle_gamma    90

_symmetry_space_group_name_H-M    "P 1"
_symmetry_int_tables_number       1

loop_
  _symmetry_equiv_pos_as_xyz
  'x, y, z'

loop_
  _atom_site_label
  _atom_site_occupancy
  _atom_site_fract_x
  _atom_site_fract_y
  _atom_site_fract_z
  _atom_site_thermal_displace_type
  _atom_site_B_iso_or_equiv
  _atom_site_type_symbol
  Be1      1.0000 0.60060  0.67320  0.23520  Biso   1.000  Be
  Be2      1.0000 0.65510  0.71830  0.50640  Biso   1.000  Be
  Be3      1.0000 0.41450  0.93090  0.63780  Biso   1.000  Be
  Be4      1.0000 0.34720  0.61430  0.59610  Biso   1.000  Be
  Be5      1.0000 0.38150  0.27440  0.61700  Biso   1.000  Be
  P1       1.0000 0.63580  0.75094  0.36466  Biso   1.000  P
  P2       1.0000 0.47546  0.77014  0.54238  Biso   1.000  P
  P3       1.0000 0.28683  0.77268  0.69556  Biso   1.000  P
  P4       1.0000 0.44169  0.46336  0.69596  Biso   1.000  P
  P5       1.0000 0.28540  0.41309  0.52246  Biso   1.000  P
  P6       1.0000 0.26498  0.08341  0.59238  Biso   1.000  P
  P7       1.0000 0.52723  0.13046  0.66128  Biso   1.000  P
  O1       1.0000 0.61640  0.66080  0.31310  Biso   1.000  O
  O2       1.0000 0.62710  0.70240  0.42943  Biso   1.000  O
  O3       1.0000 0.56220  0.84390  0.35660  Biso   1.000  O
  H1       1.0000 0.54540  0.85020  0.31800  Biso   1.000  H
  O4       1.0000 0.72700  0.80630  0.35770  Biso   1.000  O
  O5       1.0000 0.56360  0.70340  0.54467  Biso   1.000  O
  O6       1.0000 0.48000  0.85920  0.59486  Biso   1.000  O
  O7       1.0000 0.39390  0.69270  0.54522  Biso   1.000  O
  O8       1.0000 0.46230  0.83270  0.47564  Biso   1.000  O
  H2       1.0000 0.50150  0.81120  0.45180  Biso   1.000  H
  O9       1.0000 0.36430  0.85530  0.69057  Biso   1.000  O
  O10      1.0000 0.27450  0.69180  0.63801  Biso   1.000  O
  O11      1.0000 0.19800  0.83910  0.70187  Biso   1.000  O
  O12      1.0000 0.30780  0.69890  0.75794  Biso   1.000  O
  H3       1.0000 0.26990  0.71270  0.78440  Biso   1.000  H
  O13      1.0000 0.42580  0.55710  0.64651  Biso   1.000  O
  O14      1.0000 0.38400  0.35730  0.68020  Biso   1.000  O
  O15      1.0000 0.41110  0.50910  0.76397  Biso   1.000  O
  H4       1.0000 0.37990  0.56700  0.75810  Biso   1.000  H
  O16      1.0000 0.54100  0.43280  0.70654  Biso   1.000  O
  O17      1.0000 0.27920  0.52460  0.55874  Biso   1.000  O
  O18      1.0000 0.36770  0.34270  0.54827  Biso   1.000  O
  O19      1.0000 0.30390  0.44570  0.44947  Biso   1.000  O
  H5       1.0000 0.27810  0.39940  0.42450  Biso   1.000  H
  O20      1.0000 0.19770  0.34570  0.52157  Biso   1.000  O
  O21      1.0000 0.29810  0.18920  0.63098  Biso   1.000  O
  O22      1.0000 0.18620  0.03290  0.63090  Biso   1.000  O
  H6       1.0000 0.20350  0.97370  0.64930  Biso   1.000  H
  O23      1.0000 0.22550  0.11640  0.52525  Biso   1.000  O
  O24      1.0000 0.33970  0.99550  0.58553  Biso   1.000  O
  O25      1.0000 0.47740  0.20550  0.61024  Biso   1.000  O
  O26      1.0000 0.47140  0.02900  0.68074  Biso   1.000  O
  O27      1.0000 0.61300  0.08120  0.63022  Biso   1.000  O
  H7       1.0000 0.65600  0.12550  0.63700  Biso   1.000  H
  O28      1.0000 0.55510  0.20040  0.72194  Biso   1.000  O
  Be6      1.0000 0.10060  0.17320  0.23520  Biso   1.000  Be
  Be7      1.0000 0.15510  0.21830  0.50640  Biso   1.000  Be
  Be8      1.0000 0.91450  0.43090  0.63780  Biso   1.000  Be
  Be9      1.0000 0.84720  0.11430  0.59610  Biso   1.000  Be
  Be10     1.0000 0.88150  0.77440  0.61700  Biso   1.000  Be
  P8       1.0000 0.13580  0.25094  0.36466  Biso   1.000  P
  P9       1.0000 0.97546  0.27014  0.54238  Biso   1.000  P
  P10      1.0000 0.78683  0.27268  0.69556  Biso   1.000  P
  P11      1.0000 0.94169  0.96336  0.69596  Biso   1.000  P
  P12      1.0000 0.78540  0.91309  0.52246  Biso   1.000  P
  P13      1.0000 0.76498  0.58341  0.59238  Biso   1.000  P
  P14      1.0000 0.02723  0.63046  0.66128  Biso   1.000  P
  O29      1.0000 0.11640  0.16080  0.31310  Biso   1.000  O
  O30      1.0000 0.12710  0.20240  0.42943  Biso   1.000  O
  O31      1.0000 0.06220  0.34390  0.35660  Biso   1.000  O
  H8       1.0000 0.04540  0.35020  0.31800  Biso   1.000  H
  O32      1.0000 0.22700  0.30630  0.35770  Biso   1.000  O
  O33      1.0000 0.06360  0.20340  0.54467  Biso   1.000  O
  O34      1.0000 0.98000  0.35920  0.59486  Biso   1.000  O
  O35      1.0000 0.89390  0.19270  0.54522  Biso   1.000  O
  O36      1.0000 0.96230  0.33270  0.47564  Biso   1.000  O
  H9       1.0000 0.00150  0.31120  0.45180  Biso   1.000  H
  O37      1.0000 0.86430  0.35530  0.69057  Biso   1.000  O
  O38      1.0000 0.77450  0.19180  0.63801  Biso   1.000  O
  O39      1.0000 0.69800  0.33910  0.70187  Biso   1.000  O
  O40      1.0000 0.80780  0.19890  0.75794  Biso   1.000  O
  H10      1.0000 0.76990  0.21270  0.78440  Biso   1.000  H
  O41      1.0000 0.92580  0.05710  0.64651  Biso   1.000  O
  O42      1.0000 0.88400  0.85730  0.68020  Biso   1.000  O
  O43      1.0000 0.91110  0.00910  0.76397  Biso   1.000  O
  H11      1.0000 0.87990  0.06700  0.75810  Biso   1.000  H
  O44      1.0000 0.04100  0.93280  0.70654  Biso   1.000  O
  O45      1.0000 0.77920  0.02460  0.55874  Biso   1.000  O
  O46      1.0000 0.86770  0.84270  0.54827  Biso   1.000  O
  O47      1.0000 0.80390  0.94570  0.44947  Biso   1.000  O
  H12      1.0000 0.77810  0.89940  0.42450  Biso   1.000  H
  O48      1.0000 0.69770  0.84570  0.52157  Biso   1.000  O
  O49      1.0000 0.79810  0.68920  0.63098  Biso   1.000  O
  O50      1.0000 0.68620  0.53290  0.63090  Biso   1.000  O
  H13      1.0000 0.70350  0.47370  0.64930  Biso   1.000  H
  O51      1.0000 0.72550  0.61640  0.52525  Biso   1.000  O
  O52      1.0000 0.83970  0.49550  0.58553  Biso   1.000  O
  O53      1.0000 0.97740  0.70550  0.61024  Biso   1.000  O
  O54      1.0000 0.97140  0.52900  0.68074  Biso   1.000  O
  O55      1.0000 0.11300  0.58120  0.63022  Biso   1.000  O
  H14      1.0000 0.15600  0.62550  0.63700  Biso   1.000  H
  O56      1.0000 0.05510  0.70040  0.72194  Biso   1.000  O
  Be11     1.0000 0.60060  0.32680  0.73520  Biso   1.000  Be
  Be12     1.0000 0.65510  0.28170  0.00640  Biso   1.000  Be
  Be13     1.0000 0.41450  0.06910  0.13780  Biso   1.000  Be
  Be14     1.0000 0.34720  0.38570  0.09610  Biso   1.000  Be
  Be15     1.0000 0.38150  0.72560  0.11700  Biso   1.000  Be
  P15      1.0000 0.63580  0.24906  0.86466  Biso   1.000  P
  P16      1.0000 0.47546  0.22986  0.04238  Biso   1.000  P
  P17      1.0000 0.28683  0.22732  0.19556  Biso   1.000  P
  P18      1.0000 0.44169  0.53664  0.19596  Biso   1.000  P
  P19      1.0000 0.28540  0.58691  0.02246  Biso   1.000  P
  P20      1.0000 0.26498  0.91659  0.09238  Biso   1.000  P
  P21      1.0000 0.52723  0.86954  0.16128  Biso   1.000  P
  O57      1.0000 0.61640  0.33920  0.81310  Biso   1.000  O
  O58      1.0000 0.62710  0.29760  0.92943  Biso   1.000  O
  O59      1.0000 0.56220  0.15610  0.85660  Biso   1.000  O
  H15      1.0000 0.54540  0.14980  0.81800  Biso   1.000  H
  O60      1.0000 0.72700  0.19370  0.85770  Biso   1.000  O
  O61      1.0000 0.56360  0.29660  0.04467  Biso   1.000  O
  O62      1.0000 0.48000  0.14080  0.09486  Biso   1.000  O
  O63      1.0000 0.39390  0.30730  0.04522  Biso   1.000  O
  O64      1.0000 0.46230  0.16730  0.97564  Biso   1.000  O
  H16      1.0000 0.50150  0.18880  0.95180  Biso   1.000  H
  O65      1.0000 0.36430  0.14470  0.19057  Biso   1.000  O
  O66      1.0000 0.27450  0.30820  0.13801  Biso   1.000  O
  O67      1.0000 0.19800  0.16090  0.20187  Biso   1.000  O
  O68      1.0000 0.30780  0.30110  0.25794  Biso   1.000  O
  H17      1.0000 0.26990  0.28730  0.28440  Biso   1.000  H
  O69      1.0000 0.42580  0.44290  0.14651  Biso   1.000  O
  O70      1.0000 0.38400  0.64270  0.18020  Biso   1.000  O
  O71      1.0000 0.41110  0.49090  0.26397  Biso   1.000  O
  H18      1.0000 0.37990  0.43300  0.25810  Biso   1.000  H
  O72      1.0000 0.54100  0.56720  0.20654  Biso   1.000  O
  O73      1.0000 0.27920  0.47540  0.05874  Biso   1.000  O
  O74      1.0000 0.36770  0.65730  0.04827  Biso   1.000  O
  O75      1.0000 0.30390  0.55430  0.94947  Biso   1.000  O
  H19      1.0000 0.27810  0.60060  0.92450  Biso   1.000  H
  O76      1.0000 0.19770  0.65430  0.02157  Biso   1.000  O
  O77      1.0000 0.29810  0.81080  0.13098  Biso   1.000  O
  O78      1.0000 0.18620  0.96710  0.13090  Biso   1.000  O
  H20      1.0000 0.20350  0.02630  0.14930  Biso   1.000  H
  O79      1.0000 0.22550  0.88360  0.02525  Biso   1.000  O
  O80      1.0000 0.33970  0.00450  0.08553  Biso   1.000  O
  O81      1.0000 0.47740  0.79450  0.11024  Biso   1.000  O
  O82      1.0000 0.47140  0.97100  0.18074  Biso   1.000  O
  O83      1.0000 0.61300  0.91880  0.13022  Biso   1.000  O
  H21      1.0000 0.65600  0.87450  0.13700  Biso   1.000  H
  O84      1.0000 0.55510  0.79960  0.22194  Biso   1.000  O
  Be16     1.0000 0.10060  0.82680  0.73520  Biso   1.000  Be
  Be17     1.0000 0.15510  0.78170  0.00640  Biso   1.000  Be
  Be18     1.0000 0.91450  0.56910  0.13780  Biso   1.000  Be
  Be19     1.0000 0.84720  0.88570  0.09610  Biso   1.000  Be
  Be20     1.0000 0.88150  0.22560  0.11700  Biso   1.000  Be
  P22      1.0000 0.13580  0.74906  0.86466  Biso   1.000  P
  P23      1.0000 0.97546  0.72986  0.04238  Biso   1.000  P
  P24      1.0000 0.78683  0.72732  0.19556  Biso   1.000  P
  P25      1.0000 0.94169  0.03664  0.19596  Biso   1.000  P
  P26      1.0000 0.78540  0.08691  0.02246  Biso   1.000  P
  P27      1.0000 0.76498  0.41659  0.09238  Biso   1.000  P
  P28      1.0000 0.02723  0.36954  0.16128  Biso   1.000  P
  O85      1.0000 0.11640  0.83920  0.81310  Biso   1.000  O
  O86      1.0000 0.12710  0.79760  0.92943  Biso   1.000  O
  O87      1.0000 0.06220  0.65610  0.85660  Biso   1.000  O
  H22      1.0000 0.04540  0.64980  0.81800  Biso   1.000  H
  O88      1.0000 0.22700  0.69370  0.85770  Biso   1.000  O
  O89      1.0000 0.06360  0.79660  0.04467  Biso   1.000  O
  O90      1.0000 0.98000  0.64080  0.09486  Biso   1.000  O
  O91      1.0000 0.89390  0.80730  0.04522  Biso   1.000  O
  O92      1.0000 0.96230  0.66730  0.97564  Biso   1.000  O
  H23      1.0000 0.00150  0.68880  0.95180  Biso   1.000  H
  O93      1.0000 0.86430  0.64470  0.19057  Biso   1.000  O
  O94      1.0000 0.77450  0.80820  0.13801  Biso   1.000  O
  O95      1.0000 0.69800  0.66090  0.20187  Biso   1.000  O
  O96      1.0000 0.80780  0.80110  0.25794  Biso   1.000  O
  H24      1.0000 0.76990  0.78730  0.28440  Biso   1.000  H
  O97      1.0000 0.92580  0.94290  0.14651  Biso   1.000  O
  O98      1.0000 0.88400  0.14270  0.18020  Biso   1.000  O
  O99      1.0000 0.91110  0.99090  0.26397  Biso   1.000  O
  H25      1.0000 0.87990  0.93300  0.25810  Biso   1.000  H
  O100     1.0000 0.04100  0.06720  0.20654  Biso   1.000  O
  O101     1.0000 0.77920  0.97540  0.05874  Biso   1.000  O
  O102     1.0000 0.86770  0.15730  0.04827  Biso   1.000  O
  O103     1.0000 0.80390  0.05430  0.94947  Biso   1.000  O
  H26      1.0000 0.77810  0.10060  0.92450  Biso   1.000  H
  O104     1.0000 0.69770  0.15430  0.02157  Biso   1.000  O
  O105     1.0000 0.79810  0.31080  0.13098  Biso   1.000  O
  O106     1.0000 0.68620  0.46710  0.13090  Biso   1.000  O
  H27      1.0000 0.70350  0.52630  0.14930  Biso   1.000  H
  O107     1.0000 0.72550  0.38360  0.02525  Biso   1.000  O
  O108     1.0000 0.83970  0.50450  0.08553  Biso   1.000  O
  O109     1.0000 0.97740  0.29450  0.11024  Biso   1.000  O
  O110     1.0000 0.97140  0.47100  0.18074  Biso   1.000  O
  O111     1.0000 0.11300  0.41880  0.13022  Biso   1.000  O
  H28      1.0000 0.15600  0.37450  0.13700  Biso   1.000  H
  O112     1.0000 0.05510  0.29960  0.22194  Biso   1.000  O
