data_image0
_cell_length_a       15.3979
_cell_length_b       11.5941
_cell_length_c       12.5879
_cell_angle_alpha    90
_cell_angle_beta     93.862
_cell_angle_gamma    90

_symmetry_space_group_name_H-M    "P 1"
_symmetry_int_tables_number       1

loop_
  _symmetry_equiv_pos_as_xyz
  'x, y, z'

loop_
  _atom_site_label
  _atom_site_occupancy
  _atom_site_fract_x
  _atom_site_fract_y
  _atom_site_fract_z
  _atom_site_thermal_displace_type
  _atom_site_B_iso_or_equiv
  _atom_site_type_symbol
  Cd1      1.0000 0.10975  0.39774  0.03623  Biso   1.000  Cd
  S1       1.0000 0.14295  0.22092  0.16692  Biso   1.000  S
  Cl1      1.0000 0.15480  0.55733  0.17138  Biso   1.000  Cl
  Cl2      1.0000 0.04705  0.26417  0.88531  Biso   1.000  Cl
  Cl3      1.0000 0.05136  0.57822  0.89636  Biso   1.000  Cl
  N1       1.0000 0.25970  0.10860  0.04080  Biso   1.000  N
  C1       1.0000 0.21260  0.15730  0.09220  Biso   1.000  C
  Cd2      1.0000 0.60976  0.89774  0.03623  Biso   1.000  Cd
  S2       1.0000 0.64295  0.72092  0.16692  Biso   1.000  S
  Cl4      1.0000 0.65480  0.05733  0.17138  Biso   1.000  Cl
  Cl5      1.0000 0.54705  0.76417  0.88531  Biso   1.000  Cl
  Cl6      1.0000 0.55136  0.07822  0.89636  Biso   1.000  Cl
  N2       1.0000 0.75970  0.60860  0.04080  Biso   1.000  N
  C2       1.0000 0.71260  0.65730  0.09220  Biso   1.000  C
  Cd3      1.0000 0.89024  0.39774  0.46377  Biso   1.000  Cd
  S3       1.0000 0.85705  0.22092  0.33308  Biso   1.000  S
  Cl7      1.0000 0.84520  0.55733  0.32862  Biso   1.000  Cl
  Cl8      1.0000 0.95295  0.26417  0.61469  Biso   1.000  Cl
  Cl9      1.0000 0.94864  0.57822  0.60364  Biso   1.000  Cl
  N3       1.0000 0.74030  0.10860  0.45920  Biso   1.000  N
  C3       1.0000 0.78740  0.15730  0.40780  Biso   1.000  C
  Cd4      1.0000 0.39025  0.89774  0.46377  Biso   1.000  Cd
  S4       1.0000 0.35705  0.72092  0.33308  Biso   1.000  S
  Cl10     1.0000 0.34520  0.05733  0.32862  Biso   1.000  Cl
  Cl11     1.0000 0.45295  0.76417  0.61469  Biso   1.000  Cl
  Cl12     1.0000 0.44864  0.07822  0.60364  Biso   1.000  Cl
  N4       1.0000 0.24030  0.60860  0.45920  Biso   1.000  N
  C4       1.0000 0.28740  0.65730  0.40780  Biso   1.000  C
  Cd5      1.0000 0.89024  0.60226  0.96377  Biso   1.000  Cd
  S5       1.0000 0.85705  0.77908  0.83308  Biso   1.000  S
  Cl13     1.0000 0.84520  0.44267  0.82862  Biso   1.000  Cl
  Cl14     1.0000 0.95295  0.73583  0.11469  Biso   1.000  Cl
  Cl15     1.0000 0.94864  0.42178  0.10364  Biso   1.000  Cl
  N5       1.0000 0.74030  0.89140  0.95920  Biso   1.000  N
  C5       1.0000 0.78740  0.84270  0.90780  Biso   1.000  C
  Cd6      1.0000 0.39025  0.10226  0.96377  Biso   1.000  Cd
  S6       1.0000 0.35705  0.27908  0.83308  Biso   1.000  S
  Cl16     1.0000 0.34520  0.94267  0.82862  Biso   1.000  Cl
  Cl17     1.0000 0.45295  0.23583  0.11469  Biso   1.000  Cl
  Cl18     1.0000 0.44864  0.92178  0.10364  Biso   1.000  Cl
  N6       1.0000 0.24030  0.39140  0.95920  Biso   1.000  N
  C6       1.0000 0.28740  0.34270  0.90780  Biso   1.000  C
  Cd7      1.0000 0.10975  0.60226  0.53623  Biso   1.000  Cd
  S7       1.0000 0.14295  0.77908  0.66692  Biso   1.000  S
  Cl19     1.0000 0.15480  0.44267  0.67138  Biso   1.000  Cl
  Cl20     1.0000 0.04705  0.73583  0.38531  Biso   1.000  Cl
  Cl21     1.0000 0.05136  0.42178  0.39636  Biso   1.000  Cl
  N7       1.0000 0.25970  0.89140  0.54080  Biso   1.000  N
  C7       1.0000 0.21260  0.84270  0.59220  Biso   1.000  C
  Cd8      1.0000 0.60976  0.10226  0.53623  Biso   1.000  Cd
  S8       1.0000 0.64295  0.27908  0.66692  Biso   1.000  S
  Cl22     1.0000 0.65480  0.94267  0.67138  Biso   1.000  Cl
  Cl23     1.0000 0.54705  0.23583  0.38531  Biso   1.000  Cl
  Cl24     1.0000 0.55136  0.92178  0.39636  Biso   1.000  Cl
  N8       1.0000 0.75970  0.39140  0.54080  Biso   1.000  N
  C8       1.0000 0.71260  0.34270  0.59220  Biso   1.000  C
  Cd9      1.0000 0.00000  0.57600  0.25000  Biso   1.000  Cd
  Cd10     1.0000 0.50000  0.07600  0.25000  Biso   1.000  Cd
  Cd11     1.0000 0.00000  0.42400  0.75000  Biso   1.000  Cd
  Cd12     1.0000 0.50000  0.92400  0.75000  Biso   1.000  Cd
