data_image0
_cell_length_a       21.6854
_cell_length_b       29.7276
_cell_length_c       34.8286
_cell_angle_alpha    90
_cell_angle_beta     96.342
_cell_angle_gamma    90

_symmetry_space_group_name_H-M    "P 1"
_symmetry_int_tables_number       1

loop_
  _symmetry_equiv_pos_as_xyz
  'x, y, z'

loop_
  _atom_site_label
  _atom_site_occupancy
  _atom_site_fract_x
  _atom_site_fract_y
  _atom_site_fract_z
  _atom_site_thermal_displace_type
  _atom_site_B_iso_or_equiv
  _atom_site_type_symbol
  Mo1      1.0000 0.07166  0.91720  0.03051  Biso   1.000  Mo
  Mo2      1.0000 0.98584  0.92903  0.93985  Biso   1.000  Mo
  Mo3      1.0000 0.22927  0.04081  0.98665  Biso   1.000  Mo
  Mo4      1.0000 0.14997  0.05207  0.90438  Biso   1.000  Mo
  Mo5      1.0000 0.01962  0.98603  0.88904  Biso   1.000  Mo
  Mo6      1.0000 0.17295  0.96412  0.04786  Biso   1.000  Mo
  Mo7      1.0000 0.30894  0.94157  0.00033  Biso   1.000  Mo
  Mo8      1.0000 0.06175  0.83074  0.96494  Biso   1.000  Mo
  Mo9      1.0000 0.18108  0.81127  0.92153  Biso   1.000  Mo
  Mo10     1.0000 0.30746  0.87758  0.94893  Biso   1.000  Mo
  Mo11     1.0000 0.21815  0.89054  0.85620  Biso   1.000  Mo
  Mo12     1.0000 0.15478  0.96407  0.84097  Biso   1.000  Mo
  Zn1      1.0000 0.06743  0.02877  0.98320  Biso   1.000  Zn
  Zn2      1.0000 0.06030  0.86935  0.86955  Biso   1.000  Zn
  Zn3      1.0000 0.20399  0.84881  0.01832  Biso   1.000  Zn
  Zn4      1.0000 0.28811  0.99119  0.90655  Biso   1.000  Zn
  O1       1.0000 0.00928  0.07116  0.00228  Biso   1.000  O
  O2       1.0000 0.09197  0.98026  0.02131  Biso   1.000  O
  O3       1.0000 0.01820  0.99019  0.94474  Biso   1.000  O
  O4       1.0000 0.14250  0.04847  0.96142  Biso   1.000  O
  O5       1.0000 0.01600  0.92047  0.88942  Biso   1.000  O
  O6       1.0000 0.99400  0.86128  0.94300  Biso   1.000  O
  O7       1.0000 0.15370  0.82198  0.97424  Biso   1.000  O
  O8       1.0000 0.09280  0.83044  0.91217  Biso   1.000  O
  O9       1.0000 0.23410  0.03336  0.92956  Biso   1.000  O
  O10      1.0000 0.06180  0.85231  0.01343  Biso   1.000  O
  O11      1.0000 0.19870  0.02522  0.03094  Biso   1.000  O
  O12      1.0000 0.26120  0.81951  0.94261  Biso   1.000  O
  O13      1.0000 0.31340  0.94336  0.94460  Biso   1.000  O
  O14      1.0000 0.27490  0.88075  0.99876  Biso   1.000  O
  O15      1.0000 0.06650  0.04389  0.89509  Biso   1.000  O
  O16      1.0000 0.12890  0.90185  0.84800  Biso   1.000  O
  O17      1.0000 0.26640  0.94696  0.05023  Biso   1.000  O
  O18      1.0000 0.23760  0.95363  0.86700  Biso   1.000  O
  O19      1.0000 0.30150  0.00835  0.99521  Biso   1.000  O
  O20      1.0000 0.30100  0.87913  0.88961  Biso   1.000  O
  O21      1.0000 0.06010  0.97665  0.83794  Biso   1.000  O
  O22      1.0000 0.15954  0.89989  0.03889  Biso   1.000  O
  O23      1.0000 0.16940  0.02699  0.85932  Biso   1.000  O
  O24      1.0000 0.19300  0.82957  0.87259  Biso   1.000  O
  C1       1.0000 0.48960  0.63580  0.30010  Biso   1.000  C
  C2       1.0000 0.45470  0.66220  0.26720  Biso   1.000  C
  C3       1.0000 0.45630  0.70750  0.26730  Biso   1.000  C
  H1       1.0000 0.47830  0.72250  0.28790  Biso   1.000  H
  C4       1.0000 0.42540  0.73250  0.23710  Biso   1.000  C
  H2       1.0000 0.42620  0.76370  0.23840  Biso   1.000  H
  C5       1.0000 0.39400  0.71200  0.20560  Biso   1.000  C
  C6       1.0000 0.39210  0.66630  0.20600  Biso   1.000  C
  H3       1.0000 0.37060  0.65120  0.18530  Biso   1.000  H
  C7       1.0000 0.42190  0.64180  0.23670  Biso   1.000  C
  H4       1.0000 0.41930  0.61060  0.23620  Biso   1.000  H
  C8       1.0000 0.36260  0.74040  0.17370  Biso   1.000  C
  C9       1.0000 0.37470  0.78470  0.17260  Biso   1.000  C
  H5       1.0000 0.40330  0.79710  0.19150  Biso   1.000  H
  C10      1.0000 0.34570  0.81270  0.14370  Biso   1.000  C
  H6       1.0000 0.35510  0.84320  0.14370  Biso   1.000  H
  C11      1.0000 0.30400  0.79560  0.11570  Biso   1.000  C
  C12      1.0000 0.29320  0.75070  0.11590  Biso   1.000  C
  H7       1.0000 0.26630  0.73790  0.09630  Biso   1.000  H
  C13      1.0000 0.32230  0.72370  0.14530  Biso   1.000  C
  H8       1.0000 0.31350  0.69300  0.14520  Biso   1.000  H
  C14      1.0000 0.27240  0.82710  0.08530  Biso   1.000  C
  O25      1.0000 0.49670  0.59541  0.29683  Biso   1.000  O
  O26      1.0000 0.50940  0.66042  0.32916  Biso   1.000  O
  O27      1.0000 0.23750  0.80832  0.05839  Biso   1.000  O
  O28      1.0000 0.28160  0.86720  0.08878  Biso   1.000  O
  C15      1.0000 0.61810  0.04590  0.63480  Biso   1.000  C
  C16      1.0000 0.58240  0.03630  0.66840  Biso   1.000  C
  C17      1.0000 0.59870  0.00170  0.69340  Biso   1.000  C
  H9       1.0000 0.63150  0.98290  0.68900  Biso   1.000  H
  C18      1.0000 0.56700  0.99440  0.72530  Biso   1.000  C
  H10      1.0000 0.57940  0.97110  0.74220  Biso   1.000  H
  C19      1.0000 0.51790  0.02070  0.73250  Biso   1.000  C
  C20      1.0000 0.50220  0.05540  0.70730  Biso   1.000  C
  H11      1.0000 0.46870  0.07370  0.71130  Biso   1.000  H
  C21      1.0000 0.53430  0.06390  0.67630  Biso   1.000  C
  H12      1.0000 0.52350  0.08850  0.66040  Biso   1.000  H
  C22      1.0000 0.48270  0.01130  0.76590  Biso   1.000  C
  C23      1.0000 0.47900  0.96840  0.78030  Biso   1.000  C
  H13      1.0000 0.49960  0.94510  0.76910  Biso   1.000  H
  C24      1.0000 0.44530  0.95870  0.81100  Biso   1.000  C
  H14      1.0000 0.44200  0.92920  0.81950  Biso   1.000  H
  C25      1.0000 0.41710  0.99270  0.82870  Biso   1.000  C
  C26      1.0000 0.42040  0.03510  0.81540  Biso   1.000  C
  H15      1.0000 0.40100  0.05840  0.82730  Biso   1.000  H
  C27      1.0000 0.45280  0.04390  0.78410  Biso   1.000  C
  H16      1.0000 0.45410  0.07330  0.77520  Biso   1.000  H
  C28      1.0000 0.38050  0.98050  0.86210  Biso   1.000  C
  O29      1.0000 0.61750  0.08430  0.62169  Biso   1.000  O
  O30      1.0000 0.35300  0.01300  0.87736  Biso   1.000  O
  O31      1.0000 0.64750  0.01172  0.62242  Biso   1.000  O
  O32      1.0000 0.37940  0.94060  0.87150  Biso   1.000  O
  Mo13     1.0000 0.92250  0.07002  0.45573  Biso   1.000  Mo
  Mo14     1.0000 0.00845  0.08406  0.54601  Biso   1.000  Mo
  Mo15     1.0000 0.97789  0.04146  0.60666  Biso   1.000  Mo
  Mo16     1.0000 0.82519  0.01709  0.44754  Biso   1.000  Mo
  Mo17     1.0000 0.85336  0.96974  0.60553  Biso   1.000  Mo
  Mo18     1.0000 0.92633  0.17198  0.50277  Biso   1.000  Mo
  Mo19     1.0000 0.80347  0.19942  0.53982  Biso   1.000  Mo
  Mo20     1.0000 0.77443  0.95796  0.52310  Biso   1.000  Mo
  Mo21     1.0000 0.68684  0.04881  0.48992  Biso   1.000  Mo
  Mo22     1.0000 0.83997  0.07241  0.64873  Biso   1.000  Mo
  Mo23     1.0000 0.77169  0.13875  0.61886  Biso   1.000  Mo
  Mo24     1.0000 0.68166  0.12503  0.52673  Biso   1.000  Mo
  Zn5      1.0000 0.93444  0.97418  0.52336  Biso   1.000  Zn
  Zn6      1.0000 0.92808  0.15945  0.60283  Biso   1.000  Zn
  Zn7      1.0000 0.78634  0.13614  0.45497  Biso   1.000  Zn
  Zn8      1.0000 0.71119  0.02648  0.59029  Biso   1.000  Zn
  O33      1.0000 0.90728  0.01068  0.47678  Biso   1.000  O
  O34      1.0000 0.83354  0.08222  0.44384  Biso   1.000  O
  O35      1.0000 0.99616  0.93048  0.51047  Biso   1.000  O
  O36      1.0000 0.92770  0.13775  0.45967  Biso   1.000  O
  O37      1.0000 0.98002  0.02263  0.55319  Biso   1.000  O
  O38      1.0000 0.97700  0.10534  0.59337  Biso   1.000  O
  O39      1.0000 0.99570  0.14905  0.52966  Biso   1.000  O
  O40      1.0000 0.93580  0.98205  0.61260  Biso   1.000  O
  O41      1.0000 0.93410  0.06208  0.65335  Biso   1.000  O
  O42      1.0000 0.80430  0.96202  0.47673  Biso   1.000  O
  O43      1.0000 0.73090  0.03113  0.44225  Biso   1.000  O
  O44      1.0000 0.83080  0.00596  0.64406  Biso   1.000  O
  O45      1.0000 0.86150  0.95885  0.54912  Biso   1.000  O
  O46      1.0000 0.76780  0.97950  0.57736  Biso   1.000  O
  O47      1.0000 0.71650  0.10904  0.47929  Biso   1.000  O
  O48      1.0000 0.68020  0.06213  0.54428  Biso   1.000  O
  O49      1.0000 0.69980  0.98548  0.50861  Biso   1.000  O
  O50      1.0000 0.75700  0.07416  0.62144  Biso   1.000  O
  O51      1.0000 0.86110  0.13156  0.62921  Biso   1.000  O
  O52      1.0000 0.79280  0.19461  0.59090  Biso   1.000  O
  O53      1.0000 0.68720  0.13981  0.58486  Biso   1.000  O
  O54      1.0000 0.89320  0.18533  0.55386  Biso   1.000  O
  O55      1.0000 0.83330  0.17547  0.49167  Biso   1.000  O
  O56      1.0000 0.72450  0.18375  0.52141  Biso   1.000  O
  C29      1.0000 0.98780  0.17790  0.67360  Biso   1.000  C
  C30      1.0000 0.01560  0.20730  0.70610  Biso   1.000  C
  C31      1.0000 0.06160  0.19070  0.73100  Biso   1.000  C
  H17      1.0000 0.07520  0.16130  0.72820  Biso   1.000  H
  C32      1.0000 0.08910  0.21760  0.76090  Biso   1.000  C
  H18      1.0000 0.12170  0.20580  0.77750  Biso   1.000  H
  C33      1.0000 0.07030  0.26000  0.76650  Biso   1.000  C
  C34      1.0000 0.02340  0.27690  0.74130  Biso   1.000  C
  H19      1.0000 0.00950  0.30620  0.74450  Biso   1.000  H
  C35      1.0000 0.99600  0.25090  0.71060  Biso   1.000  C
  H20      1.0000 0.96460  0.26300  0.69320  Biso   1.000  H
  C36      1.0000 0.10210  0.28800  0.79810  Biso   1.000  C
  C37      1.0000 0.12530  0.26740  0.83230  Biso   1.000  C
  H21      1.0000 0.11830  0.23690  0.83590  Biso   1.000  H
  C38      1.0000 0.15910  0.29220  0.86130  Biso   1.000  C
  H22      1.0000 0.17250  0.27860  0.88480  Biso   1.000  H
  C39      1.0000 0.17260  0.33600  0.85570  Biso   1.000  C
  C40      1.0000 0.14860  0.35700  0.82250  Biso   1.000  C
  H23      1.0000 0.15550  0.38760  0.81920  Biso   1.000  H
  C41      1.0000 0.11420  0.33270  0.79400  Biso   1.000  C
  H24      1.0000 0.09880  0.34720  0.77120  Biso   1.000  H
  C42      1.0000 0.21290  0.36100  0.88680  Biso   1.000  C
  O57      1.0000 0.98820  0.13750  0.67881  Biso   1.000  O
  O58      1.0000 0.96770  0.19827  0.64245  Biso   1.000  O
  O59      1.0000 0.21000  0.40200  0.88827  Biso   1.000  O
  O60      1.0000 0.24820  0.33600  0.90917  Biso   1.000  O
  Mo25     1.0000 0.42834  0.41720  0.46949  Biso   1.000  Mo
  Mo26     1.0000 0.51416  0.42903  0.56015  Biso   1.000  Mo
  Mo27     1.0000 0.27073  0.54081  0.51335  Biso   1.000  Mo
  Mo28     1.0000 0.35003  0.55207  0.59562  Biso   1.000  Mo
  Mo29     1.0000 0.48038  0.48603  0.61096  Biso   1.000  Mo
  Mo30     1.0000 0.32705  0.46412  0.45214  Biso   1.000  Mo
  Mo31     1.0000 0.19106  0.44157  0.49967  Biso   1.000  Mo
  Mo32     1.0000 0.43825  0.33074  0.53506  Biso   1.000  Mo
  Mo33     1.0000 0.31892  0.31127  0.57847  Biso   1.000  Mo
  Mo34     1.0000 0.19254  0.37758  0.55107  Biso   1.000  Mo
  Mo35     1.0000 0.28185  0.39054  0.64380  Biso   1.000  Mo
  Mo36     1.0000 0.34522  0.46407  0.65903  Biso   1.000  Mo
  Zn9      1.0000 0.43257  0.52877  0.51680  Biso   1.000  Zn
  Zn10     1.0000 0.43970  0.36935  0.63045  Biso   1.000  Zn
  Zn11     1.0000 0.29601  0.34881  0.48168  Biso   1.000  Zn
  Zn12     1.0000 0.21189  0.49119  0.59345  Biso   1.000  Zn
  O61      1.0000 0.49072  0.57116  0.49772  Biso   1.000  O
  O62      1.0000 0.40803  0.48026  0.47869  Biso   1.000  O
  O63      1.0000 0.48180  0.49019  0.55526  Biso   1.000  O
  O64      1.0000 0.35750  0.54847  0.53858  Biso   1.000  O
  O65      1.0000 0.48400  0.42047  0.61058  Biso   1.000  O
  O66      1.0000 0.50600  0.36128  0.55700  Biso   1.000  O
  O67      1.0000 0.34630  0.32198  0.52576  Biso   1.000  O
  O68      1.0000 0.40720  0.33044  0.58783  Biso   1.000  O
  O69      1.0000 0.26590  0.53336  0.57044  Biso   1.000  O
  O70      1.0000 0.43820  0.35231  0.48657  Biso   1.000  O
  O71      1.0000 0.30130  0.52522  0.46906  Biso   1.000  O
  O72      1.0000 0.23880  0.31951  0.55739  Biso   1.000  O
  O73      1.0000 0.18660  0.44336  0.55540  Biso   1.000  O
  O74      1.0000 0.22510  0.38075  0.50124  Biso   1.000  O
  O75      1.0000 0.43350  0.54389  0.60491  Biso   1.000  O
  O76      1.0000 0.37110  0.40185  0.65200  Biso   1.000  O
  O77      1.0000 0.23360  0.44696  0.44977  Biso   1.000  O
  O78      1.0000 0.26240  0.45363  0.63300  Biso   1.000  O
  O79      1.0000 0.19850  0.50835  0.50479  Biso   1.000  O
  O80      1.0000 0.19900  0.37913  0.61039  Biso   1.000  O
  O81      1.0000 0.43990  0.47665  0.66206  Biso   1.000  O
  O82      1.0000 0.34046  0.39989  0.46111  Biso   1.000  O
  O83      1.0000 0.33060  0.52699  0.64068  Biso   1.000  O
  O84      1.0000 0.30700  0.32957  0.62741  Biso   1.000  O
  C43      1.0000 0.01040  0.13580  0.19990  Biso   1.000  C
  C44      1.0000 0.04530  0.16220  0.23280  Biso   1.000  C
  C45      1.0000 0.04370  0.20750  0.23270  Biso   1.000  C
  H25      1.0000 0.02170  0.22250  0.21210  Biso   1.000  H
  C46      1.0000 0.07460  0.23250  0.26290  Biso   1.000  C
  H26      1.0000 0.07380  0.26370  0.26160  Biso   1.000  H
  C47      1.0000 0.10600  0.21200  0.29440  Biso   1.000  C
  C48      1.0000 0.10790  0.16630  0.29400  Biso   1.000  C
  H27      1.0000 0.12940  0.15120  0.31470  Biso   1.000  H
  C49      1.0000 0.07810  0.14180  0.26330  Biso   1.000  C
  H28      1.0000 0.08070  0.11060  0.26380  Biso   1.000  H
  C50      1.0000 0.13740  0.24040  0.32630  Biso   1.000  C
  C51      1.0000 0.12530  0.28470  0.32740  Biso   1.000  C
  H29      1.0000 0.09670  0.29710  0.30850  Biso   1.000  H
  C52      1.0000 0.15430  0.31270  0.35630  Biso   1.000  C
  H30      1.0000 0.14490  0.34320  0.35630  Biso   1.000  H
  C53      1.0000 0.19600  0.29560  0.38430  Biso   1.000  C
  C54      1.0000 0.20680  0.25070  0.38410  Biso   1.000  C
  H31      1.0000 0.23370  0.23790  0.40370  Biso   1.000  H
  C55      1.0000 0.17770  0.22370  0.35470  Biso   1.000  C
  H32      1.0000 0.18650  0.19300  0.35480  Biso   1.000  H
  C56      1.0000 0.22760  0.32710  0.41470  Biso   1.000  C
  O85      1.0000 0.00330  0.09541  0.20317  Biso   1.000  O
  O86      1.0000 0.99060  0.16042  0.17084  Biso   1.000  O
  O87      1.0000 0.26250  0.30832  0.44161  Biso   1.000  O
  O88      1.0000 0.21840  0.36720  0.41122  Biso   1.000  O
  C57      1.0000 0.88190  0.54590  0.86520  Biso   1.000  C
  C58      1.0000 0.91760  0.53630  0.83160  Biso   1.000  C
  C59      1.0000 0.90130  0.50170  0.80660  Biso   1.000  C
  H33      1.0000 0.86850  0.48290  0.81100  Biso   1.000  H
  C60      1.0000 0.93300  0.49440  0.77470  Biso   1.000  C
  H34      1.0000 0.92060  0.47110  0.75780  Biso   1.000  H
  C61      1.0000 0.98210  0.52070  0.76750  Biso   1.000  C
  C62      1.0000 0.99780  0.55540  0.79270  Biso   1.000  C
  H35      1.0000 0.03130  0.57370  0.78870  Biso   1.000  H
  C63      1.0000 0.96570  0.56390  0.82370  Biso   1.000  C
  H36      1.0000 0.97650  0.58850  0.83960  Biso   1.000  H
  C64      1.0000 0.01730  0.51130  0.73410  Biso   1.000  C
  C65      1.0000 0.02100  0.46840  0.71970  Biso   1.000  C
  H37      1.0000 0.00040  0.44510  0.73090  Biso   1.000  H
  C66      1.0000 0.05470  0.45870  0.68900  Biso   1.000  C
  H38      1.0000 0.05800  0.42920  0.68050  Biso   1.000  H
  C67      1.0000 0.08290  0.49270  0.67130  Biso   1.000  C
  C68      1.0000 0.07960  0.53510  0.68460  Biso   1.000  C
  H39      1.0000 0.09900  0.55840  0.67270  Biso   1.000  H
  C69      1.0000 0.04720  0.54390  0.71590  Biso   1.000  C
  H40      1.0000 0.04590  0.57330  0.72480  Biso   1.000  H
  C70      1.0000 0.11950  0.48050  0.63790  Biso   1.000  C
  O89      1.0000 0.88250  0.58430  0.87831  Biso   1.000  O
  O90      1.0000 0.14700  0.51300  0.62264  Biso   1.000  O
  O91      1.0000 0.85250  0.51172  0.87758  Biso   1.000  O
  O92      1.0000 0.12060  0.44060  0.62850  Biso   1.000  O
  Mo37     1.0000 0.57750  0.57002  0.04427  Biso   1.000  Mo
  Mo38     1.0000 0.49155  0.58406  0.95399  Biso   1.000  Mo
  Mo39     1.0000 0.52211  0.54146  0.89334  Biso   1.000  Mo
  Mo40     1.0000 0.67481  0.51709  0.05246  Biso   1.000  Mo
  Mo41     1.0000 0.64664  0.46974  0.89447  Biso   1.000  Mo
  Mo42     1.0000 0.57367  0.67198  0.99723  Biso   1.000  Mo
  Mo43     1.0000 0.69653  0.69942  0.96018  Biso   1.000  Mo
  Mo44     1.0000 0.72557  0.45796  0.97690  Biso   1.000  Mo
  Mo45     1.0000 0.81316  0.54881  0.01008  Biso   1.000  Mo
  Mo46     1.0000 0.66003  0.57241  0.85127  Biso   1.000  Mo
  Mo47     1.0000 0.72831  0.63875  0.88114  Biso   1.000  Mo
  Mo48     1.0000 0.81834  0.62503  0.97327  Biso   1.000  Mo
  Zn13     1.0000 0.56556  0.47418  0.97664  Biso   1.000  Zn
  Zn14     1.0000 0.57192  0.65945  0.89717  Biso   1.000  Zn
  Zn15     1.0000 0.71366  0.63614  0.04503  Biso   1.000  Zn
  Zn16     1.0000 0.78881  0.52648  0.90971  Biso   1.000  Zn
  O93      1.0000 0.59272  0.51068  0.02322  Biso   1.000  O
  O94      1.0000 0.66646  0.58222  0.05616  Biso   1.000  O
  O95      1.0000 0.50384  0.43048  0.98953  Biso   1.000  O
  O96      1.0000 0.57230  0.63775  0.04033  Biso   1.000  O
  O97      1.0000 0.51998  0.52263  0.94681  Biso   1.000  O
  O98      1.0000 0.52300  0.60534  0.90663  Biso   1.000  O
  O99      1.0000 0.50430  0.64905  0.97034  Biso   1.000  O
  O100     1.0000 0.56420  0.48205  0.88740  Biso   1.000  O
  O101     1.0000 0.56590  0.56208  0.84665  Biso   1.000  O
  O102     1.0000 0.69570  0.46202  0.02327  Biso   1.000  O
  O103     1.0000 0.76910  0.53113  0.05775  Biso   1.000  O
  O104     1.0000 0.66920  0.50596  0.85594  Biso   1.000  O
  O105     1.0000 0.63850  0.45885  0.95088  Biso   1.000  O
  O106     1.0000 0.73220  0.47950  0.92264  Biso   1.000  O
  O107     1.0000 0.78350  0.60904  0.02071  Biso   1.000  O
  O108     1.0000 0.81980  0.56213  0.95572  Biso   1.000  O
  O109     1.0000 0.80020  0.48548  0.99139  Biso   1.000  O
  O110     1.0000 0.74300  0.57416  0.87856  Biso   1.000  O
  O111     1.0000 0.63890  0.63156  0.87079  Biso   1.000  O
  O112     1.0000 0.70720  0.69461  0.90910  Biso   1.000  O
  O113     1.0000 0.81280  0.63981  0.91514  Biso   1.000  O
  O114     1.0000 0.60680  0.68533  0.94614  Biso   1.000  O
  O115     1.0000 0.66670  0.67547  0.00833  Biso   1.000  O
  O116     1.0000 0.77550  0.68375  0.97859  Biso   1.000  O
  C71      1.0000 0.51220  0.67790  0.82640  Biso   1.000  C
  C72      1.0000 0.48440  0.70730  0.79390  Biso   1.000  C
  C73      1.0000 0.43840  0.69070  0.76900  Biso   1.000  C
  H41      1.0000 0.42480  0.66130  0.77180  Biso   1.000  H
  C74      1.0000 0.41090  0.71760  0.73910  Biso   1.000  C
  H42      1.0000 0.37830  0.70580  0.72250  Biso   1.000  H
  C75      1.0000 0.42970  0.76000  0.73350  Biso   1.000  C
  C76      1.0000 0.47660  0.77690  0.75870  Biso   1.000  C
  H43      1.0000 0.49050  0.80620  0.75550  Biso   1.000  H
  C77      1.0000 0.50400  0.75090  0.78940  Biso   1.000  C
  H44      1.0000 0.53540  0.76300  0.80680  Biso   1.000  H
  C78      1.0000 0.39790  0.78800  0.70190  Biso   1.000  C
  C79      1.0000 0.37470  0.76740  0.66770  Biso   1.000  C
  H45      1.0000 0.38170  0.73690  0.66410  Biso   1.000  H
  C80      1.0000 0.34090  0.79220  0.63870  Biso   1.000  C
  H46      1.0000 0.32750  0.77860  0.61520  Biso   1.000  H
  C81      1.0000 0.32740  0.83600  0.64430  Biso   1.000  C
  C82      1.0000 0.35140  0.85700  0.67750  Biso   1.000  C
  H47      1.0000 0.34450  0.88760  0.68080  Biso   1.000  H
  C83      1.0000 0.38580  0.83270  0.70600  Biso   1.000  C
  H48      1.0000 0.40120  0.84720  0.72880  Biso   1.000  H
  C84      1.0000 0.28710  0.86100  0.61320  Biso   1.000  C
  O117     1.0000 0.51180  0.63750  0.82119  Biso   1.000  O
  O118     1.0000 0.53230  0.69827  0.85755  Biso   1.000  O
  O119     1.0000 0.29000  0.90200  0.61173  Biso   1.000  O
  O120     1.0000 0.25180  0.83600  0.59083  Biso   1.000  O
  Mo49     1.0000 0.92834  0.08280  0.96949  Biso   1.000  Mo
  Mo50     1.0000 0.01416  0.07097  0.06015  Biso   1.000  Mo
  Mo51     1.0000 0.77073  0.95919  0.01335  Biso   1.000  Mo
  Mo52     1.0000 0.85003  0.94793  0.09562  Biso   1.000  Mo
  Mo53     1.0000 0.98038  0.01397  0.11096  Biso   1.000  Mo
  Mo54     1.0000 0.82705  0.03588  0.95214  Biso   1.000  Mo
  Mo55     1.0000 0.69106  0.05843  0.99967  Biso   1.000  Mo
  Mo56     1.0000 0.93825  0.16926  0.03506  Biso   1.000  Mo
  Mo57     1.0000 0.81892  0.18873  0.07847  Biso   1.000  Mo
  Mo58     1.0000 0.69254  0.12242  0.05108  Biso   1.000  Mo
  Mo59     1.0000 0.78185  0.10946  0.14380  Biso   1.000  Mo
  Mo60     1.0000 0.84522  0.03593  0.15903  Biso   1.000  Mo
  Zn17     1.0000 0.93257  0.97123  0.01680  Biso   1.000  Zn
  Zn18     1.0000 0.93970  0.13065  0.13045  Biso   1.000  Zn
  Zn19     1.0000 0.79601  0.15119  0.98168  Biso   1.000  Zn
  Zn20     1.0000 0.71189  0.00881  0.09345  Biso   1.000  Zn
  O121     1.0000 0.99072  0.92884  0.99772  Biso   1.000  O
  O122     1.0000 0.90803  0.01974  0.97869  Biso   1.000  O
  O123     1.0000 0.98180  0.00981  0.05526  Biso   1.000  O
  O124     1.0000 0.85750  0.95153  0.03858  Biso   1.000  O
  O125     1.0000 0.98400  0.07953  0.11058  Biso   1.000  O
  O126     1.0000 0.00600  0.13872  0.05700  Biso   1.000  O
  O127     1.0000 0.84630  0.17802  0.02576  Biso   1.000  O
  O128     1.0000 0.90720  0.16956  0.08783  Biso   1.000  O
  O129     1.0000 0.76590  0.96664  0.07044  Biso   1.000  O
  O130     1.0000 0.93820  0.14769  0.98657  Biso   1.000  O
  O131     1.0000 0.80130  0.97478  0.96906  Biso   1.000  O
  O132     1.0000 0.73880  0.18049  0.05739  Biso   1.000  O
  O133     1.0000 0.68660  0.05664  0.05540  Biso   1.000  O
  O134     1.0000 0.72510  0.11925  0.00124  Biso   1.000  O
  O135     1.0000 0.93350  0.95611  0.10491  Biso   1.000  O
  O136     1.0000 0.87110  0.09815  0.15200  Biso   1.000  O
  O137     1.0000 0.73360  0.05304  0.94977  Biso   1.000  O
  O138     1.0000 0.76240  0.04637  0.13300  Biso   1.000  O
  O139     1.0000 0.69850  0.99165  0.00479  Biso   1.000  O
  O140     1.0000 0.69900  0.12087  0.11039  Biso   1.000  O
  O141     1.0000 0.93990  0.02335  0.16206  Biso   1.000  O
  O142     1.0000 0.84046  0.10011  0.96111  Biso   1.000  O
  O143     1.0000 0.83060  0.97301  0.14068  Biso   1.000  O
  O144     1.0000 0.80700  0.17043  0.12741  Biso   1.000  O
  C85      1.0000 0.51040  0.36420  0.69990  Biso   1.000  C
  C86      1.0000 0.54530  0.33780  0.73280  Biso   1.000  C
  C87      1.0000 0.54370  0.29250  0.73270  Biso   1.000  C
  H49      1.0000 0.52170  0.27750  0.71210  Biso   1.000  H
  C88      1.0000 0.57460  0.26750  0.76290  Biso   1.000  C
  H50      1.0000 0.57380  0.23630  0.76160  Biso   1.000  H
  C89      1.0000 0.60600  0.28800  0.79440  Biso   1.000  C
  C90      1.0000 0.60790  0.33370  0.79400  Biso   1.000  C
  H51      1.0000 0.62940  0.34880  0.81470  Biso   1.000  H
  C91      1.0000 0.57810  0.35820  0.76330  Biso   1.000  C
  H52      1.0000 0.58070  0.38940  0.76380  Biso   1.000  H
  C92      1.0000 0.63740  0.25960  0.82630  Biso   1.000  C
  C93      1.0000 0.62530  0.21530  0.82740  Biso   1.000  C
  H53      1.0000 0.59670  0.20290  0.80850  Biso   1.000  H
  C94      1.0000 0.65430  0.18730  0.85630  Biso   1.000  C
  H54      1.0000 0.64490  0.15680  0.85630  Biso   1.000  H
  C95      1.0000 0.69600  0.20440  0.88430  Biso   1.000  C
  C96      1.0000 0.70680  0.24930  0.88410  Biso   1.000  C
  H55      1.0000 0.73370  0.26210  0.90370  Biso   1.000  H
  C97      1.0000 0.67770  0.27630  0.85470  Biso   1.000  C
  H56      1.0000 0.68650  0.30700  0.85480  Biso   1.000  H
  C98      1.0000 0.72760  0.17290  0.91470  Biso   1.000  C
  O145     1.0000 0.50330  0.40459  0.70317  Biso   1.000  O
  O146     1.0000 0.49060  0.33958  0.67084  Biso   1.000  O
  O147     1.0000 0.76250  0.19168  0.94161  Biso   1.000  O
  O148     1.0000 0.71840  0.13280  0.91122  Biso   1.000  O
  C99      1.0000 0.38190  0.95410  0.36520  Biso   1.000  C
  C100     1.0000 0.41760  0.96370  0.33160  Biso   1.000  C
  C101     1.0000 0.40130  0.99830  0.30660  Biso   1.000  C
  H57      1.0000 0.36850  0.01710  0.31100  Biso   1.000  H
  C102     1.0000 0.43300  0.00560  0.27470  Biso   1.000  C
  H58      1.0000 0.42060  0.02890  0.25780  Biso   1.000  H
  C103     1.0000 0.48210  0.97930  0.26750  Biso   1.000  C
  C104     1.0000 0.49780  0.94460  0.29270  Biso   1.000  C
  H59      1.0000 0.53130  0.92630  0.28870  Biso   1.000  H
  C105     1.0000 0.46570  0.93610  0.32370  Biso   1.000  C
  H60      1.0000 0.47650  0.91150  0.33960  Biso   1.000  H
  C106     1.0000 0.51730  0.98870  0.23410  Biso   1.000  C
  C107     1.0000 0.52100  0.03160  0.21970  Biso   1.000  C
  H61      1.0000 0.50040  0.05490  0.23090  Biso   1.000  H
  C108     1.0000 0.55470  0.04130  0.18900  Biso   1.000  C
  H62      1.0000 0.55800  0.07080  0.18050  Biso   1.000  H
  C109     1.0000 0.58290  0.00730  0.17130  Biso   1.000  C
  C110     1.0000 0.57960  0.96490  0.18460  Biso   1.000  C
  H63      1.0000 0.59900  0.94160  0.17270  Biso   1.000  H
  C111     1.0000 0.54720  0.95610  0.21590  Biso   1.000  C
  H64      1.0000 0.54590  0.92670  0.22480  Biso   1.000  H
  C112     1.0000 0.61950  0.01950  0.13790  Biso   1.000  C
  O149     1.0000 0.38250  0.91570  0.37831  Biso   1.000  O
  O150     1.0000 0.64700  0.98700  0.12264  Biso   1.000  O
  O151     1.0000 0.35250  0.98828  0.37758  Biso   1.000  O
  O152     1.0000 0.62060  0.05940  0.12850  Biso   1.000  O
  Mo61     1.0000 0.07750  0.92998  0.54427  Biso   1.000  Mo
  Mo62     1.0000 0.99155  0.91594  0.45399  Biso   1.000  Mo
  Mo63     1.0000 0.02211  0.95854  0.39334  Biso   1.000  Mo
  Mo64     1.0000 0.17481  0.98291  0.55246  Biso   1.000  Mo
  Mo65     1.0000 0.14664  0.03026  0.39447  Biso   1.000  Mo
  Mo66     1.0000 0.07367  0.82802  0.49724  Biso   1.000  Mo
  Mo67     1.0000 0.19653  0.80058  0.46018  Biso   1.000  Mo
  Mo68     1.0000 0.22557  0.04204  0.47690  Biso   1.000  Mo
  Mo69     1.0000 0.31316  0.95119  0.51008  Biso   1.000  Mo
  Mo70     1.0000 0.16003  0.92759  0.35127  Biso   1.000  Mo
  Mo71     1.0000 0.22831  0.86125  0.38114  Biso   1.000  Mo
  Mo72     1.0000 0.31834  0.87497  0.47327  Biso   1.000  Mo
  Zn21     1.0000 0.06556  0.02582  0.47664  Biso   1.000  Zn
  Zn22     1.0000 0.07192  0.84055  0.39717  Biso   1.000  Zn
  Zn23     1.0000 0.21366  0.86386  0.54503  Biso   1.000  Zn
  Zn24     1.0000 0.28881  0.97352  0.40971  Biso   1.000  Zn
  O153     1.0000 0.09272  0.98932  0.52322  Biso   1.000  O
  O154     1.0000 0.16646  0.91778  0.55616  Biso   1.000  O
  O155     1.0000 0.00384  0.06952  0.48953  Biso   1.000  O
  O156     1.0000 0.07230  0.86225  0.54033  Biso   1.000  O
  O157     1.0000 0.01998  0.97737  0.44681  Biso   1.000  O
  O158     1.0000 0.02300  0.89466  0.40663  Biso   1.000  O
  O159     1.0000 0.00430  0.85095  0.47034  Biso   1.000  O
  O160     1.0000 0.06420  0.01795  0.38740  Biso   1.000  O
  O161     1.0000 0.06590  0.93792  0.34665  Biso   1.000  O
  O162     1.0000 0.19570  0.03798  0.52327  Biso   1.000  O
  O163     1.0000 0.26910  0.96887  0.55775  Biso   1.000  O
  O164     1.0000 0.16920  0.99404  0.35594  Biso   1.000  O
  O165     1.0000 0.13850  0.04115  0.45088  Biso   1.000  O
  O166     1.0000 0.23220  0.02050  0.42264  Biso   1.000  O
  O167     1.0000 0.28350  0.89096  0.52071  Biso   1.000  O
  O168     1.0000 0.31980  0.93787  0.45572  Biso   1.000  O
  O169     1.0000 0.30020  0.01452  0.49139  Biso   1.000  O
  O170     1.0000 0.24300  0.92584  0.37856  Biso   1.000  O
  O171     1.0000 0.13890  0.86844  0.37079  Biso   1.000  O
  O172     1.0000 0.20720  0.80539  0.40910  Biso   1.000  O
  O173     1.0000 0.31280  0.86019  0.41514  Biso   1.000  O
  O174     1.0000 0.10680  0.81467  0.44614  Biso   1.000  O
  O175     1.0000 0.16670  0.82453  0.50833  Biso   1.000  O
  O176     1.0000 0.27550  0.81625  0.47859  Biso   1.000  O
  C113     1.0000 0.01220  0.82210  0.32640  Biso   1.000  C
  C114     1.0000 0.98440  0.79270  0.29390  Biso   1.000  C
  C115     1.0000 0.93840  0.80930  0.26900  Biso   1.000  C
  H65      1.0000 0.92480  0.83870  0.27180  Biso   1.000  H
  C116     1.0000 0.91090  0.78240  0.23910  Biso   1.000  C
  H66      1.0000 0.87830  0.79420  0.22250  Biso   1.000  H
  C117     1.0000 0.92970  0.74000  0.23350  Biso   1.000  C
  C118     1.0000 0.97660  0.72310  0.25870  Biso   1.000  C
  H67      1.0000 0.99050  0.69380  0.25550  Biso   1.000  H
  C119     1.0000 0.00400  0.74910  0.28940  Biso   1.000  C
  H68      1.0000 0.03540  0.73700  0.30680  Biso   1.000  H
  C120     1.0000 0.89790  0.71200  0.20190  Biso   1.000  C
  C121     1.0000 0.87470  0.73260  0.16770  Biso   1.000  C
  H69      1.0000 0.88170  0.76310  0.16410  Biso   1.000  H
  C122     1.0000 0.84090  0.70780  0.13870  Biso   1.000  C
  H70      1.0000 0.82750  0.72140  0.11520  Biso   1.000  H
  C123     1.0000 0.82740  0.66400  0.14430  Biso   1.000  C
  C124     1.0000 0.85140  0.64300  0.17750  Biso   1.000  C
  H71      1.0000 0.84450  0.61240  0.18080  Biso   1.000  H
  C125     1.0000 0.88580  0.66730  0.20600  Biso   1.000  C
  H72      1.0000 0.90120  0.65280  0.22880  Biso   1.000  H
  C126     1.0000 0.78710  0.63900  0.11320  Biso   1.000  C
  O177     1.0000 0.01180  0.86250  0.32119  Biso   1.000  O
  O178     1.0000 0.03230  0.80173  0.35755  Biso   1.000  O
  O179     1.0000 0.79000  0.59800  0.11173  Biso   1.000  O
  O180     1.0000 0.75180  0.66400  0.09083  Biso   1.000  O
  Mo73     1.0000 0.57166  0.58280  0.53051  Biso   1.000  Mo
  Mo74     1.0000 0.48584  0.57097  0.43985  Biso   1.000  Mo
  Mo75     1.0000 0.72927  0.45919  0.48665  Biso   1.000  Mo
  Mo76     1.0000 0.64997  0.44793  0.40438  Biso   1.000  Mo
  Mo77     1.0000 0.51962  0.51397  0.38904  Biso   1.000  Mo
  Mo78     1.0000 0.67295  0.53588  0.54786  Biso   1.000  Mo
  Mo79     1.0000 0.80894  0.55843  0.50033  Biso   1.000  Mo
  Mo80     1.0000 0.56175  0.66926  0.46494  Biso   1.000  Mo
  Mo81     1.0000 0.68108  0.68873  0.42153  Biso   1.000  Mo
  Mo82     1.0000 0.80746  0.62242  0.44892  Biso   1.000  Mo
  Mo83     1.0000 0.71815  0.60946  0.35620  Biso   1.000  Mo
  Mo84     1.0000 0.65478  0.53593  0.34097  Biso   1.000  Mo
  Zn25     1.0000 0.56743  0.47123  0.48320  Biso   1.000  Zn
  Zn26     1.0000 0.56030  0.63065  0.36955  Biso   1.000  Zn
  Zn27     1.0000 0.70399  0.65119  0.51832  Biso   1.000  Zn
  Zn28     1.0000 0.78811  0.50881  0.40655  Biso   1.000  Zn
  O181     1.0000 0.50928  0.42884  0.50228  Biso   1.000  O
  O182     1.0000 0.59197  0.51974  0.52131  Biso   1.000  O
  O183     1.0000 0.51820  0.50981  0.44474  Biso   1.000  O
  O184     1.0000 0.64250  0.45153  0.46142  Biso   1.000  O
  O185     1.0000 0.51600  0.57953  0.38942  Biso   1.000  O
  O186     1.0000 0.49400  0.63872  0.44300  Biso   1.000  O
  O187     1.0000 0.65370  0.67802  0.47424  Biso   1.000  O
  O188     1.0000 0.59280  0.66956  0.41217  Biso   1.000  O
  O189     1.0000 0.73410  0.46664  0.42956  Biso   1.000  O
  O190     1.0000 0.56180  0.64769  0.51343  Biso   1.000  O
  O191     1.0000 0.69870  0.47478  0.53094  Biso   1.000  O
  O192     1.0000 0.76120  0.68049  0.44261  Biso   1.000  O
  O193     1.0000 0.81340  0.55664  0.44460  Biso   1.000  O
  O194     1.0000 0.77490  0.61925  0.49876  Biso   1.000  O
  O195     1.0000 0.56650  0.45611  0.39509  Biso   1.000  O
  O196     1.0000 0.62890  0.59815  0.34800  Biso   1.000  O
  O197     1.0000 0.76640  0.55304  0.55023  Biso   1.000  O
  O198     1.0000 0.73760  0.54637  0.36700  Biso   1.000  O
  O199     1.0000 0.80150  0.49165  0.49521  Biso   1.000  O
  O200     1.0000 0.80100  0.62087  0.38961  Biso   1.000  O
  O201     1.0000 0.56010  0.52335  0.33794  Biso   1.000  O
  O202     1.0000 0.65954  0.60011  0.53889  Biso   1.000  O
  O203     1.0000 0.66940  0.47301  0.35932  Biso   1.000  O
  O204     1.0000 0.69300  0.67043  0.37259  Biso   1.000  O
  C127     1.0000 0.98960  0.86420  0.80010  Biso   1.000  C
  C128     1.0000 0.95470  0.83780  0.76720  Biso   1.000  C
  C129     1.0000 0.95630  0.79250  0.76730  Biso   1.000  C
  H73      1.0000 0.97830  0.77750  0.78790  Biso   1.000  H
  C130     1.0000 0.92540  0.76750  0.73710  Biso   1.000  C
  H74      1.0000 0.92620  0.73630  0.73840  Biso   1.000  H
  C131     1.0000 0.89400  0.78800  0.70560  Biso   1.000  C
  C132     1.0000 0.89210  0.83370  0.70600  Biso   1.000  C
  H75      1.0000 0.87060  0.84880  0.68530  Biso   1.000  H
  C133     1.0000 0.92190  0.85820  0.73670  Biso   1.000  C
  H76      1.0000 0.91930  0.88940  0.73620  Biso   1.000  H
  C134     1.0000 0.86260  0.75960  0.67370  Biso   1.000  C
  C135     1.0000 0.87470  0.71530  0.67260  Biso   1.000  C
  H77      1.0000 0.90330  0.70290  0.69150  Biso   1.000  H
  C136     1.0000 0.84570  0.68730  0.64370  Biso   1.000  C
  H78      1.0000 0.85510  0.65680  0.64370  Biso   1.000  H
  C137     1.0000 0.80400  0.70440  0.61570  Biso   1.000  C
  C138     1.0000 0.79320  0.74930  0.61590  Biso   1.000  C
  H79      1.0000 0.76630  0.76210  0.59630  Biso   1.000  H
  C139     1.0000 0.82230  0.77630  0.64530  Biso   1.000  C
  H80      1.0000 0.81350  0.80700  0.64520  Biso   1.000  H
  C140     1.0000 0.77240  0.67290  0.58530  Biso   1.000  C
  O205     1.0000 0.99670  0.90459  0.79683  Biso   1.000  O
  O206     1.0000 0.00940  0.83958  0.82916  Biso   1.000  O
  O207     1.0000 0.73750  0.69168  0.55839  Biso   1.000  O
  O208     1.0000 0.78160  0.63280  0.58878  Biso   1.000  O
  C141     1.0000 0.11810  0.45410  0.13480  Biso   1.000  C
  C142     1.0000 0.08240  0.46370  0.16840  Biso   1.000  C
  C143     1.0000 0.09870  0.49830  0.19340  Biso   1.000  C
  H81      1.0000 0.13150  0.51710  0.18900  Biso   1.000  H
  C144     1.0000 0.06700  0.50560  0.22530  Biso   1.000  C
  H82      1.0000 0.07940  0.52890  0.24220  Biso   1.000  H
  C145     1.0000 0.01790  0.47930  0.23250  Biso   1.000  C
  C146     1.0000 0.00220  0.44460  0.20730  Biso   1.000  C
  H83      1.0000 0.96870  0.42630  0.21130  Biso   1.000  H
  C147     1.0000 0.03430  0.43610  0.17630  Biso   1.000  C
  H84      1.0000 0.02350  0.41150  0.16040  Biso   1.000  H
  C148     1.0000 0.98270  0.48870  0.26590  Biso   1.000  C
  C149     1.0000 0.97900  0.53160  0.28030  Biso   1.000  C
  H85      1.0000 0.99960  0.55490  0.26910  Biso   1.000  H
  C150     1.0000 0.94530  0.54130  0.31100  Biso   1.000  C
  H86      1.0000 0.94200  0.57080  0.31950  Biso   1.000  H
  C151     1.0000 0.91710  0.50730  0.32870  Biso   1.000  C
  C152     1.0000 0.92040  0.46490  0.31540  Biso   1.000  C
  H87      1.0000 0.90100  0.44160  0.32730  Biso   1.000  H
  C153     1.0000 0.95280  0.45610  0.28410  Biso   1.000  C
  H88      1.0000 0.95410  0.42670  0.27520  Biso   1.000  H
  C154     1.0000 0.88050  0.51950  0.36210  Biso   1.000  C
  O209     1.0000 0.11750  0.41570  0.12169  Biso   1.000  O
  O210     1.0000 0.85300  0.48700  0.37736  Biso   1.000  O
  O211     1.0000 0.14750  0.48828  0.12242  Biso   1.000  O
  O212     1.0000 0.87940  0.55940  0.37150  Biso   1.000  O
  Mo85     1.0000 0.42250  0.42998  0.95573  Biso   1.000  Mo
  Mo86     1.0000 0.50845  0.41594  0.04601  Biso   1.000  Mo
  Mo87     1.0000 0.47789  0.45854  0.10666  Biso   1.000  Mo
  Mo88     1.0000 0.32519  0.48291  0.94754  Biso   1.000  Mo
  Mo89     1.0000 0.35336  0.53026  0.10553  Biso   1.000  Mo
  Mo90     1.0000 0.42633  0.32802  0.00277  Biso   1.000  Mo
  Mo91     1.0000 0.30347  0.30058  0.03982  Biso   1.000  Mo
  Mo92     1.0000 0.27443  0.54204  0.02310  Biso   1.000  Mo
  Mo93     1.0000 0.18684  0.45119  0.98992  Biso   1.000  Mo
  Mo94     1.0000 0.33997  0.42759  0.14873  Biso   1.000  Mo
  Mo95     1.0000 0.27169  0.36125  0.11886  Biso   1.000  Mo
  Mo96     1.0000 0.18166  0.37497  0.02673  Biso   1.000  Mo
  Zn29     1.0000 0.43444  0.52582  0.02336  Biso   1.000  Zn
  Zn30     1.0000 0.42808  0.34055  0.10283  Biso   1.000  Zn
  Zn31     1.0000 0.28634  0.36386  0.95497  Biso   1.000  Zn
  Zn32     1.0000 0.21119  0.47352  0.09029  Biso   1.000  Zn
  O213     1.0000 0.40728  0.48932  0.97678  Biso   1.000  O
  O214     1.0000 0.33354  0.41778  0.94384  Biso   1.000  O
  O215     1.0000 0.49616  0.56952  0.01047  Biso   1.000  O
  O216     1.0000 0.42770  0.36225  0.95967  Biso   1.000  O
  O217     1.0000 0.48002  0.47737  0.05319  Biso   1.000  O
  O218     1.0000 0.47700  0.39466  0.09337  Biso   1.000  O
  O219     1.0000 0.49570  0.35095  0.02966  Biso   1.000  O
  O220     1.0000 0.43580  0.51795  0.11260  Biso   1.000  O
  O221     1.0000 0.43410  0.43792  0.15335  Biso   1.000  O
  O222     1.0000 0.30430  0.53798  0.97673  Biso   1.000  O
  O223     1.0000 0.23090  0.46887  0.94225  Biso   1.000  O
  O224     1.0000 0.33080  0.49404  0.14406  Biso   1.000  O
  O225     1.0000 0.36150  0.54115  0.04912  Biso   1.000  O
  O226     1.0000 0.26780  0.52050  0.07736  Biso   1.000  O
  O227     1.0000 0.21650  0.39096  0.97929  Biso   1.000  O
  O228     1.0000 0.18020  0.43787  0.04428  Biso   1.000  O
  O229     1.0000 0.19980  0.51452  0.00861  Biso   1.000  O
  O230     1.0000 0.25700  0.42584  0.12144  Biso   1.000  O
  O231     1.0000 0.36110  0.36844  0.12921  Biso   1.000  O
  O232     1.0000 0.29280  0.30539  0.09090  Biso   1.000  O
  O233     1.0000 0.18720  0.36019  0.08486  Biso   1.000  O
  O234     1.0000 0.39320  0.31467  0.05386  Biso   1.000  O
  O235     1.0000 0.33330  0.32453  0.99167  Biso   1.000  O
  O236     1.0000 0.22450  0.31625  0.02141  Biso   1.000  O
  C155     1.0000 0.48780  0.32210  0.17360  Biso   1.000  C
  C156     1.0000 0.51560  0.29270  0.20610  Biso   1.000  C
  C157     1.0000 0.56160  0.30930  0.23100  Biso   1.000  C
  H89      1.0000 0.57520  0.33870  0.22820  Biso   1.000  H
  C158     1.0000 0.58910  0.28240  0.26090  Biso   1.000  C
  H90      1.0000 0.62170  0.29420  0.27750  Biso   1.000  H
  C159     1.0000 0.57030  0.24000  0.26650  Biso   1.000  C
  C160     1.0000 0.52340  0.22310  0.24130  Biso   1.000  C
  H91      1.0000 0.50950  0.19380  0.24450  Biso   1.000  H
  C161     1.0000 0.49600  0.24910  0.21060  Biso   1.000  C
  H92      1.0000 0.46460  0.23700  0.19320  Biso   1.000  H
  C162     1.0000 0.60210  0.21200  0.29810  Biso   1.000  C
  C163     1.0000 0.62530  0.23260  0.33230  Biso   1.000  C
  H93      1.0000 0.61830  0.26310  0.33590  Biso   1.000  H
  C164     1.0000 0.65910  0.20780  0.36130  Biso   1.000  C
  H94      1.0000 0.67250  0.22140  0.38480  Biso   1.000  H
  C165     1.0000 0.67260  0.16400  0.35570  Biso   1.000  C
  C166     1.0000 0.64860  0.14300  0.32250  Biso   1.000  C
  H95      1.0000 0.65550  0.11240  0.31920  Biso   1.000  H
  C167     1.0000 0.61420  0.16730  0.29400  Biso   1.000  C
  H96      1.0000 0.59880  0.15280  0.27120  Biso   1.000  H
  C168     1.0000 0.71290  0.13900  0.38680  Biso   1.000  C
  O237     1.0000 0.48820  0.36250  0.17881  Biso   1.000  O
  O238     1.0000 0.46770  0.30173  0.14245  Biso   1.000  O
  O239     1.0000 0.71000  0.09800  0.38827  Biso   1.000  O
  O240     1.0000 0.74820  0.16400  0.40917  Biso   1.000  O
