data_image0
_cell_length_a       16.0971
_cell_length_b       19.5272
_cell_length_c       14.4098
_cell_angle_alpha    90
_cell_angle_beta     101.346
_cell_angle_gamma    90

_symmetry_space_group_name_H-M    "P 1"
_symmetry_int_tables_number       1

loop_
  _symmetry_equiv_pos_as_xyz
  'x, y, z'

loop_
  _atom_site_label
  _atom_site_occupancy
  _atom_site_fract_x
  _atom_site_fract_y
  _atom_site_fract_z
  _atom_site_thermal_displace_type
  _atom_site_B_iso_or_equiv
  _atom_site_type_symbol
  Ag1      1.0000 0.20507  0.28616  0.12341  Biso   1.000  Ag
  N1       1.0000 0.10621  0.38208  0.08170  Biso   1.000  N
  N2       1.0000 0.33412  0.33840  0.11650  Biso   1.000  N
  N3       1.0000 0.23140  0.30893  0.28830  Biso   1.000  N
  N4       1.0000 0.12526  0.20976  0.03310  Biso   1.000  N
  C1       1.0000 0.13640  0.44374  0.06560  Biso   1.000  C
  C2       1.0000 0.04200  0.38000  0.12850  Biso   1.000  C
  H1       1.0000 0.18030  0.44580  0.03020  Biso   1.000  H
  C3       1.0000 0.10800  0.50540  0.09720  Biso   1.000  C
  C4       1.0000 0.00780  0.43770  0.16020  Biso   1.000  C
  H2       1.0000 0.01930  0.33670  0.14020  Biso   1.000  H
  C5       1.0000 0.04210  0.50020  0.14560  Biso   1.000  C
  C6       1.0000 0.14490  0.57117  0.07680  Biso   1.000  C
  H3       1.0000 0.96130  0.43450  0.19170  Biso   1.000  H
  H4       1.0000 0.02030  0.54040  0.16910  Biso   1.000  H
  C7       1.0000 0.09570  0.62982  0.06450  Biso   1.000  C
  C8       1.0000 0.22920  0.57707  0.06770  Biso   1.000  C
  H5       1.0000 0.03860  0.62770  0.07270  Biso   1.000  H
  C9       1.0000 0.12800  0.69106  0.04060  Biso   1.000  C
  C10      1.0000 0.26180  0.63909  0.04700  Biso   1.000  C
  H6       1.0000 0.26460  0.53770  0.07590  Biso   1.000  H
  H7       1.0000 0.09230  0.73020  0.03070  Biso   1.000  H
  C11      1.0000 0.21160  0.69687  0.03070  Biso   1.000  C
  H8       1.0000 0.32010  0.64220  0.04380  Biso   1.000  H
  C12      1.0000 0.24470  0.76509  0.01020  Biso   1.000  C
  C13      1.0000 0.31800  0.78914  0.08480  Biso   1.000  C
  C14      1.0000 0.20700  0.80285  0.93500  Biso   1.000  C
  C15      1.0000 0.38980  0.81840  0.06320  Biso   1.000  C
  C16      1.0000 0.31300  0.78048  0.17820  Biso   1.000  C
  C17      1.0000 0.22500  0.87739  0.92510  Biso   1.000  C
  C18      1.0000 0.14430  0.77226  0.85600  Biso   1.000  C
  C19      1.0000 0.45580  0.83860  0.13540  Biso   1.000  C
  H9       1.0000 0.39410  0.82480  0.99890  Biso   1.000  H
  H10      1.0000 0.26440  0.75930  0.19360  Biso   1.000  H
  C20      1.0000 0.37780  0.80210  0.25030  Biso   1.000  C
  C21      1.0000 0.23520  0.90425  0.83850  Biso   1.000  C
  C22      1.0000 0.22890  0.92189  0.00030  Biso   1.000  C
  C23      1.0000 0.16190  0.71084  0.81440  Biso   1.000  C
  C24      1.0000 0.06750  0.80399  0.81820  Biso   1.000  C
  C25      1.0000 0.44950  0.83140  0.22940  Biso   1.000  C
  H11      1.0000 0.50590  0.85740  0.12010  Biso   1.000  H
  H12      1.0000 0.37260  0.79670  0.31440  Biso   1.000  H
  C26      1.0000 0.24990  0.97274  0.82790  Biso   1.000  C
  H13      1.0000 0.23180  0.87450  0.78570  Biso   1.000  H
  H14      1.0000 0.22160  0.90490  0.05990  Biso   1.000  H
  C27      1.0000 0.24320  0.99089  0.98950  Biso   1.000  C
  C28      1.0000 0.10810  0.68419  0.73610  Biso   1.000  C
  H15      1.0000 0.21220  0.68670  0.84060  Biso   1.000  H
  H16      1.0000 0.05310  0.84560  0.84530  Biso   1.000  H
  C29      1.0000 0.01190  0.77627  0.74200  Biso   1.000  C
  C30      1.0000 0.51950  0.85150  0.30860  Biso   1.000  C
  C31      1.0000 0.25330  0.01793  0.90320  Biso   1.000  C
  H17      1.0000 0.25800  0.98950  0.76840  Biso   1.000  H
  H18      1.0000 0.24640  0.02060  0.04240  Biso   1.000  H
  C32      1.0000 0.03220  0.71655  0.69780  Biso   1.000  C
  H19      1.0000 0.12320  0.64320  0.70810  Biso   1.000  H
  H20      1.0000 0.95910  0.79810  0.71940  Biso   1.000  H
  C33      1.0000 0.60000  0.82692  0.31260  Biso   1.000  C
  C34      1.0000 0.50610  0.89210  0.38250  Biso   1.000  C
  C35      1.0000 0.26430  0.09239  0.89060  Biso   1.000  C
  C36      1.0000 0.97690  0.68843  0.61100  Biso   1.000  C
  H21      1.0000 0.60970  0.79970  0.26110  Biso   1.000  H
  H22      1.0000 0.45170  0.91080  0.38280  Biso   1.000  H
  C37      1.0000 0.57370  0.90500  0.45670  Biso   1.000  C
  C38      1.0000 0.22600  0.12369  0.80690  Biso   1.000  C
  C39      1.0000 0.30990  0.13440  0.95990  Biso   1.000  C
  C40      1.0000 0.92310  0.73083  0.54890  Biso   1.000  C
  C41      1.0000 0.98000  0.62043  0.58390  Biso   1.000  C
  C42      1.0000 0.65060  0.87760  0.45440  Biso   1.000  C
  H23      1.0000 0.56610  0.93280  0.50850  Biso   1.000  H
  H24      1.0000 0.19360  0.09570  0.75910  Biso   1.000  H
  H25      1.0000 0.33730  0.11580  0.01890  Biso   1.000  H
  C43      1.0000 0.31520  0.20380  0.94230  Biso   1.000  C
  H26      1.0000 0.92020  0.77770  0.56550  Biso   1.000  H
  H27      1.0000 0.01530  0.58900  0.62390  Biso   1.000  H
  C44      1.0000 0.93240  0.59829  0.49970  Biso   1.000  C
  H28      1.0000 0.69610  0.88670  0.50590  Biso   1.000  H
  C45      1.0000 0.27600  0.22980  0.85690  Biso   1.000  C
  H29      1.0000 0.34590  0.23320  0.98940  Biso   1.000  H
  C46      1.0000 0.88030  0.64398  0.44340  Biso   1.000  C
  H30      1.0000 0.93540  0.55200  0.48050  Biso   1.000  H
  H31      1.0000 0.28060  0.27750  0.84580  Biso   1.000  H
  H32      1.0000 0.84690  0.62820  0.38560  Biso   1.000  H
  Ag2      1.0000 0.79493  0.78616  0.37659  Biso   1.000  Ag
  N5       1.0000 0.89379  0.88208  0.41830  Biso   1.000  N
  N6       1.0000 0.66588  0.83840  0.38350  Biso   1.000  N
  N7       1.0000 0.76860  0.80893  0.21170  Biso   1.000  N
  N8       1.0000 0.87474  0.70976  0.46690  Biso   1.000  N
  C47      1.0000 0.86360  0.94374  0.43440  Biso   1.000  C
  C48      1.0000 0.95800  0.88000  0.37150  Biso   1.000  C
  H33      1.0000 0.81970  0.94580  0.46980  Biso   1.000  H
  C49      1.0000 0.89200  0.00540  0.40280  Biso   1.000  C
  C50      1.0000 0.99220  0.93770  0.33980  Biso   1.000  C
  H34      1.0000 0.98070  0.83670  0.35980  Biso   1.000  H
  C51      1.0000 0.95790  0.00020  0.35440  Biso   1.000  C
  C52      1.0000 0.85510  0.07117  0.42320  Biso   1.000  C
  H35      1.0000 0.03870  0.93450  0.30830  Biso   1.000  H
  H36      1.0000 0.97970  0.04040  0.33090  Biso   1.000  H
  C53      1.0000 0.90430  0.12982  0.43550  Biso   1.000  C
  C54      1.0000 0.77080  0.07707  0.43230  Biso   1.000  C
  H37      1.0000 0.96140  0.12770  0.42730  Biso   1.000  H
  C55      1.0000 0.87200  0.19106  0.45940  Biso   1.000  C
  C56      1.0000 0.73820  0.13909  0.45300  Biso   1.000  C
  H38      1.0000 0.73540  0.03770  0.42410  Biso   1.000  H
  H39      1.0000 0.90770  0.23020  0.46930  Biso   1.000  H
  C57      1.0000 0.78840  0.19687  0.46930  Biso   1.000  C
  H40      1.0000 0.67990  0.14220  0.45620  Biso   1.000  H
  C58      1.0000 0.75530  0.26509  0.48980  Biso   1.000  C
  C59      1.0000 0.68200  0.28914  0.41520  Biso   1.000  C
  C60      1.0000 0.79300  0.30285  0.56500  Biso   1.000  C
  C61      1.0000 0.61020  0.31840  0.43680  Biso   1.000  C
  C62      1.0000 0.68700  0.28048  0.32180  Biso   1.000  C
  C63      1.0000 0.77500  0.37739  0.57490  Biso   1.000  C
  C64      1.0000 0.85570  0.27226  0.64400  Biso   1.000  C
  C65      1.0000 0.54420  0.33860  0.36460  Biso   1.000  C
  H41      1.0000 0.60590  0.32480  0.50110  Biso   1.000  H
  H42      1.0000 0.73560  0.25930  0.30640  Biso   1.000  H
  C66      1.0000 0.62220  0.30210  0.24970  Biso   1.000  C
  C67      1.0000 0.76480  0.40425  0.66150  Biso   1.000  C
  C68      1.0000 0.77110  0.42189  0.49970  Biso   1.000  C
  C69      1.0000 0.83810  0.21084  0.68560  Biso   1.000  C
  C70      1.0000 0.93250  0.30399  0.68180  Biso   1.000  C
  C71      1.0000 0.55050  0.33140  0.27060  Biso   1.000  C
  H43      1.0000 0.49410  0.35740  0.37990  Biso   1.000  H
  H44      1.0000 0.62740  0.29670  0.18560  Biso   1.000  H
  C72      1.0000 0.75010  0.47274  0.67210  Biso   1.000  C
  H45      1.0000 0.76820  0.37450  0.71430  Biso   1.000  H
  H46      1.0000 0.77840  0.40490  0.44010  Biso   1.000  H
  C73      1.0000 0.75680  0.49089  0.51050  Biso   1.000  C
  C74      1.0000 0.89190  0.18419  0.76390  Biso   1.000  C
  H47      1.0000 0.78780  0.18670  0.65940  Biso   1.000  H
  H48      1.0000 0.94690  0.34560  0.65470  Biso   1.000  H
  C75      1.0000 0.98810  0.27627  0.75800  Biso   1.000  C
  C76      1.0000 0.48050  0.35150  0.19140  Biso   1.000  C
  C77      1.0000 0.74670  0.51793  0.59680  Biso   1.000  C
  H49      1.0000 0.74200  0.48950  0.73160  Biso   1.000  H
  H50      1.0000 0.75360  0.52060  0.45760  Biso   1.000  H
  C78      1.0000 0.96780  0.21655  0.80220  Biso   1.000  C
  H51      1.0000 0.87680  0.14320  0.79190  Biso   1.000  H
  H52      1.0000 0.04090  0.29810  0.78060  Biso   1.000  H
  C79      1.0000 0.40000  0.32692  0.18740  Biso   1.000  C
  C80      1.0000 0.49390  0.39210  0.11750  Biso   1.000  C
  C81      1.0000 0.73570  0.59239  0.60940  Biso   1.000  C
  C82      1.0000 0.02310  0.18843  0.88900  Biso   1.000  C
  H53      1.0000 0.39030  0.29970  0.23890  Biso   1.000  H
  H54      1.0000 0.54830  0.41080  0.11720  Biso   1.000  H
  C83      1.0000 0.42630  0.40500  0.04330  Biso   1.000  C
  C84      1.0000 0.77400  0.62369  0.69310  Biso   1.000  C
  C85      1.0000 0.69010  0.63440  0.54010  Biso   1.000  C
  C86      1.0000 0.07690  0.23083  0.95110  Biso   1.000  C
  C87      1.0000 0.02000  0.12043  0.91610  Biso   1.000  C
  C88      1.0000 0.34940  0.37760  0.04560  Biso   1.000  C
  H55      1.0000 0.43390  0.43280  0.99150  Biso   1.000  H
  H56      1.0000 0.80640  0.59570  0.74090  Biso   1.000  H
  H57      1.0000 0.66270  0.61580  0.48110  Biso   1.000  H
  C89      1.0000 0.68480  0.70380  0.55770  Biso   1.000  C
  H58      1.0000 0.07980  0.27770  0.93450  Biso   1.000  H
  H59      1.0000 0.98470  0.08900  0.87610  Biso   1.000  H
  C90      1.0000 0.06760  0.09829  0.00030  Biso   1.000  C
  H60      1.0000 0.30390  0.38670  0.99410  Biso   1.000  H
  C91      1.0000 0.72400  0.72980  0.64310  Biso   1.000  C
  H61      1.0000 0.65410  0.73320  0.51060  Biso   1.000  H
  C92      1.0000 0.11970  0.14398  0.05660  Biso   1.000  C
  H62      1.0000 0.06460  0.05200  0.01950  Biso   1.000  H
  H63      1.0000 0.71940  0.77750  0.65420  Biso   1.000  H
  H64      1.0000 0.15310  0.12820  0.11440  Biso   1.000  H
  Ag3      1.0000 0.79493  0.71384  0.87659  Biso   1.000  Ag
  N9       1.0000 0.89379  0.61792  0.91830  Biso   1.000  N
  N10      1.0000 0.66588  0.66160  0.88350  Biso   1.000  N
  N11      1.0000 0.76860  0.69107  0.71170  Biso   1.000  N
  N12      1.0000 0.87474  0.79024  0.96690  Biso   1.000  N
  C93      1.0000 0.86360  0.55626  0.93440  Biso   1.000  C
  C94      1.0000 0.95800  0.62000  0.87150  Biso   1.000  C
  H65      1.0000 0.81970  0.55420  0.96980  Biso   1.000  H
  C95      1.0000 0.89200  0.49460  0.90280  Biso   1.000  C
  C96      1.0000 0.99220  0.56230  0.83980  Biso   1.000  C
  H66      1.0000 0.98070  0.66330  0.85980  Biso   1.000  H
  C97      1.0000 0.95790  0.49980  0.85440  Biso   1.000  C
  C98      1.0000 0.85510  0.42883  0.92320  Biso   1.000  C
  H67      1.0000 0.03870  0.56550  0.80830  Biso   1.000  H
  H68      1.0000 0.97970  0.45960  0.83090  Biso   1.000  H
  C99      1.0000 0.90430  0.37018  0.93550  Biso   1.000  C
  C100     1.0000 0.77080  0.42293  0.93230  Biso   1.000  C
  H69      1.0000 0.96140  0.37230  0.92730  Biso   1.000  H
  C101     1.0000 0.87200  0.30894  0.95940  Biso   1.000  C
  C102     1.0000 0.73820  0.36091  0.95300  Biso   1.000  C
  H70      1.0000 0.73540  0.46230  0.92410  Biso   1.000  H
  H71      1.0000 0.90770  0.26980  0.96930  Biso   1.000  H
  C103     1.0000 0.78840  0.30313  0.96930  Biso   1.000  C
  H72      1.0000 0.67990  0.35780  0.95620  Biso   1.000  H
  C104     1.0000 0.75530  0.23491  0.98980  Biso   1.000  C
  C105     1.0000 0.68200  0.21086  0.91520  Biso   1.000  C
  C106     1.0000 0.79300  0.19715  0.06500  Biso   1.000  C
  C107     1.0000 0.61020  0.18160  0.93680  Biso   1.000  C
  C108     1.0000 0.68700  0.21952  0.82180  Biso   1.000  C
  C109     1.0000 0.77500  0.12261  0.07490  Biso   1.000  C
  C110     1.0000 0.85570  0.22774  0.14400  Biso   1.000  C
  C111     1.0000 0.54420  0.16140  0.86460  Biso   1.000  C
  H73      1.0000 0.60590  0.17520  0.00110  Biso   1.000  H
  H74      1.0000 0.73560  0.24070  0.80640  Biso   1.000  H
  C112     1.0000 0.62220  0.19790  0.74970  Biso   1.000  C
  C113     1.0000 0.76480  0.09575  0.16150  Biso   1.000  C
  C114     1.0000 0.77110  0.07811  0.99970  Biso   1.000  C
  C115     1.0000 0.83810  0.28916  0.18560  Biso   1.000  C
  C116     1.0000 0.93250  0.19601  0.18180  Biso   1.000  C
  C117     1.0000 0.55050  0.16860  0.77060  Biso   1.000  C
  H75      1.0000 0.49410  0.14260  0.87990  Biso   1.000  H
  H76      1.0000 0.62740  0.20330  0.68560  Biso   1.000  H
  C118     1.0000 0.75010  0.02726  0.17210  Biso   1.000  C
  H77      1.0000 0.76820  0.12550  0.21430  Biso   1.000  H
  H78      1.0000 0.77840  0.09510  0.94010  Biso   1.000  H
  C119     1.0000 0.75680  0.00911  0.01050  Biso   1.000  C
  C120     1.0000 0.89190  0.31581  0.26390  Biso   1.000  C
  H79      1.0000 0.78780  0.31330  0.15940  Biso   1.000  H
  H80      1.0000 0.94690  0.15440  0.15470  Biso   1.000  H
  C121     1.0000 0.98810  0.22373  0.25800  Biso   1.000  C
  C122     1.0000 0.48050  0.14850  0.69140  Biso   1.000  C
  C123     1.0000 0.74670  0.98207  0.09680  Biso   1.000  C
  H81      1.0000 0.74200  0.01050  0.23160  Biso   1.000  H
  H82      1.0000 0.75360  0.97940  0.95760  Biso   1.000  H
  C124     1.0000 0.96780  0.28345  0.30220  Biso   1.000  C
  H83      1.0000 0.87680  0.35680  0.29190  Biso   1.000  H
  H84      1.0000 0.04090  0.20190  0.28060  Biso   1.000  H
  C125     1.0000 0.40000  0.17308  0.68740  Biso   1.000  C
  C126     1.0000 0.49390  0.10790  0.61750  Biso   1.000  C
  C127     1.0000 0.73570  0.90761  0.10940  Biso   1.000  C
  C128     1.0000 0.02310  0.31157  0.38900  Biso   1.000  C
  H85      1.0000 0.39030  0.20030  0.73890  Biso   1.000  H
  H86      1.0000 0.54830  0.08920  0.61720  Biso   1.000  H
  C129     1.0000 0.42630  0.09500  0.54330  Biso   1.000  C
  C130     1.0000 0.77400  0.87631  0.19310  Biso   1.000  C
  C131     1.0000 0.69010  0.86560  0.04010  Biso   1.000  C
  C132     1.0000 0.07690  0.26917  0.45110  Biso   1.000  C
  C133     1.0000 0.02000  0.37957  0.41610  Biso   1.000  C
  C134     1.0000 0.34940  0.12240  0.54560  Biso   1.000  C
  H87      1.0000 0.43390  0.06720  0.49150  Biso   1.000  H
  H88      1.0000 0.80640  0.90430  0.24090  Biso   1.000  H
  H89      1.0000 0.66270  0.88420  0.98110  Biso   1.000  H
  C135     1.0000 0.68480  0.79620  0.05770  Biso   1.000  C
  H90      1.0000 0.07980  0.22230  0.43450  Biso   1.000  H
  H91      1.0000 0.98470  0.41100  0.37610  Biso   1.000  H
  C136     1.0000 0.06760  0.40171  0.50030  Biso   1.000  C
  H92      1.0000 0.30390  0.11330  0.49410  Biso   1.000  H
  C137     1.0000 0.72400  0.77020  0.14310  Biso   1.000  C
  H93      1.0000 0.65410  0.76680  0.01060  Biso   1.000  H
  C138     1.0000 0.11970  0.35602  0.55660  Biso   1.000  C
  H94      1.0000 0.06460  0.44800  0.51950  Biso   1.000  H
  H95      1.0000 0.71940  0.72250  0.15420  Biso   1.000  H
  H96      1.0000 0.15310  0.37180  0.61440  Biso   1.000  H
  Ag4      1.0000 0.20507  0.21384  0.62341  Biso   1.000  Ag
  N13      1.0000 0.10621  0.11792  0.58170  Biso   1.000  N
  N14      1.0000 0.33412  0.16160  0.61650  Biso   1.000  N
  N15      1.0000 0.23140  0.19107  0.78830  Biso   1.000  N
  N16      1.0000 0.12526  0.29024  0.53310  Biso   1.000  N
  C139     1.0000 0.13640  0.05626  0.56560  Biso   1.000  C
  C140     1.0000 0.04200  0.12000  0.62850  Biso   1.000  C
  H97      1.0000 0.18030  0.05420  0.53020  Biso   1.000  H
  C141     1.0000 0.10800  0.99460  0.59720  Biso   1.000  C
  C142     1.0000 0.00780  0.06230  0.66020  Biso   1.000  C
  H98      1.0000 0.01930  0.16330  0.64020  Biso   1.000  H
  C143     1.0000 0.04210  0.99980  0.64560  Biso   1.000  C
  C144     1.0000 0.14490  0.92883  0.57680  Biso   1.000  C
  H99      1.0000 0.96130  0.06550  0.69170  Biso   1.000  H
  H100     1.0000 0.02030  0.95960  0.66910  Biso   1.000  H
  C145     1.0000 0.09570  0.87018  0.56450  Biso   1.000  C
  C146     1.0000 0.22920  0.92293  0.56770  Biso   1.000  C
  H101     1.0000 0.03860  0.87230  0.57270  Biso   1.000  H
  C147     1.0000 0.12800  0.80894  0.54060  Biso   1.000  C
  C148     1.0000 0.26180  0.86091  0.54700  Biso   1.000  C
  H102     1.0000 0.26460  0.96230  0.57590  Biso   1.000  H
  H103     1.0000 0.09230  0.76980  0.53070  Biso   1.000  H
  C149     1.0000 0.21160  0.80313  0.53070  Biso   1.000  C
  H104     1.0000 0.32010  0.85780  0.54380  Biso   1.000  H
  C150     1.0000 0.24470  0.73491  0.51020  Biso   1.000  C
  C151     1.0000 0.31800  0.71086  0.58480  Biso   1.000  C
  C152     1.0000 0.20700  0.69715  0.43500  Biso   1.000  C
  C153     1.0000 0.38980  0.68160  0.56320  Biso   1.000  C
  C154     1.0000 0.31300  0.71952  0.67820  Biso   1.000  C
  C155     1.0000 0.22500  0.62261  0.42510  Biso   1.000  C
  C156     1.0000 0.14430  0.72774  0.35600  Biso   1.000  C
  C157     1.0000 0.45580  0.66140  0.63540  Biso   1.000  C
  H105     1.0000 0.39410  0.67520  0.49890  Biso   1.000  H
  H106     1.0000 0.26440  0.74070  0.69360  Biso   1.000  H
  C158     1.0000 0.37780  0.69790  0.75030  Biso   1.000  C
  C159     1.0000 0.23520  0.59575  0.33850  Biso   1.000  C
  C160     1.0000 0.22890  0.57811  0.50030  Biso   1.000  C
  C161     1.0000 0.16190  0.78916  0.31440  Biso   1.000  C
  C162     1.0000 0.06750  0.69601  0.31820  Biso   1.000  C
  C163     1.0000 0.44950  0.66860  0.72940  Biso   1.000  C
  H107     1.0000 0.50590  0.64260  0.62010  Biso   1.000  H
  H108     1.0000 0.37260  0.70330  0.81440  Biso   1.000  H
  C164     1.0000 0.24990  0.52726  0.32790  Biso   1.000  C
  H109     1.0000 0.23180  0.62550  0.28570  Biso   1.000  H
  H110     1.0000 0.22160  0.59510  0.55990  Biso   1.000  H
  C165     1.0000 0.24320  0.50911  0.48950  Biso   1.000  C
  C166     1.0000 0.10810  0.81581  0.23610  Biso   1.000  C
  H111     1.0000 0.21220  0.81330  0.34060  Biso   1.000  H
  H112     1.0000 0.05310  0.65440  0.34530  Biso   1.000  H
  C167     1.0000 0.01190  0.72373  0.24200  Biso   1.000  C
  C168     1.0000 0.51950  0.64850  0.80860  Biso   1.000  C
  C169     1.0000 0.25330  0.48207  0.40320  Biso   1.000  C
  H113     1.0000 0.25800  0.51050  0.26840  Biso   1.000  H
  H114     1.0000 0.24640  0.47940  0.54240  Biso   1.000  H
  C170     1.0000 0.03220  0.78345  0.19780  Biso   1.000  C
  H115     1.0000 0.12320  0.85680  0.20810  Biso   1.000  H
  H116     1.0000 0.95910  0.70190  0.21940  Biso   1.000  H
  C171     1.0000 0.60000  0.67308  0.81260  Biso   1.000  C
  C172     1.0000 0.50610  0.60790  0.88250  Biso   1.000  C
  C173     1.0000 0.26430  0.40761  0.39060  Biso   1.000  C
  C174     1.0000 0.97690  0.81157  0.11100  Biso   1.000  C
  H117     1.0000 0.60970  0.70030  0.76110  Biso   1.000  H
  H118     1.0000 0.45170  0.58920  0.88280  Biso   1.000  H
  C175     1.0000 0.57370  0.59500  0.95670  Biso   1.000  C
  C176     1.0000 0.22600  0.37631  0.30690  Biso   1.000  C
  C177     1.0000 0.30990  0.36560  0.45990  Biso   1.000  C
  C178     1.0000 0.92310  0.76917  0.04890  Biso   1.000  C
  C179     1.0000 0.98000  0.87957  0.08390  Biso   1.000  C
  C180     1.0000 0.65060  0.62240  0.95440  Biso   1.000  C
  H119     1.0000 0.56610  0.56720  0.00850  Biso   1.000  H
  H120     1.0000 0.19360  0.40430  0.25910  Biso   1.000  H
  H121     1.0000 0.33730  0.38420  0.51890  Biso   1.000  H
  C181     1.0000 0.31520  0.29620  0.44230  Biso   1.000  C
  H122     1.0000 0.92020  0.72230  0.06550  Biso   1.000  H
  H123     1.0000 0.01530  0.91100  0.12390  Biso   1.000  H
  C182     1.0000 0.93240  0.90171  0.99970  Biso   1.000  C
  H124     1.0000 0.69610  0.61330  0.00590  Biso   1.000  H
  C183     1.0000 0.27600  0.27020  0.35690  Biso   1.000  C
  H125     1.0000 0.34590  0.26680  0.48940  Biso   1.000  H
  C184     1.0000 0.88030  0.85602  0.94340  Biso   1.000  C
  H126     1.0000 0.93540  0.94800  0.98050  Biso   1.000  H
  H127     1.0000 0.28060  0.22250  0.34580  Biso   1.000  H
  H128     1.0000 0.84690  0.87180  0.88560  Biso   1.000  H
