data_image0
_cell_length_a       10.2105
_cell_length_b       10.2105
_cell_length_c       31.2223
_cell_angle_alpha    90
_cell_angle_beta     90
_cell_angle_gamma    120

_symmetry_space_group_name_H-M    "P 1"
_symmetry_int_tables_number       1

loop_
  _symmetry_equiv_pos_as_xyz
  'x, y, z'

loop_
  _atom_site_label
  _atom_site_occupancy
  _atom_site_fract_x
  _atom_site_fract_y
  _atom_site_fract_z
  _atom_site_thermal_displace_type
  _atom_site_B_iso_or_equiv
  _atom_site_type_symbol
  O1       1.0000 0.28224  0.19255  0.02156  Biso   1.000  O
  O2       1.0000 0.16627  0.01084  0.06913  Biso   1.000  O
  O3       1.0000 0.25472  0.25039  0.13081  Biso   1.000  O
  O4       1.0000 0.49572  0.35542  0.14837  Biso   1.000  O
  C1       1.0000 0.28158  0.13215  0.05631  Biso   1.000  C
  C2       1.0000 0.41735  0.20646  0.08514  Biso   1.000  C
  H1       1.0000 0.44600  0.13500  0.09580  Biso   1.000  H
  H2       1.0000 0.50000  0.28500  0.07030  Biso   1.000  H
  C3       1.0000 0.38616  0.27459  0.12442  Biso   1.000  C
  O5       1.0000 0.94891  0.52588  0.35489  Biso   1.000  O
  O6       1.0000 0.83294  0.34417  0.40246  Biso   1.000  O
  O7       1.0000 0.92139  0.58372  0.46414  Biso   1.000  O
  O8       1.0000 0.16239  0.68875  0.48170  Biso   1.000  O
  C4       1.0000 0.94825  0.46548  0.38964  Biso   1.000  C
  C5       1.0000 0.08402  0.53979  0.41847  Biso   1.000  C
  H3       1.0000 0.11267  0.46833  0.42913  Biso   1.000  H
  H4       1.0000 0.16667  0.61833  0.40363  Biso   1.000  H
  C6       1.0000 0.05283  0.60792  0.45775  Biso   1.000  C
  O9       1.0000 0.61557  0.85922  0.68823  Biso   1.000  O
  O10      1.0000 0.49960  0.67751  0.73580  Biso   1.000  O
  O11      1.0000 0.58805  0.91706  0.79748  Biso   1.000  O
  O12      1.0000 0.82905  0.02209  0.81504  Biso   1.000  O
  C7       1.0000 0.61491  0.79882  0.72298  Biso   1.000  C
  C8       1.0000 0.75068  0.87313  0.75181  Biso   1.000  C
  H5       1.0000 0.77933  0.80167  0.76247  Biso   1.000  H
  H6       1.0000 0.83333  0.95167  0.73697  Biso   1.000  H
  C9       1.0000 0.71949  0.94126  0.79109  Biso   1.000  C
  O13      1.0000 0.80745  0.08969  0.02156  Biso   1.000  O
  O14      1.0000 0.98916  0.15543  0.06913  Biso   1.000  O
  O15      1.0000 0.74961  0.00433  0.13081  Biso   1.000  O
  O16      1.0000 0.64458  0.14030  0.14837  Biso   1.000  O
  C10      1.0000 0.86785  0.14943  0.05631  Biso   1.000  C
  C11      1.0000 0.79354  0.21089  0.08514  Biso   1.000  C
  H7       1.0000 0.86500  0.31100  0.09580  Biso   1.000  H
  H8       1.0000 0.71500  0.21500  0.07030  Biso   1.000  H
  C12      1.0000 0.72541  0.11157  0.12442  Biso   1.000  C
  O17      1.0000 0.47412  0.42302  0.35489  Biso   1.000  O
  O18      1.0000 0.65583  0.48876  0.40246  Biso   1.000  O
  O19      1.0000 0.41628  0.33766  0.46414  Biso   1.000  O
  O20      1.0000 0.31125  0.47363  0.48170  Biso   1.000  O
  C13      1.0000 0.53452  0.48276  0.38964  Biso   1.000  C
  C14      1.0000 0.46021  0.54422  0.41847  Biso   1.000  C
  H9       1.0000 0.53167  0.64433  0.42913  Biso   1.000  H
  H10      1.0000 0.38167  0.54833  0.40363  Biso   1.000  H
  C15      1.0000 0.39208  0.44490  0.45775  Biso   1.000  C
  O21      1.0000 0.14078  0.75636  0.68823  Biso   1.000  O
  O22      1.0000 0.32249  0.82210  0.73580  Biso   1.000  O
  O23      1.0000 0.08294  0.67100  0.79748  Biso   1.000  O
  O24      1.0000 0.97791  0.80697  0.81504  Biso   1.000  O
  C16      1.0000 0.20118  0.81610  0.72298  Biso   1.000  C
  C17      1.0000 0.12687  0.87756  0.75181  Biso   1.000  C
  H11      1.0000 0.19833  0.97767  0.76247  Biso   1.000  H
  H12      1.0000 0.04833  0.88167  0.73697  Biso   1.000  H
  C18      1.0000 0.05874  0.77824  0.79109  Biso   1.000  C
  O25      1.0000 0.91031  0.71776  0.02156  Biso   1.000  O
  O26      1.0000 0.84457  0.83373  0.06913  Biso   1.000  O
  O27      1.0000 0.99567  0.74528  0.13081  Biso   1.000  O
  O28      1.0000 0.85970  0.50428  0.14837  Biso   1.000  O
  C19      1.0000 0.85057  0.71842  0.05631  Biso   1.000  C
  C20      1.0000 0.78911  0.58265  0.08514  Biso   1.000  C
  H13      1.0000 0.68900  0.55400  0.09580  Biso   1.000  H
  H14      1.0000 0.78500  0.50000  0.07030  Biso   1.000  H
  C21      1.0000 0.88843  0.61384  0.12442  Biso   1.000  C
  O29      1.0000 0.57698  0.05109  0.35489  Biso   1.000  O
  O30      1.0000 0.51124  0.16706  0.40246  Biso   1.000  O
  O31      1.0000 0.66234  0.07861  0.46414  Biso   1.000  O
  O32      1.0000 0.52637  0.83761  0.48170  Biso   1.000  O
  C22      1.0000 0.51724  0.05175  0.38964  Biso   1.000  C
  C23      1.0000 0.45578  0.91598  0.41847  Biso   1.000  C
  H15      1.0000 0.35567  0.88733  0.42913  Biso   1.000  H
  H16      1.0000 0.45167  0.83333  0.40363  Biso   1.000  H
  C24      1.0000 0.55510  0.94717  0.45775  Biso   1.000  C
  O33      1.0000 0.24364  0.38443  0.68823  Biso   1.000  O
  O34      1.0000 0.17790  0.50040  0.73580  Biso   1.000  O
  O35      1.0000 0.32900  0.41195  0.79748  Biso   1.000  O
  O36      1.0000 0.19303  0.17095  0.81504  Biso   1.000  O
  C25      1.0000 0.18390  0.38509  0.72298  Biso   1.000  C
  C26      1.0000 0.12244  0.24932  0.75181  Biso   1.000  C
  H17      1.0000 0.02233  0.22067  0.76247  Biso   1.000  H
  H18      1.0000 0.11833  0.16667  0.73697  Biso   1.000  H
  C27      1.0000 0.22176  0.28051  0.79109  Biso   1.000  C
  O37      1.0000 0.71776  0.80745  0.97844  Biso   1.000  O
  O38      1.0000 0.83373  0.98916  0.93087  Biso   1.000  O
  O39      1.0000 0.74528  0.74961  0.86919  Biso   1.000  O
  O40      1.0000 0.50428  0.64458  0.85163  Biso   1.000  O
  C28      1.0000 0.71842  0.86785  0.94369  Biso   1.000  C
  C29      1.0000 0.58265  0.79354  0.91486  Biso   1.000  C
  H19      1.0000 0.55400  0.86500  0.90420  Biso   1.000  H
  H20      1.0000 0.50000  0.71500  0.92970  Biso   1.000  H
  C30      1.0000 0.61384  0.72541  0.87558  Biso   1.000  C
  O41      1.0000 0.38443  0.14078  0.31177  Biso   1.000  O
  O42      1.0000 0.50040  0.32249  0.26420  Biso   1.000  O
  O43      1.0000 0.41195  0.08294  0.20252  Biso   1.000  O
  O44      1.0000 0.17095  0.97791  0.18496  Biso   1.000  O
  C31      1.0000 0.38509  0.20118  0.27702  Biso   1.000  C
  C32      1.0000 0.24932  0.12687  0.24819  Biso   1.000  C
  H21      1.0000 0.22067  0.19833  0.23753  Biso   1.000  H
  H22      1.0000 0.16667  0.04833  0.26303  Biso   1.000  H
  C33      1.0000 0.28051  0.05874  0.20891  Biso   1.000  C
  O45      1.0000 0.05109  0.47412  0.64511  Biso   1.000  O
  O46      1.0000 0.16706  0.65583  0.59754  Biso   1.000  O
  O47      1.0000 0.07861  0.41628  0.53586  Biso   1.000  O
  O48      1.0000 0.83761  0.31125  0.51830  Biso   1.000  O
  C34      1.0000 0.05175  0.53452  0.61036  Biso   1.000  C
  C35      1.0000 0.91598  0.46021  0.58153  Biso   1.000  C
  H23      1.0000 0.88733  0.53167  0.57087  Biso   1.000  H
  H24      1.0000 0.83333  0.38167  0.59637  Biso   1.000  H
  C36      1.0000 0.94717  0.39208  0.54225  Biso   1.000  C
  O49      1.0000 0.19255  0.91031  0.97844  Biso   1.000  O
  O50      1.0000 0.01084  0.84457  0.93087  Biso   1.000  O
  O51      1.0000 0.25039  0.99567  0.86919  Biso   1.000  O
  O52      1.0000 0.35542  0.85970  0.85163  Biso   1.000  O
  C37      1.0000 0.13215  0.85057  0.94369  Biso   1.000  C
  C38      1.0000 0.20646  0.78911  0.91486  Biso   1.000  C
  H25      1.0000 0.13500  0.68900  0.90420  Biso   1.000  H
  H26      1.0000 0.28500  0.78500  0.92970  Biso   1.000  H
  C39      1.0000 0.27459  0.88843  0.87558  Biso   1.000  C
  O53      1.0000 0.85922  0.24364  0.31177  Biso   1.000  O
  O54      1.0000 0.67751  0.17790  0.26420  Biso   1.000  O
  O55      1.0000 0.91706  0.32900  0.20252  Biso   1.000  O
  O56      1.0000 0.02209  0.19303  0.18496  Biso   1.000  O
  C40      1.0000 0.79882  0.18390  0.27702  Biso   1.000  C
  C41      1.0000 0.87313  0.12244  0.24819  Biso   1.000  C
  H27      1.0000 0.80167  0.02233  0.23753  Biso   1.000  H
  H28      1.0000 0.95167  0.11833  0.26303  Biso   1.000  H
  C42      1.0000 0.94126  0.22176  0.20891  Biso   1.000  C
  O57      1.0000 0.52588  0.57698  0.64511  Biso   1.000  O
  O58      1.0000 0.34417  0.51124  0.59754  Biso   1.000  O
  O59      1.0000 0.58372  0.66234  0.53586  Biso   1.000  O
  O60      1.0000 0.68875  0.52637  0.51830  Biso   1.000  O
  C43      1.0000 0.46548  0.51724  0.61036  Biso   1.000  C
  C44      1.0000 0.53979  0.45578  0.58153  Biso   1.000  C
  H29      1.0000 0.46833  0.35567  0.57087  Biso   1.000  H
  H30      1.0000 0.61833  0.45167  0.59637  Biso   1.000  H
  C45      1.0000 0.60792  0.55510  0.54225  Biso   1.000  C
  O61      1.0000 0.08969  0.28224  0.97844  Biso   1.000  O
  O62      1.0000 0.15543  0.16627  0.93087  Biso   1.000  O
  O63      1.0000 0.00433  0.25472  0.86919  Biso   1.000  O
  O64      1.0000 0.14030  0.49572  0.85163  Biso   1.000  O
  C46      1.0000 0.14943  0.28158  0.94369  Biso   1.000  C
  C47      1.0000 0.21089  0.41735  0.91486  Biso   1.000  C
  H31      1.0000 0.31100  0.44600  0.90420  Biso   1.000  H
  H32      1.0000 0.21500  0.50000  0.92970  Biso   1.000  H
  C48      1.0000 0.11157  0.38616  0.87558  Biso   1.000  C
  O65      1.0000 0.75636  0.61557  0.31177  Biso   1.000  O
  O66      1.0000 0.82210  0.49960  0.26420  Biso   1.000  O
  O67      1.0000 0.67100  0.58805  0.20252  Biso   1.000  O
  O68      1.0000 0.80697  0.82905  0.18496  Biso   1.000  O
  C49      1.0000 0.81610  0.61491  0.27702  Biso   1.000  C
  C50      1.0000 0.87756  0.75068  0.24819  Biso   1.000  C
  H33      1.0000 0.97767  0.77933  0.23753  Biso   1.000  H
  H34      1.0000 0.88167  0.83333  0.26303  Biso   1.000  H
  C51      1.0000 0.77824  0.71949  0.20891  Biso   1.000  C
  O69      1.0000 0.42302  0.94891  0.64511  Biso   1.000  O
  O70      1.0000 0.48876  0.83294  0.59754  Biso   1.000  O
  O71      1.0000 0.33766  0.92139  0.53586  Biso   1.000  O
  O72      1.0000 0.47363  0.16239  0.51830  Biso   1.000  O
  C52      1.0000 0.48276  0.94825  0.61036  Biso   1.000  C
  C53      1.0000 0.54422  0.08402  0.58153  Biso   1.000  C
  H35      1.0000 0.64433  0.11267  0.57087  Biso   1.000  H
  H36      1.0000 0.54833  0.16667  0.59637  Biso   1.000  H
  C54      1.0000 0.44490  0.05283  0.54225  Biso   1.000  C
  La1      1.0000 0.00000  0.00000  0.00000  Biso   1.000  La
  La2      1.0000 0.66667  0.33333  0.33333  Biso   1.000  La
  La3      1.0000 0.33333  0.66667  0.66667  Biso   1.000  La
  La4      1.0000 0.00000  0.00000  0.13170  Biso   1.000  La
  La5      1.0000 0.66667  0.33333  0.46504  Biso   1.000  La
  La6      1.0000 0.33333  0.66667  0.79837  Biso   1.000  La
  La7      1.0000 0.00000  0.00000  0.86830  Biso   1.000  La
  La8      1.0000 0.66667  0.33333  0.20163  Biso   1.000  La
  La9      1.0000 0.33333  0.66667  0.53496  Biso   1.000  La
