data_image0
_cell_length_a       7.7266
_cell_length_b       7.9643
_cell_length_c       21.2205
_cell_angle_alpha    90.298
_cell_angle_beta     92.209
_cell_angle_gamma    90.805

_symmetry_space_group_name_H-M    "P 1"
_symmetry_int_tables_number       1

loop_
  _symmetry_equiv_pos_as_xyz
  'x, y, z'

loop_
  _atom_site_label
  _atom_site_occupancy
  _atom_site_fract_x
  _atom_site_fract_y
  _atom_site_fract_z
  _atom_site_thermal_displace_type
  _atom_site_B_iso_or_equiv
  _atom_site_type_symbol
  Mn1      1.0000 0.61130  0.60285  0.60548  Biso   1.000  Mn
  Mn2      1.0000 0.29072  0.84870  0.55381  Biso   1.000  Mn
  Mn3      1.0000 0.20044  0.67359  0.82351  Biso   1.000  Mn
  Mn4      1.0000 0.52334  0.42480  0.87939  Biso   1.000  Mn
  Mn5      1.0000 0.59743  0.81821  0.97460  Biso   1.000  Mn
  P1       1.0000 0.58733  0.74633  0.45622  Biso   1.000  P
  P2       1.0000 0.26565  0.57450  0.97999  Biso   1.000  P
  P3       1.0000 0.32310  0.05334  0.88056  Biso   1.000  P
  O1       1.0000 0.50820  0.71260  0.52057  Biso   1.000  O
  O2       1.0000 0.78560  0.70220  0.46353  Biso   1.000  O
  H1       1.0000 0.79890  0.60350  0.45390  Biso   1.000  H
  O3       1.0000 0.50010  0.63460  0.40543  Biso   1.000  O
  O4       1.0000 0.57950  0.92800  0.43720  Biso   1.000  O
  O5       1.0000 0.41030  0.65200  0.02233  Biso   1.000  O
  O6       1.0000 0.32200  0.58410  0.91185  Biso   1.000  O
  O7       1.0000 0.10740  0.69480  0.98683  Biso   1.000  O
  H2       1.0000 0.01880  0.63860  0.99100  Biso   1.000  H
  O8       1.0000 0.21470  0.39670  0.99782  Biso   1.000  O
  O9       1.0000 0.41560  0.20100  0.85274  Biso   1.000  O
  O10      1.0000 0.13130  0.11240  0.89545  Biso   1.000  O
  H3       1.0000 0.11010  0.19980  0.87660  Biso   1.000  H
  O11      1.0000 0.40440  0.00280  0.94464  Biso   1.000  O
  O12      1.0000 0.30340  0.90850  0.83565  Biso   1.000  O
  O13      1.0000 0.87110  0.51070  0.58961  Biso   1.000  O
  O14      1.0000 0.13170  0.60510  0.56393  Biso   1.000  O
  O15      1.0000 0.78500  0.82420  0.62137  Biso   1.000  O
  O16      1.0000 0.04060  0.92020  0.59120  Biso   1.000  O
  O17      1.0000 0.42250  0.53580  0.78878  Biso   1.000  O
  O18      1.0000 0.60890  0.54300  0.71106  Biso   1.000  O
  O19      1.0000 0.19960  0.72010  0.71954  Biso   1.000  O
  O20      1.0000 0.39620  0.74570  0.64521  Biso   1.000  O
  O21      1.0000 0.77380  0.35510  0.84932  Biso   1.000  O
  O22      1.0000 0.03370  0.44920  0.82479  Biso   1.000  O
  O23      1.0000 0.68110  0.67160  0.87848  Biso   1.000  O
  O24      1.0000 0.94140  0.76250  0.84915  Biso   1.000  O
  C1       1.0000 0.98260  0.62400  0.58308  Biso   1.000  C
  C2       1.0000 0.93260  0.80610  0.60015  Biso   1.000  C
  C3       1.0000 0.47120  0.57880  0.73479  Biso   1.000  C
  C4       1.0000 0.34060  0.69150  0.69713  Biso   1.000  C
  C5       1.0000 0.88400  0.46970  0.84257  Biso   1.000  C
  C6       1.0000 0.82940  0.65110  0.85815  Biso   1.000  C
  Mn6      1.0000 0.38870  0.39715  0.39452  Biso   1.000  Mn
  Mn7      1.0000 0.70928  0.15130  0.44619  Biso   1.000  Mn
  Mn8      1.0000 0.79956  0.32641  0.17649  Biso   1.000  Mn
  Mn9      1.0000 0.47666  0.57520  0.12061  Biso   1.000  Mn
  Mn10     1.0000 0.40257  0.18179  0.02540  Biso   1.000  Mn
  P4       1.0000 0.41267  0.25367  0.54378  Biso   1.000  P
  P5       1.0000 0.73435  0.42550  0.02001  Biso   1.000  P
  P6       1.0000 0.67690  0.94666  0.11944  Biso   1.000  P
  O25      1.0000 0.49180  0.28740  0.47943  Biso   1.000  O
  O26      1.0000 0.21440  0.29780  0.53647  Biso   1.000  O
  H4       1.0000 0.20110  0.39650  0.54610  Biso   1.000  H
  O27      1.0000 0.49990  0.36540  0.59457  Biso   1.000  O
  O28      1.0000 0.42050  0.07200  0.56280  Biso   1.000  O
  O29      1.0000 0.58970  0.34800  0.97767  Biso   1.000  O
  O30      1.0000 0.67800  0.41590  0.08815  Biso   1.000  O
  O31      1.0000 0.89260  0.30520  0.01317  Biso   1.000  O
  H5       1.0000 0.98120  0.36140  0.00900  Biso   1.000  H
  O32      1.0000 0.78530  0.60330  0.00218  Biso   1.000  O
  O33      1.0000 0.58440  0.79900  0.14726  Biso   1.000  O
  O34      1.0000 0.86870  0.88760  0.10455  Biso   1.000  O
  H6       1.0000 0.88990  0.80020  0.12340  Biso   1.000  H
  O35      1.0000 0.59560  0.99720  0.05536  Biso   1.000  O
  O36      1.0000 0.69660  0.09150  0.16435  Biso   1.000  O
  O37      1.0000 0.12890  0.48930  0.41039  Biso   1.000  O
  O38      1.0000 0.86830  0.39490  0.43607  Biso   1.000  O
  O39      1.0000 0.21500  0.17580  0.37863  Biso   1.000  O
  O40      1.0000 0.95940  0.07980  0.40880  Biso   1.000  O
  O41      1.0000 0.57750  0.46420  0.21122  Biso   1.000  O
  O42      1.0000 0.39110  0.45700  0.28894  Biso   1.000  O
  O43      1.0000 0.80040  0.27990  0.28046  Biso   1.000  O
  O44      1.0000 0.60380  0.25430  0.35479  Biso   1.000  O
  O45      1.0000 0.22620  0.64490  0.15068  Biso   1.000  O
  O46      1.0000 0.96630  0.55080  0.17521  Biso   1.000  O
  O47      1.0000 0.31890  0.32840  0.12152  Biso   1.000  O
  O48      1.0000 0.05860  0.23750  0.15085  Biso   1.000  O
  C7       1.0000 0.01740  0.37600  0.41692  Biso   1.000  C
  C8       1.0000 0.06740  0.19390  0.39985  Biso   1.000  C
  C9       1.0000 0.52880  0.42120  0.26521  Biso   1.000  C
  C10      1.0000 0.65940  0.30850  0.30287  Biso   1.000  C
  C11      1.0000 0.11600  0.53030  0.15743  Biso   1.000  C
  C12      1.0000 0.17060  0.34890  0.14185  Biso   1.000  C
