data_VUDQOB_clean
_audit_creation_date              2014-07-02
_audit_creation_method            'Materials Studio'
_symmetry_space_group_name_H-M    'P1'
_symmetry_Int_Tables_number       1
_symmetry_cell_setting            triclinic
loop_
_symmetry_equiv_pos_as_xyz
  x,y,z
_cell_length_a                    10.7428
_cell_length_b                    11.2786
_cell_length_c                    26.1720
_cell_angle_alpha                 85.0600
_cell_angle_beta                  88.1060
_cell_angle_gamma                 62.3670
loop_
_atom_site_label
_atom_site_type_symbol
_atom_site_fract_x
_atom_site_fract_y
_atom_site_fract_z
_atom_site_U_iso_or_equiv
_atom_site_adp_type
_atom_site_occupancy
Yb1    Yb    0.37998   0.53581   0.56035   0.01267  Uiso   1.00
Yb2    Yb    0.41142   0.11723   0.89964   0.01267  Uiso   1.00
Yb3    Yb    0.34380   0.34639   0.74182   0.01267  Uiso   1.00
Yb4    Yb    0.62002   0.46419   0.43965   0.01267  Uiso   1.00
Yb5    Yb    0.58858   0.88277   0.10036   0.01267  Uiso   1.00
Yb6    Yb    0.65620   0.65361   0.25818   0.01267  Uiso   1.00
H1     H     0.85590   0.26810   0.65120   0.01267  Uiso   1.00
H2     H     0.82630   0.51600   0.52670   0.01267  Uiso   1.00
H3     H     0.46020   0.10910   0.57410   0.01267  Uiso   1.00
H4     H     0.55150   0.09100   0.42520   0.01267  Uiso   1.00
H5     H     0.43400   0.62110   0.77770   0.01267  Uiso   1.00
H6     H     0.33430   0.85910   0.64680   0.01267  Uiso   1.00
H7     H     0.07330   0.24840   0.67050   0.01267  Uiso   1.00
H8     H     0.03690   0.50450   0.55000   0.01267  Uiso   1.00
H9     H     0.05390   0.15660   0.03080   0.01267  Uiso   1.00
H10    H     0.13120   0.87230   0.93590   0.01267  Uiso   1.00
H11    H     0.59250   0.28010   0.03480   0.01267  Uiso   1.00
H12    H     0.35730   0.56840   0.92830   0.01267  Uiso   1.00
H13    H     0.81570   0.16430   0.90250   0.01267  Uiso   1.00
H14    H     0.71080   0.32530   0.75920   0.01267  Uiso   1.00
H15    H     0.01610   0.18800   0.89640   0.01267  Uiso   1.00
H16    H     0.91780   0.33790   0.75120   0.01267  Uiso   1.00
H17    H     0.45970   0.78210   0.81850   0.01267  Uiso   1.00
H18    H     0.36770   0.01750   0.68760   0.01267  Uiso   1.00
H19    H     0.14410   0.73190   0.34880   0.01267  Uiso   1.00
H20    H     0.17370   0.48400   0.47330   0.01267  Uiso   1.00
H21    H     0.53980   0.89090   0.42590   0.01267  Uiso   1.00
H22    H     0.44850   0.90900   0.57480   0.01267  Uiso   1.00
H23    H     0.56600   0.37890   0.22230   0.01267  Uiso   1.00
H24    H     0.66570   0.14090   0.35320   0.01267  Uiso   1.00
H25    H     0.92670   0.75160   0.32950   0.01267  Uiso   1.00
H26    H     0.96310   0.49550   0.45000   0.01267  Uiso   1.00
H27    H     0.94610   0.84340   0.96920   0.01267  Uiso   1.00
H28    H     0.86880   0.12770   0.06410   0.01267  Uiso   1.00
H29    H     0.40750   0.71990   0.96520   0.01267  Uiso   1.00
H30    H     0.64270   0.43160   0.07170   0.01267  Uiso   1.00
H31    H     0.18430   0.83570   0.09750   0.01267  Uiso   1.00
H32    H     0.28920   0.67470   0.24080   0.01267  Uiso   1.00
H33    H     0.98390   0.81200   0.10360   0.01267  Uiso   1.00
H34    H     0.08220   0.66210   0.24880   0.01267  Uiso   1.00
H35    H     0.54030   0.21790   0.18150   0.01267  Uiso   1.00
H36    H     0.63230   0.98250   0.31240   0.01267  Uiso   1.00
C1     C     0.67440   0.41570   0.57540   0.01267  Uiso   1.00
C2     C     0.81730   0.39530   0.58790   0.01267  Uiso   1.00
C3     C     0.89280   0.31510   0.63050   0.01267  Uiso   1.00
C4     C     0.87350   0.46490   0.55630   0.01267  Uiso   1.00
C5     C     0.51170   0.25220   0.49880   0.01267  Uiso   1.00
C6     C     0.47570   0.06540   0.54420   0.01267  Uiso   1.00
C7     C     0.53020   0.05480   0.45540   0.01267  Uiso   1.00
C8     C     0.36950   0.61750   0.68060   0.01267  Uiso   1.00
C9     C     0.38310   0.72310   0.70830   0.01267  Uiso   1.00
C10    C     0.42010   0.70080   0.75950   0.01267  Uiso   1.00
C11    C     0.36150   0.84280   0.68110   0.01267  Uiso   1.00
C12    C     0.20890   0.37750   0.62750   0.01267  Uiso   1.00
C13    C     0.07440   0.37740   0.61230   0.01267  Uiso   1.00
C14    C     0.02210   0.30430   0.64240   0.01267  Uiso   1.00
C15    C     0.00040   0.45590   0.57000   0.01267  Uiso   1.00
C16    C     0.23230   0.03660   0.95640   0.01267  Uiso   1.00
C17    C     0.11450   0.01510   0.98040   0.01267  Uiso   1.00
C18    C     0.03310   0.09280   0.01840   0.01267  Uiso   1.00
C19    C     0.07860   0.92370   0.96210   0.01267  Uiso   1.00
C20    C     0.43870   0.30860   0.95340   0.01267  Uiso   1.00
C21    C     0.47040   0.40890   0.97790   0.01267  Uiso   1.00
C22    C     0.55530   0.36840   0.02080   0.01267  Uiso   1.00
C23    C     0.41500   0.54090   0.95720   0.01267  Uiso   1.00
C24    C     0.61080   0.22400   0.83590   0.01267  Uiso   1.00
C25    C     0.74140   0.24070   0.83150   0.01267  Uiso   1.00
C26    C     0.83530   0.20030   0.87180   0.01267  Uiso   1.00
C27    C     0.77370   0.29430   0.78670   0.01267  Uiso   1.00
C28    C     0.12920   0.26680   0.81720   0.01267  Uiso   1.00
C29    C     0.99260   0.25850   0.82250   0.01267  Uiso   1.00
C30    C     0.95720   0.21190   0.86800   0.01267  Uiso   1.00
C31    C     0.89760   0.30250   0.78190   0.01267  Uiso   1.00
C32    C     0.43980   0.01800   0.78340   0.01267  Uiso   1.00
C33    C     0.41910   0.91330   0.75690   0.01267  Uiso   1.00
C34    C     0.43660   0.79670   0.78380   0.01267  Uiso   1.00
C35    C     0.38070   0.93780   0.70560   0.01267  Uiso   1.00
C36    C     0.50500   0.11990   0.49880   0.01267  Uiso   1.00
C37    C     0.32560   0.58430   0.42460   0.01267  Uiso   1.00
C38    C     0.18270   0.60470   0.41210   0.01267  Uiso   1.00
C39    C     0.10720   0.68490   0.36950   0.01267  Uiso   1.00
C40    C     0.12650   0.53510   0.44370   0.01267  Uiso   1.00
C41    C     0.48830   0.74780   0.50120   0.01267  Uiso   1.00
C42    C     0.52430   0.93460   0.45580   0.01267  Uiso   1.00
C43    C     0.46980   0.94520   0.54460   0.01267  Uiso   1.00
C44    C     0.63050   0.38250   0.31940   0.01267  Uiso   1.00
C45    C     0.61690   0.27690   0.29170   0.01267  Uiso   1.00
C46    C     0.57990   0.29920   0.24050   0.01267  Uiso   1.00
C47    C     0.63850   0.15720   0.31890   0.01267  Uiso   1.00
C48    C     0.79110   0.62250   0.37250   0.01267  Uiso   1.00
C49    C     0.92560   0.62260   0.38770   0.01267  Uiso   1.00
C50    C     0.97790   0.69570   0.35760   0.01267  Uiso   1.00
C51    C     0.99960   0.54410   0.43000   0.01267  Uiso   1.00
C52    C     0.76770   0.96340   0.04360   0.01267  Uiso   1.00
C53    C     0.88550   0.98490   0.01960   0.01267  Uiso   1.00
C54    C     0.96690   0.90720   0.98160   0.01267  Uiso   1.00
C55    C     0.92140   0.07630   0.03790   0.01267  Uiso   1.00
C56    C     0.56130   0.69140   0.04660   0.01267  Uiso   1.00
C57    C     0.52960   0.59110   0.02210   0.01267  Uiso   1.00
C58    C     0.44470   0.63160   0.97920   0.01267  Uiso   1.00
C59    C     0.58500   0.45910   0.04280   0.01267  Uiso   1.00
C60    C     0.38920   0.77600   0.16410   0.01267  Uiso   1.00
C61    C     0.25860   0.75930   0.16850   0.01267  Uiso   1.00
C62    C     0.16470   0.79970   0.12820   0.01267  Uiso   1.00
C63    C     0.22630   0.70570   0.21330   0.01267  Uiso   1.00
C64    C     0.87080   0.73320   0.18280   0.01267  Uiso   1.00
C65    C     0.00740   0.74150   0.17750   0.01267  Uiso   1.00
C66    C     0.04280   0.78810   0.13200   0.01267  Uiso   1.00
C67    C     0.10240   0.69750   0.21810   0.01267  Uiso   1.00
C68    C     0.56020   0.98200   0.21660   0.01267  Uiso   1.00
C69    C     0.58090   0.08670   0.24310   0.01267  Uiso   1.00
C70    C     0.56340   0.20330   0.21620   0.01267  Uiso   1.00
C71    C     0.61930   0.06220   0.29440   0.01267  Uiso   1.00
C72    C     0.49500   0.88010   0.50120   0.01267  Uiso   1.00
O1     O     0.62860   0.44990   0.52973   0.01267  Uiso   1.00
O2     O     0.59510   0.40890   0.61060   0.01267  Uiso   1.00
O3     O     0.33420   0.64510   0.63400   0.01267  Uiso   1.00
O4     O     0.24420   0.45490   0.60060   0.01267  Uiso   1.00
O5     O     0.45580   0.32060   0.53520   0.01267  Uiso   1.00
O6     O     0.57320   0.28130   0.46160   0.01267  Uiso   1.00
O7     O     0.30290   0.96810   0.92180   0.01267  Uiso   1.00
O8     O     0.25510   0.12890   0.97160   0.01267  Uiso   1.00
O9     O     0.35540   0.34690   0.91580   0.01267  Uiso   1.00
O10    O     0.49450   0.18910   0.97197   0.01267  Uiso   1.00
O11    O     0.60550   0.14400   0.87060   0.01267  Uiso   1.00
O12    O     0.46470   0.99670   0.83000   0.01267  Uiso   1.00
O13    O     0.20650   0.23440   0.85610   0.01267  Uiso   1.00
O14    O     0.39540   0.50900   0.70621   0.01267  Uiso   1.00
O15    O     0.27350   0.30550   0.66570   0.01267  Uiso   1.00
O16    O     0.15910   0.30260   0.77440   0.01267  Uiso   1.00
O17    O     0.43560   0.11600   0.75580   0.01267  Uiso   1.00
O18    O     0.51310   0.29320   0.80480   0.01267  Uiso   1.00
O19    O     0.37140   0.55010   0.47027   0.01267  Uiso   1.00
O20    O     0.40490   0.59110   0.38940   0.01267  Uiso   1.00
O21    O     0.66580   0.35490   0.36600   0.01267  Uiso   1.00
O22    O     0.75580   0.54510   0.39940   0.01267  Uiso   1.00
O23    O     0.54420   0.67940   0.46480   0.01267  Uiso   1.00
O24    O     0.42680   0.71870   0.53840   0.01267  Uiso   1.00
O25    O     0.69710   0.03190   0.07820   0.01267  Uiso   1.00
O26    O     0.74490   0.87110   0.02840   0.01267  Uiso   1.00
O27    O     0.64460   0.65310   0.08420   0.01267  Uiso   1.00
O28    O     0.50550   0.81090   0.02803   0.01267  Uiso   1.00
O29    O     0.39450   0.85600   0.12940   0.01267  Uiso   1.00
O30    O     0.53530   0.00330   0.17000   0.01267  Uiso   1.00
O31    O     0.79350   0.76560   0.14390   0.01267  Uiso   1.00
O32    O     0.60460   0.49100   0.29379   0.01267  Uiso   1.00
O33    O     0.72650   0.69450   0.33430   0.01267  Uiso   1.00
O34    O     0.84090   0.69740   0.22560   0.01267  Uiso   1.00
O35    O     0.56440   0.88400   0.24420   0.01267  Uiso   1.00
O36    O     0.48690   0.70680   0.19520   0.01267  Uiso   1.00
