data_image0
_cell_length_a       17.005
_cell_length_b       17.539
_cell_length_c       21.668
_cell_angle_alpha    92.01
_cell_angle_beta     104.49
_cell_angle_gamma    107.16

_symmetry_space_group_name_H-M    "P 1"
_symmetry_int_tables_number       1

loop_
  _symmetry_equiv_pos_as_xyz
  'x, y, z'

loop_
  _atom_site_label
  _atom_site_occupancy
  _atom_site_fract_x
  _atom_site_fract_y
  _atom_site_fract_z
  _atom_site_thermal_displace_type
  _atom_site_B_iso_or_equiv
  _atom_site_type_symbol
  Dy1      1.0000 0.88068  0.71120  0.09299  Biso   1.000  Dy
  Dy2      1.0000 0.00225  0.75898  0.29576  Biso   1.000  Dy
  Cu1      1.0000 0.43220  0.71086  0.19027  Biso   1.000  Cu
  Cu2      1.0000 0.87810  0.21779  0.19107  Biso   1.000  Cu
  Cu3      1.0000 0.88517  0.70721  0.67823  Biso   1.000  Cu
  O1       1.0000 0.97450  0.69130  0.38837  Biso   1.000  O
  O2       1.0000 0.98400  0.81710  0.39507  Biso   1.000  O
  O3       1.0000 0.94700  0.54750  0.58610  Biso   1.000  O
  O4       1.0000 0.90950  0.60780  0.65830  Biso   1.000  O
  O5       1.0000 0.92300  0.11390  0.34800  Biso   1.000  O
  O6       1.0000 0.91420  0.20870  0.28240  Biso   1.000  O
  O7       1.0000 0.95650  0.86160  0.24542  Biso   1.000  O
  O8       1.0000 0.92600  0.84550  0.14062  Biso   1.000  O
  O9       1.0000 0.87310  0.89120  0.78180  Biso   1.000  O
  O10      1.0000 0.89450  0.64590  0.99557  Biso   1.000  O
  O11      1.0000 0.90100  0.77460  0.99587  Biso   1.000  O
  O12      1.0000 0.95300  0.62630  0.25158  Biso   1.000  O
  O13      1.0000 0.05610  0.76570  0.20862  Biso   1.000  O
  O14      1.0000 0.02820  0.74920  0.10156  Biso   1.000  O
  O15      1.0000 0.42780  0.72420  0.28039  Biso   1.000  O
  O16      1.0000 0.34850  0.74950  0.33940  Biso   1.000  O
  O17      1.0000 0.83090  0.70610  0.18062  Biso   1.000  O
  O18      1.0000 0.85380  0.72290  0.28650  Biso   1.000  O
  O19      1.0000 0.52610  0.68470  0.04620  Biso   1.000  O
  O20      1.0000 0.43840  0.70010  0.10154  Biso   1.000  O
  O21      1.0000 0.92750  0.61020  0.14219  Biso   1.000  O
  O22      1.0000 0.86090  0.32700  0.03330  Biso   1.000  O
  O23      1.0000 0.86750  0.23240  0.10140  Biso   1.000  O
  O24      1.0000 0.88100  0.81330  0.70070  Biso   1.000  O
  N1       1.0000 0.89660  0.69930  0.77050  Biso   1.000  N
  N2       1.0000 0.89810  0.11460  0.18380  Biso   1.000  N
  N3       1.0000 0.90560  0.72880  0.59470  Biso   1.000  N
  N4       1.0000 0.89190  0.33400  0.20180  Biso   1.000  N
  N5       1.0000 0.54670  0.69960  0.20920  Biso   1.000  N
  N6       1.0000 0.32240  0.73170  0.17250  Biso   1.000  N
  C1       1.0000 0.93700  0.88380  0.19390  Biso   1.000  C
  C2       1.0000 0.80780  0.71070  0.23090  Biso   1.000  C
  C3       1.0000 0.71260  0.70390  0.22090  Biso   1.000  C
  C4       1.0000 0.97030  0.75140  0.41660  Biso   1.000  C
  C5       1.0000 0.90090  0.71000  0.96810  Biso   1.000  C
  C6       1.0000 0.90440  0.70560  0.90010  Biso   1.000  C
  C7       1.0000 0.65760  0.69780  0.16270  Biso   1.000  C
  H1       1.0000 0.67550  0.69440  0.12580  Biso   1.000  H
  C8       1.0000 0.18860  0.74130  0.10780  Biso   1.000  C
  H2       1.0000 0.15250  0.73990  0.06730  Biso   1.000  H
  C9       1.0000 0.26850  0.73230  0.11490  Biso   1.000  C
  H3       1.0000 0.28620  0.72640  0.07820  Biso   1.000  H
  C10      1.0000 0.21940  0.75250  0.22530  Biso   1.000  C
  H4       1.0000 0.20400  0.75890  0.26290  Biso   1.000  H
  C11      1.0000 0.29930  0.74220  0.22530  Biso   1.000  C
  C12      1.0000 0.07640  0.75650  0.15700  Biso   1.000  C
  C13      1.0000 0.92210  0.96330  0.19150  Biso   1.000  C
  C14      1.0000 0.51000  0.69260  0.09780  Biso   1.000  C
  C15      1.0000 0.36430  0.74000  0.28900  Biso   1.000  C
  C16      1.0000 0.16440  0.75240  0.16310  Biso   1.000  C
  C17      1.0000 0.57540  0.69640  0.15810  Biso   1.000  C
  C18      1.0000 0.59860  0.70390  0.26740  Biso   1.000  C
  H5       1.0000 0.57780  0.70570  0.30310  Biso   1.000  H
  C19      1.0000 0.90990  0.64050  0.86920  Biso   1.000  C
  H6       1.0000 0.91640  0.59720  0.89120  Biso   1.000  H
  C20      1.0000 0.90610  0.63790  0.80480  Biso   1.000  C
  H7       1.0000 0.91020  0.59230  0.78420  Biso   1.000  H
  C21      1.0000 0.89090  0.76270  0.80060  Biso   1.000  C
  C22      1.0000 0.89660  0.76900  0.86560  Biso   1.000  C
  H8       1.0000 0.89520  0.81590  0.88600  Biso   1.000  H
  C23      1.0000 0.89980  0.44520  0.14080  Biso   1.000  C
  H9       1.0000 0.89630  0.46610  0.10180  Biso   1.000  H
  C24      1.0000 0.92080  0.49620  0.19850  Biso   1.000  C
  C25      1.0000 0.93510  0.58550  0.19770  Biso   1.000  C
  C26      1.0000 0.88470  0.36460  0.14350  Biso   1.000  C
  C27      1.0000 0.90780  0.38120  0.25590  Biso   1.000  C
  H10      1.0000 0.90840  0.35930  0.29450  Biso   1.000  H
  C28      1.0000 0.92330  0.46220  0.25430  Biso   1.000  C
  H11      1.0000 0.93600  0.49500  0.29240  Biso   1.000  H
  C29      1.0000 0.89260  0.07240  0.13070  Biso   1.000  C
  H12      1.0000 0.88270  0.09430  0.09210  Biso   1.000  H
  C30      1.0000 0.91440  0.08580  0.24070  Biso   1.000  C
  C31      1.0000 0.88220  0.82700  0.75860  Biso   1.000  C
  C32      1.0000 0.94980  0.67780  0.50940  Biso   1.000  C
  H13      1.0000 0.96560  0.63720  0.49210  Biso   1.000  H
  C33      1.0000 0.92800  0.67060  0.56800  Biso   1.000  C
  C34      1.0000 0.90530  0.79680  0.56460  Biso   1.000  C
  H14      1.0000 0.89400  0.83860  0.58460  Biso   1.000  H
  C35      1.0000 0.90130  0.99450  0.13060  Biso   1.000  C
  H15      1.0000 0.89370  0.96400  0.09230  Biso   1.000  H
  C36      1.0000 0.92710  0.00940  0.24450  Biso   1.000  C
  H16      1.0000 0.93910  0.99080  0.28440  Biso   1.000  H
  C37      1.0000 0.94810  0.74550  0.47640  Biso   1.000  C
  C38      1.0000 0.68390  0.70600  0.27620  Biso   1.000  C
  H17      1.0000 0.71990  0.70870  0.31690  Biso   1.000  H
  C39      1.0000 0.91980  0.13960  0.29540  Biso   1.000  C
  C40      1.0000 0.86950  0.30610  0.08620  Biso   1.000  C
  C41      1.0000 0.92610  0.60320  0.60630  Biso   1.000  C
  C42      1.0000 0.92180  0.80450  0.50370  Biso   1.000  C
  H18      1.0000 0.91530  0.84800  0.48210  Biso   1.000  H
  Dy3      1.0000 0.11932  0.28880  0.90701  Biso   1.000  Dy
  Dy4      1.0000 0.99776  0.24102  0.70424  Biso   1.000  Dy
  Cu4      1.0000 0.56780  0.28914  0.80973  Biso   1.000  Cu
  Cu5      1.0000 0.12190  0.78221  0.80893  Biso   1.000  Cu
  Cu6      1.0000 0.11483  0.29279  0.32177  Biso   1.000  Cu
  O25      1.0000 0.02550  0.30870  0.61163  Biso   1.000  O
  O26      1.0000 0.01600  0.18290  0.60493  Biso   1.000  O
  O27      1.0000 0.05300  0.45250  0.41390  Biso   1.000  O
  O28      1.0000 0.09050  0.39220  0.34170  Biso   1.000  O
  O29      1.0000 0.07700  0.88610  0.65200  Biso   1.000  O
  O30      1.0000 0.08580  0.79130  0.71760  Biso   1.000  O
  O31      1.0000 0.04350  0.13840  0.75458  Biso   1.000  O
  O32      1.0000 0.07400  0.15450  0.85938  Biso   1.000  O
  O33      1.0000 0.12690  0.10880  0.21820  Biso   1.000  O
  O34      1.0000 0.10550  0.35410  0.00443  Biso   1.000  O
  O35      1.0000 0.09900  0.22540  0.00413  Biso   1.000  O
  O36      1.0000 0.04700  0.37370  0.74842  Biso   1.000  O
  O37      1.0000 0.94390  0.23430  0.79138  Biso   1.000  O
  O38      1.0000 0.97180  0.25080  0.89844  Biso   1.000  O
  O39      1.0000 0.57220  0.27580  0.71961  Biso   1.000  O
  O40      1.0000 0.65150  0.25050  0.66060  Biso   1.000  O
  O41      1.0000 0.16910  0.29390  0.81938  Biso   1.000  O
  O42      1.0000 0.14620  0.27710  0.71350  Biso   1.000  O
  O43      1.0000 0.47390  0.31530  0.95380  Biso   1.000  O
  O44      1.0000 0.56160  0.29990  0.89846  Biso   1.000  O
  O45      1.0000 0.07250  0.38980  0.85781  Biso   1.000  O
  O46      1.0000 0.13910  0.67300  0.96670  Biso   1.000  O
  O47      1.0000 0.13250  0.76760  0.89860  Biso   1.000  O
  O48      1.0000 0.11900  0.18670  0.29930  Biso   1.000  O
  N7       1.0000 0.10340  0.30070  0.22950  Biso   1.000  N
  N8       1.0000 0.10190  0.88540  0.81620  Biso   1.000  N
  N9       1.0000 0.09440  0.27120  0.40530  Biso   1.000  N
  N10      1.0000 0.10810  0.66600  0.79820  Biso   1.000  N
  N11      1.0000 0.45330  0.30040  0.79080  Biso   1.000  N
  N12      1.0000 0.67760  0.26830  0.82750  Biso   1.000  N
  C43      1.0000 0.06300  0.11620  0.80610  Biso   1.000  C
  C44      1.0000 0.19220  0.28930  0.76910  Biso   1.000  C
  C45      1.0000 0.28740  0.29610  0.77910  Biso   1.000  C
  C46      1.0000 0.02970  0.24860  0.58340  Biso   1.000  C
  C47      1.0000 0.09910  0.29000  0.03190  Biso   1.000  C
  C48      1.0000 0.09560  0.29440  0.09990  Biso   1.000  C
  C49      1.0000 0.34240  0.30220  0.83730  Biso   1.000  C
  H19      1.0000 0.32450  0.30560  0.87420  Biso   1.000  H
  C50      1.0000 0.81140  0.25870  0.89220  Biso   1.000  C
  H20      1.0000 0.84750  0.26010  0.93270  Biso   1.000  H
  C51      1.0000 0.73150  0.26770  0.88510  Biso   1.000  C
  H21      1.0000 0.71380  0.27360  0.92180  Biso   1.000  H
  C52      1.0000 0.78060  0.24750  0.77470  Biso   1.000  C
  H22      1.0000 0.79600  0.24110  0.73710  Biso   1.000  H
  C53      1.0000 0.70070  0.25780  0.77470  Biso   1.000  C
  C54      1.0000 0.92360  0.24350  0.84300  Biso   1.000  C
  C55      1.0000 0.07790  0.03670  0.80850  Biso   1.000  C
  C56      1.0000 0.49000  0.30740  0.90220  Biso   1.000  C
  C57      1.0000 0.63570  0.26000  0.71100  Biso   1.000  C
  C58      1.0000 0.83560  0.24760  0.83690  Biso   1.000  C
  C59      1.0000 0.42460  0.30360  0.84190  Biso   1.000  C
  C60      1.0000 0.40140  0.29610  0.73260  Biso   1.000  C
  H23      1.0000 0.42220  0.29430  0.69690  Biso   1.000  H
  C61      1.0000 0.09010  0.35950  0.13080  Biso   1.000  C
  H24      1.0000 0.08360  0.40280  0.10880  Biso   1.000  H
  C62      1.0000 0.09390  0.36210  0.19520  Biso   1.000  C
  H25      1.0000 0.08980  0.40770  0.21580  Biso   1.000  H
  C63      1.0000 0.10910  0.23730  0.19940  Biso   1.000  C
  C64      1.0000 0.10340  0.23100  0.13440  Biso   1.000  C
  H26      1.0000 0.10480  0.18410  0.11400  Biso   1.000  H
  C65      1.0000 0.10020  0.55480  0.85920  Biso   1.000  C
  H27      1.0000 0.10370  0.53390  0.89820  Biso   1.000  H
  C66      1.0000 0.07920  0.50380  0.80150  Biso   1.000  C
  C67      1.0000 0.06490  0.41450  0.80230  Biso   1.000  C
  C68      1.0000 0.11530  0.63540  0.85650  Biso   1.000  C
  C69      1.0000 0.09220  0.61880  0.74410  Biso   1.000  C
  H28      1.0000 0.09160  0.64070  0.70550  Biso   1.000  H
  C70      1.0000 0.07670  0.53780  0.74570  Biso   1.000  C
  H29      1.0000 0.06400  0.50500  0.70760  Biso   1.000  H
  C71      1.0000 0.10740  0.92760  0.86930  Biso   1.000  C
  H30      1.0000 0.11730  0.90570  0.90790  Biso   1.000  H
  C72      1.0000 0.08560  0.91420  0.75930  Biso   1.000  C
  C73      1.0000 0.11780  0.17300  0.24140  Biso   1.000  C
  C74      1.0000 0.05020  0.32220  0.49060  Biso   1.000  C
  H31      1.0000 0.03440  0.36280  0.50790  Biso   1.000  H
  C75      1.0000 0.07200  0.32940  0.43200  Biso   1.000  C
  C76      1.0000 0.09470  0.20320  0.43540  Biso   1.000  C
  H32      1.0000 0.10600  0.16140  0.41540  Biso   1.000  H
  C77      1.0000 0.09870  0.00550  0.86940  Biso   1.000  C
  H33      1.0000 0.10630  0.03600  0.90770  Biso   1.000  H
  C78      1.0000 0.07290  0.99060  0.75550  Biso   1.000  C
  H34      1.0000 0.06090  0.00920  0.71560  Biso   1.000  H
  C79      1.0000 0.05190  0.25450  0.52360  Biso   1.000  C
  C80      1.0000 0.31610  0.29400  0.72380  Biso   1.000  C
  H35      1.0000 0.28010  0.29130  0.68310  Biso   1.000  H
  C81      1.0000 0.08020  0.86040  0.70460  Biso   1.000  C
  C82      1.0000 0.13050  0.69390  0.91380  Biso   1.000  C
  C83      1.0000 0.07390  0.39680  0.39370  Biso   1.000  C
  C84      1.0000 0.07820  0.19550  0.49630  Biso   1.000  C
  H36      1.0000 0.08470  0.15200  0.51790  Biso   1.000  H
