data_image0
_cell_length_a       7.07
_cell_length_b       12.356
_cell_length_c       17.12
_cell_angle_alpha    75.698
_cell_angle_beta     85.651
_cell_angle_gamma    78.331

_symmetry_space_group_name_H-M    "P 1"
_symmetry_int_tables_number       1

loop_
  _symmetry_equiv_pos_as_xyz
  'x, y, z'

loop_
  _atom_site_label
  _atom_site_occupancy
  _atom_site_fract_x
  _atom_site_fract_y
  _atom_site_fract_z
  _atom_site_thermal_displace_type
  _atom_site_B_iso_or_equiv
  _atom_site_type_symbol
  Mn1      1.0000 0.25068  0.75016  0.74994  Biso   1.000  Mn
  V1       1.0000 0.46908  0.70373  0.57271  Biso   1.000  V
  V2       1.0000 0.03136  0.79622  0.92755  Biso   1.000  V
  V3       1.0000 0.26650  0.24707  0.75288  Biso   1.000  V
  V4       1.0000 0.76552  0.25317  0.74768  Biso   1.000  V
  P1       1.0000 0.06603  0.01489  0.78355  Biso   1.000  P
  O1       1.0000 0.13040  0.93080  0.73040  Biso   1.000  O
  O2       1.0000 0.21450  0.08970  0.78270  Biso   1.000  O
  O3       1.0000 0.03140  0.95000  0.87230  Biso   1.000  O
  O4       1.0000 0.87120  0.09010  0.75280  Biso   1.000  O
  P2       1.0000 0.48633  0.73958  0.41183  Biso   1.000  P
  P3       1.0000 0.43458  0.48505  0.71645  Biso   1.000  P
  P4       1.0000 0.01490  0.76094  0.08847  Biso   1.000  P
  O5       1.0000 0.65460  0.77440  0.35730  Biso   1.000  O
  O6       1.0000 0.32070  0.73040  0.36390  Biso   1.000  O
  O7       1.0000 0.54430  0.62800  0.47750  Biso   1.000  O
  O8       1.0000 0.41070  0.82070  0.46860  Biso   1.000  O
  O9       1.0000 0.28620  0.40960  0.71810  Biso   1.000  O
  O10      1.0000 0.62940  0.41020  0.74710  Biso   1.000  O
  O11      1.0000 0.46530  0.54950  0.62790  Biso   1.000  O
  O12      1.0000 0.36890  0.56970  0.76920  Biso   1.000  O
  O13      1.0000 0.18210  0.76930  0.13780  Biso   1.000  O
  O14      1.0000 0.09440  0.67930  0.03190  Biso   1.000  O
  O15      1.0000 0.95700  0.87150  0.02248  Biso   1.000  O
  O16      1.0000 0.84670  0.72520  0.14170  Biso   1.000  O
  O17      1.0000 0.51240  0.20500  0.78740  Biso   1.000  O
  O18      1.0000 0.28450  0.76330  0.62270  Biso   1.000  O
  O19      1.0000 0.99370  0.29540  0.71330  Biso   1.000  O
  O20      1.0000 0.21700  0.73740  0.87730  Biso   1.000  O
  Mn2      1.0000 0.74932  0.24984  0.25006  Biso   1.000  Mn
  V5       1.0000 0.53092  0.29627  0.42729  Biso   1.000  V
  V6       1.0000 0.96864  0.20378  0.07245  Biso   1.000  V
  V7       1.0000 0.73350  0.75293  0.24712  Biso   1.000  V
  V8       1.0000 0.23448  0.74683  0.25232  Biso   1.000  V
  P5       1.0000 0.93397  0.98511  0.21645  Biso   1.000  P
  O21      1.0000 0.86960  0.06920  0.26960  Biso   1.000  O
  O22      1.0000 0.78550  0.91030  0.21730  Biso   1.000  O
  O23      1.0000 0.96860  0.05000  0.12770  Biso   1.000  O
  O24      1.0000 0.12880  0.90990  0.24720  Biso   1.000  O
  P6       1.0000 0.51367  0.26042  0.58817  Biso   1.000  P
  P7       1.0000 0.56542  0.51495  0.28355  Biso   1.000  P
  P8       1.0000 0.98510  0.23906  0.91153  Biso   1.000  P
  O25      1.0000 0.34540  0.22560  0.64270  Biso   1.000  O
  O26      1.0000 0.67930  0.26960  0.63610  Biso   1.000  O
  O27      1.0000 0.45570  0.37200  0.52250  Biso   1.000  O
  O28      1.0000 0.58930  0.17930  0.53140  Biso   1.000  O
  O29      1.0000 0.71380  0.59040  0.28190  Biso   1.000  O
  O30      1.0000 0.37060  0.58980  0.25290  Biso   1.000  O
  O31      1.0000 0.53470  0.45050  0.37210  Biso   1.000  O
  O32      1.0000 0.63110  0.43030  0.23080  Biso   1.000  O
  O33      1.0000 0.81790  0.23070  0.86220  Biso   1.000  O
  O34      1.0000 0.90560  0.32070  0.96810  Biso   1.000  O
  O35      1.0000 0.04300  0.12850  0.97752  Biso   1.000  O
  O36      1.0000 0.15330  0.27480  0.85830  Biso   1.000  O
  O37      1.0000 0.48760  0.79500  0.21260  Biso   1.000  O
  O38      1.0000 0.71550  0.23670  0.37730  Biso   1.000  O
  O39      1.0000 0.00630  0.70460  0.28670  Biso   1.000  O
  O40      1.0000 0.78300  0.26260  0.12270  Biso   1.000  O
