data_image0
_cell_length_a       9.5574
_cell_length_b       12.6056
_cell_length_c       18.9892
_cell_angle_alpha    106.131
_cell_angle_beta     98.971
_cell_angle_gamma    100.479

_symmetry_space_group_name_H-M    "P 1"
_symmetry_int_tables_number       1

loop_
  _symmetry_equiv_pos_as_xyz
  'x, y, z'

loop_
  _atom_site_label
  _atom_site_occupancy
  _atom_site_fract_x
  _atom_site_fract_y
  _atom_site_fract_z
  _atom_site_thermal_displace_type
  _atom_site_B_iso_or_equiv
  _atom_site_type_symbol
  La1      1.0000 0.76682  0.98179  0.99615  Biso   1.000  La
  O1       1.0000 0.69050  0.02270  0.11957  Biso   1.000  O
  O2       1.0000 0.45980  0.03110  0.08820  Biso   1.000  O
  N1       1.0000 0.00040  0.14750  0.67860  Biso   1.000  N
  O3       1.0000 0.99750  0.88900  0.92560  Biso   1.000  O
  O4       1.0000 0.76060  0.81400  0.88330  Biso   1.000  O
  O5       1.0000 0.85790  0.06730  0.90130  Biso   1.000  O
  N2       1.0000 0.95720  0.60890  0.67470  Biso   1.000  N
  O6       1.0000 0.10260  0.12390  0.93540  Biso   1.000  O
  C1       1.0000 0.92200  0.23220  0.57750  Biso   1.000  C
  C2       1.0000 0.98090  0.34830  0.60230  Biso   1.000  C
  C3       1.0000 0.71250  0.25880  0.50160  Biso   1.000  C
  C4       1.0000 0.90860  0.42000  0.57470  Biso   1.000  C
  C5       1.0000 0.56810  0.08090  0.21710  Biso   1.000  C
  C6       1.0000 0.77350  0.37490  0.52280  Biso   1.000  C
  C7       1.0000 0.44340  0.14030  0.31590  Biso   1.000  C
  H1       1.0000 0.35610  0.15130  0.33170  Biso   1.000  H
  C8       1.0000 0.44210  0.09920  0.24060  Biso   1.000  C
  H2       1.0000 0.35400  0.08330  0.20440  Biso   1.000  H
  C9       1.0000 0.78400  0.18520  0.52720  Biso   1.000  C
  C10      1.0000 0.98800  0.12270  0.81600  Biso   1.000  C
  C11      1.0000 0.69510  0.10210  0.27190  Biso   1.000  C
  H3       1.0000 0.78230  0.08690  0.25780  Biso   1.000  H
  C12      1.0000 0.87450  0.14510  0.70160  Biso   1.000  C
  H4       1.0000 0.79170  0.15340  0.67070  Biso   1.000  H
  C13      1.0000 0.98200  0.10330  0.89140  Biso   1.000  C
  C14      1.0000 0.69170  0.14540  0.34660  Biso   1.000  C
  H5       1.0000 0.77790  0.16140  0.38400  Biso   1.000  H
  C15      1.0000 0.57200  0.04040  0.13430  Biso   1.000  C
  C16      1.0000 0.12410  0.39750  0.65950  Biso   1.000  C
  H6       1.0000 0.14630  0.34070  0.68300  Biso   1.000  H
  H7       1.0000 0.11670  0.46520  0.69810  Biso   1.000  H
  H8       1.0000 0.20210  0.41840  0.63440  Biso   1.000  H
  C17      1.0000 0.86550  0.13050  0.77010  Biso   1.000  C
  H9       1.0000 0.77550  0.12590  0.78580  Biso   1.000  H
  C18      1.0000 0.00740  0.15330  0.60030  Biso   1.000  C
  H10      1.0000 0.11060  0.17920  0.59840  Biso   1.000  H
  H11      1.0000 0.96910  0.07610  0.56370  Biso   1.000  H
  C19      1.0000 0.11710  0.12810  0.79080  Biso   1.000  C
  H12      1.0000 0.20290  0.12380  0.82170  Biso   1.000  H
  C20      1.0000 0.91650  0.74100  0.80790  Biso   1.000  C
  C21      1.0000 0.05590  0.73710  0.79750  Biso   1.000  C
  H13      1.0000 0.13840  0.77980  0.83650  Biso   1.000  H
  C22      1.0000 0.97970  0.54630  0.59980  Biso   1.000  C
  H14      1.0000 0.08570  0.55650  0.60200  Biso   1.000  H
  H15      1.0000 0.93920  0.57950  0.56200  Biso   1.000  H
  C23      1.0000 0.88980  0.81960  0.87770  Biso   1.000  C
  C24      1.0000 0.82260  0.60860  0.68510  Biso   1.000  C
  H16      1.0000 0.74170  0.56230  0.64620  Biso   1.000  H
  C25      1.0000 0.72110  0.05940  0.50170  Biso   1.000  C
  H17      1.0000 0.63600  0.03940  0.46030  Biso   1.000  H
  H18      1.0000 0.69140  0.03680  0.54360  Biso   1.000  H
  H19      1.0000 0.79470  0.01960  0.48470  Biso   1.000  H
  C26      1.0000 0.79860  0.67400  0.75110  Biso   1.000  C
  H20      1.0000 0.70190  0.67320  0.75760  Biso   1.000  H
  C27      1.0000 0.12070  0.13960  0.72130  Biso   1.000  C
  H21      1.0000 0.20850  0.14180  0.70350  Biso   1.000  H
  C28      1.0000 0.56270  0.20910  0.44920  Biso   1.000  C
  H22      1.0000 0.51020  0.14610  0.46380  Biso   1.000  H
  H23      1.0000 0.50630  0.26840  0.45550  Biso   1.000  H
  C29      1.0000 0.07380  0.67090  0.73030  Biso   1.000  C
  H24      1.0000 0.16940  0.66850  0.72280  Biso   1.000  H
  C30      1.0000 0.69180  0.45040  0.48970  Biso   1.000  C
  H25      1.0000 0.65970  0.41530  0.43510  Biso   1.000  H
  H26      1.0000 0.75690  0.52550  0.50110  Biso   1.000  H
  H27      1.0000 0.60670  0.45840  0.51170  Biso   1.000  H
  N3       1.0000 0.56930  0.16500  0.36710  Biso   1.000  N
  La2      1.0000 0.23318  0.01821  0.00385  Biso   1.000  La
  O7       1.0000 0.30950  0.97730  0.88043  Biso   1.000  O
  O8       1.0000 0.54020  0.96890  0.91180  Biso   1.000  O
  N4       1.0000 0.99960  0.85250  0.32140  Biso   1.000  N
  O9       1.0000 0.00250  0.11100  0.07440  Biso   1.000  O
  O10      1.0000 0.23940  0.18600  0.11670  Biso   1.000  O
  O11      1.0000 0.14210  0.93270  0.09870  Biso   1.000  O
  N5       1.0000 0.04280  0.39110  0.32530  Biso   1.000  N
  O12      1.0000 0.89740  0.87610  0.06460  Biso   1.000  O
  C31      1.0000 0.07800  0.76780  0.42250  Biso   1.000  C
  C32      1.0000 0.01910  0.65170  0.39770  Biso   1.000  C
  C33      1.0000 0.28750  0.74120  0.49840  Biso   1.000  C
  C34      1.0000 0.09140  0.58000  0.42530  Biso   1.000  C
  C35      1.0000 0.43190  0.91910  0.78290  Biso   1.000  C
  C36      1.0000 0.22650  0.62510  0.47720  Biso   1.000  C
  C37      1.0000 0.55660  0.85970  0.68410  Biso   1.000  C
  H28      1.0000 0.64390  0.84870  0.66830  Biso   1.000  H
  C38      1.0000 0.55790  0.90080  0.75940  Biso   1.000  C
  H29      1.0000 0.64600  0.91670  0.79560  Biso   1.000  H
  C39      1.0000 0.21600  0.81480  0.47280  Biso   1.000  C
  C40      1.0000 0.01200  0.87730  0.18400  Biso   1.000  C
  C41      1.0000 0.30490  0.89790  0.72810  Biso   1.000  C
  H30      1.0000 0.21770  0.91310  0.74220  Biso   1.000  H
  C42      1.0000 0.12550  0.85490  0.29840  Biso   1.000  C
  H31      1.0000 0.20830  0.84660  0.32930  Biso   1.000  H
  C43      1.0000 0.01800  0.89670  0.10860  Biso   1.000  C
  C44      1.0000 0.30830  0.85460  0.65340  Biso   1.000  C
  H32      1.0000 0.22210  0.83860  0.61600  Biso   1.000  H
  C45      1.0000 0.42800  0.95960  0.86570  Biso   1.000  C
  C46      1.0000 0.87590  0.60250  0.34050  Biso   1.000  C
  H33      1.0000 0.85370  0.65930  0.31700  Biso   1.000  H
  H34      1.0000 0.88330  0.53480  0.30190  Biso   1.000  H
  H35      1.0000 0.79790  0.58160  0.36560  Biso   1.000  H
  C47      1.0000 0.13450  0.86950  0.22990  Biso   1.000  C
  H36      1.0000 0.22450  0.87410  0.21420  Biso   1.000  H
  C48      1.0000 0.99260  0.84670  0.39970  Biso   1.000  C
  H37      1.0000 0.88940  0.82080  0.40160  Biso   1.000  H
  H38      1.0000 0.03090  0.92390  0.43630  Biso   1.000  H
  C49      1.0000 0.88290  0.87190  0.20920  Biso   1.000  C
  H39      1.0000 0.79710  0.87620  0.17830  Biso   1.000  H
  C50      1.0000 0.08350  0.25900  0.19210  Biso   1.000  C
  C51      1.0000 0.94410  0.26290  0.20250  Biso   1.000  C
  H40      1.0000 0.86160  0.22020  0.16350  Biso   1.000  H
  C52      1.0000 0.02030  0.45370  0.40020  Biso   1.000  C
  H41      1.0000 0.91430  0.44350  0.39800  Biso   1.000  H
  H42      1.0000 0.06080  0.42050  0.43800  Biso   1.000  H
  C53      1.0000 0.11020  0.18040  0.12230  Biso   1.000  C
  C54      1.0000 0.17740  0.39140  0.31490  Biso   1.000  C
  H43      1.0000 0.25830  0.43770  0.35380  Biso   1.000  H
  C55      1.0000 0.27890  0.94060  0.49830  Biso   1.000  C
  H44      1.0000 0.36400  0.96060  0.53970  Biso   1.000  H
  H45      1.0000 0.30860  0.96320  0.45640  Biso   1.000  H
  H46      1.0000 0.20530  0.98040  0.51530  Biso   1.000  H
  C56      1.0000 0.20140  0.32600  0.24890  Biso   1.000  C
  H47      1.0000 0.29810  0.32680  0.24240  Biso   1.000  H
  C57      1.0000 0.87930  0.86040  0.27870  Biso   1.000  C
  H48      1.0000 0.79150  0.85820  0.29650  Biso   1.000  H
  C58      1.0000 0.43730  0.79090  0.55080  Biso   1.000  C
  H49      1.0000 0.48980  0.85390  0.53620  Biso   1.000  H
  H50      1.0000 0.49370  0.73160  0.54450  Biso   1.000  H
  C59      1.0000 0.92620  0.32910  0.26970  Biso   1.000  C
  H51      1.0000 0.83060  0.33150  0.27720  Biso   1.000  H
  C60      1.0000 0.30820  0.54960  0.51030  Biso   1.000  C
  H52      1.0000 0.34030  0.58470  0.56490  Biso   1.000  H
  H53      1.0000 0.24310  0.47450  0.49890  Biso   1.000  H
  H54      1.0000 0.39330  0.54160  0.48830  Biso   1.000  H
  N6       1.0000 0.43070  0.83500  0.63290  Biso   1.000  N
