data_image0
_cell_length_a       9.5297
_cell_length_b       12.6996
_cell_length_c       18.8203
_cell_angle_alpha    106.347
_cell_angle_beta     98.63
_cell_angle_gamma    100.059

_symmetry_space_group_name_H-M    "P 1"
_symmetry_int_tables_number       1

loop_
  _symmetry_equiv_pos_as_xyz
  'x, y, z'

loop_
  _atom_site_label
  _atom_site_occupancy
  _atom_site_fract_x
  _atom_site_fract_y
  _atom_site_fract_z
  _atom_site_thermal_displace_type
  _atom_site_B_iso_or_equiv
  _atom_site_type_symbol
  Nd1      1.0000 0.76665  0.98368  0.99668  Biso   1.000  Nd
  O1       1.0000 0.45420  0.03010  0.08680  Biso   1.000  O
  N1       1.0000 0.00050  0.14830  0.67990  Biso   1.000  N
  O2       1.0000 0.68660  0.02440  0.11740  Biso   1.000  O
  O3       1.0000 0.86080  0.06520  0.90400  Biso   1.000  O
  O4       1.0000 0.00870  0.89090  0.92610  Biso   1.000  O
  N2       1.0000 0.95870  0.60730  0.67460  Biso   1.000  N
  O5       1.0000 0.76980  0.82290  0.88780  Biso   1.000  O
  O6       1.0000 0.10530  0.12000  0.93650  Biso   1.000  O
  N3       1.0000 0.56630  0.16720  0.36660  Biso   1.000  N
  C1       1.0000 0.91990  0.23170  0.57800  Biso   1.000  C
  C2       1.0000 0.56750  0.04140  0.13290  Biso   1.000  C
  C3       1.0000 0.56500  0.08250  0.21630  Biso   1.000  C
  C4       1.0000 0.90540  0.41820  0.57410  Biso   1.000  C
  C5       1.0000 0.43760  0.10210  0.24020  Biso   1.000  C
  H1       1.0000 0.34880  0.08610  0.20440  Biso   1.000  H
  C6       1.0000 0.68750  0.14570  0.34610  Biso   1.000  C
  H2       1.0000 0.77300  0.15970  0.38370  Biso   1.000  H
  C7       1.0000 0.77230  0.37530  0.52340  Biso   1.000  C
  C8       1.0000 0.97950  0.34670  0.60250  Biso   1.000  C
  C9       1.0000 0.70960  0.25800  0.50230  Biso   1.000  C
  C10      1.0000 0.78200  0.18610  0.52850  Biso   1.000  C
  C11      1.0000 0.89750  0.82350  0.88000  Biso   1.000  C
  C12      1.0000 0.98860  0.11850  0.81670  Biso   1.000  C
  C13      1.0000 0.69100  0.10280  0.27040  Biso   1.000  C
  H3       1.0000 0.77840  0.08740  0.25580  Biso   1.000  H
  C14      1.0000 0.05920  0.73760  0.79710  Biso   1.000  C
  H4       1.0000 0.14230  0.78110  0.83530  Biso   1.000  H
  C15      1.0000 0.98330  0.10020  0.89290  Biso   1.000  C
  C16      1.0000 0.80190  0.67560  0.75330  Biso   1.000  C
  H5       1.0000 0.70580  0.67600  0.76120  Biso   1.000  H
  C17      1.0000 0.12300  0.39620  0.65950  Biso   1.000  C
  H6       1.0000 0.15760  0.33600  0.67490  Biso   1.000  H
  H7       1.0000 0.10900  0.45250  0.70400  Biso   1.000  H
  H8       1.0000 0.19520  0.43200  0.63640  Biso   1.000  H
  C18      1.0000 0.00670  0.15370  0.60040  Biso   1.000  C
  H9       1.0000 0.10960  0.17920  0.59800  Biso   1.000  H
  H10      1.0000 0.96900  0.07700  0.56360  Biso   1.000  H
  C19      1.0000 0.87420  0.14360  0.70310  Biso   1.000  C
  H11      1.0000 0.79030  0.15030  0.67190  Biso   1.000  H
  C20      1.0000 0.92070  0.74250  0.80910  Biso   1.000  C
  C21      1.0000 0.44280  0.14520  0.31680  Biso   1.000  C
  H12      1.0000 0.35690  0.15920  0.33390  Biso   1.000  H
  C22      1.0000 0.11800  0.12520  0.79150  Biso   1.000  C
  H13      1.0000 0.20390  0.12080  0.82240  Biso   1.000  H
  C23      1.0000 0.86640  0.12930  0.77160  Biso   1.000  C
  H14      1.0000 0.77710  0.12670  0.78840  Biso   1.000  H
  C24      1.0000 0.07590  0.66920  0.72930  Biso   1.000  C
  H15      1.0000 0.17100  0.66560  0.72090  Biso   1.000  H
  C25      1.0000 0.82300  0.60850  0.68620  Biso   1.000  C
  H16      1.0000 0.74130  0.56270  0.64790  Biso   1.000  H
  C26      1.0000 0.97900  0.54310  0.59880  Biso   1.000  C
  H17      1.0000 0.08470  0.55100  0.60010  Biso   1.000  H
  H18      1.0000 0.93910  0.57630  0.56070  Biso   1.000  H
  C27      1.0000 0.55910  0.21090  0.45040  Biso   1.000  C
  H19      1.0000 0.50340  0.27060  0.45750  Biso   1.000  H
  H20      1.0000 0.50620  0.14850  0.46490  Biso   1.000  H
  C28      1.0000 0.68910  0.44840  0.49050  Biso   1.000  C
  H21      1.0000 0.60760  0.46030  0.51560  Biso   1.000  H
  H22      1.0000 0.65160  0.41080  0.43600  Biso   1.000  H
  H23      1.0000 0.75460  0.52140  0.49860  Biso   1.000  H
  C29      1.0000 0.12170  0.13820  0.72140  Biso   1.000  C
  H24      1.0000 0.20900  0.14010  0.70280  Biso   1.000  H
  C30      1.0000 0.71760  0.06090  0.50280  Biso   1.000  C
  H25      1.0000 0.61890  0.04460  0.47240  Biso   1.000  H
  H26      1.0000 0.71370  0.03540  0.54720  Biso   1.000  H
  H27      1.0000 0.77850  0.02120  0.47220  Biso   1.000  H
  Nd2      1.0000 0.23335  0.01632  0.00332  Biso   1.000  Nd
  O7       1.0000 0.54580  0.96990  0.91320  Biso   1.000  O
  N4       1.0000 0.99950  0.85170  0.32010  Biso   1.000  N
  O8       1.0000 0.31340  0.97560  0.88260  Biso   1.000  O
  O9       1.0000 0.13920  0.93480  0.09600  Biso   1.000  O
  O10      1.0000 0.99130  0.10910  0.07390  Biso   1.000  O
  N5       1.0000 0.04130  0.39270  0.32540  Biso   1.000  N
  O11      1.0000 0.23020  0.17710  0.11220  Biso   1.000  O
  O12      1.0000 0.89470  0.88000  0.06350  Biso   1.000  O
  N6       1.0000 0.43370  0.83280  0.63340  Biso   1.000  N
  C31      1.0000 0.08010  0.76830  0.42200  Biso   1.000  C
  C32      1.0000 0.43250  0.95860  0.86710  Biso   1.000  C
  C33      1.0000 0.43500  0.91750  0.78370  Biso   1.000  C
  C34      1.0000 0.09460  0.58180  0.42590  Biso   1.000  C
  C35      1.0000 0.56240  0.89790  0.75980  Biso   1.000  C
  H28      1.0000 0.65120  0.91390  0.79560  Biso   1.000  H
  C36      1.0000 0.31250  0.85430  0.65390  Biso   1.000  C
  H29      1.0000 0.22700  0.84030  0.61630  Biso   1.000  H
  C37      1.0000 0.22770  0.62470  0.47660  Biso   1.000  C
  C38      1.0000 0.02050  0.65330  0.39750  Biso   1.000  C
  C39      1.0000 0.29040  0.74200  0.49770  Biso   1.000  C
  C40      1.0000 0.21800  0.81390  0.47150  Biso   1.000  C
  C41      1.0000 0.10250  0.17650  0.12000  Biso   1.000  C
  C42      1.0000 0.01140  0.88150  0.18330  Biso   1.000  C
  C43      1.0000 0.30900  0.89720  0.72960  Biso   1.000  C
  H30      1.0000 0.22160  0.91260  0.74420  Biso   1.000  H
  C44      1.0000 0.94080  0.26240  0.20290  Biso   1.000  C
  H31      1.0000 0.85770  0.21890  0.16470  Biso   1.000  H
  C45      1.0000 0.01670  0.89980  0.10710  Biso   1.000  C
  C46      1.0000 0.19810  0.32440  0.24670  Biso   1.000  C
  H32      1.0000 0.29420  0.32400  0.23880  Biso   1.000  H
  C47      1.0000 0.87700  0.60380  0.34050  Biso   1.000  C
  H33      1.0000 0.84240  0.66400  0.32510  Biso   1.000  H
  H34      1.0000 0.89100  0.54750  0.29600  Biso   1.000  H
  H35      1.0000 0.80480  0.56800  0.36360  Biso   1.000  H
  C48      1.0000 0.99330  0.84630  0.39960  Biso   1.000  C
  H36      1.0000 0.89040  0.82080  0.40200  Biso   1.000  H
  H37      1.0000 0.03100  0.92300  0.43640  Biso   1.000  H
  C49      1.0000 0.12580  0.85640  0.29690  Biso   1.000  C
  H38      1.0000 0.20970  0.84970  0.32810  Biso   1.000  H
  C50      1.0000 0.07930  0.25750  0.19090  Biso   1.000  C
  C51      1.0000 0.55720  0.85480  0.68320  Biso   1.000  C
  H39      1.0000 0.64310  0.84080  0.66610  Biso   1.000  H
  C52      1.0000 0.88200  0.87480  0.20850  Biso   1.000  C
  H40      1.0000 0.79610  0.87920  0.17760  Biso   1.000  H
  C53      1.0000 0.13360  0.87070  0.22840  Biso   1.000  C
  H41      1.0000 0.22290  0.87330  0.21160  Biso   1.000  H
  C54      1.0000 0.92410  0.33080  0.27070  Biso   1.000  C
  H42      1.0000 0.82900  0.33440  0.27910  Biso   1.000  H
  C55      1.0000 0.17700  0.39150  0.31380  Biso   1.000  C
  H43      1.0000 0.25870  0.43730  0.35210  Biso   1.000  H
  C56      1.0000 0.02100  0.45690  0.40120  Biso   1.000  C
  H44      1.0000 0.91530  0.44900  0.39990  Biso   1.000  H
  H45      1.0000 0.06090  0.42370  0.43930  Biso   1.000  H
  C57      1.0000 0.44090  0.78910  0.54960  Biso   1.000  C
  H46      1.0000 0.49660  0.72940  0.54250  Biso   1.000  H
  H47      1.0000 0.49380  0.85150  0.53510  Biso   1.000  H
  C58      1.0000 0.31090  0.55160  0.50950  Biso   1.000  C
  H48      1.0000 0.39240  0.53970  0.48440  Biso   1.000  H
  H49      1.0000 0.34840  0.58920  0.56400  Biso   1.000  H
  H50      1.0000 0.24540  0.47860  0.50140  Biso   1.000  H
  C59      1.0000 0.87830  0.86180  0.27860  Biso   1.000  C
  H51      1.0000 0.79100  0.85990  0.29720  Biso   1.000  H
  C60      1.0000 0.28240  0.93910  0.49720  Biso   1.000  C
  H52      1.0000 0.38110  0.95540  0.52760  Biso   1.000  H
  H53      1.0000 0.28630  0.96460  0.45280  Biso   1.000  H
  H54      1.0000 0.22150  0.97880  0.52780  Biso   1.000  H
