data_image0
_cell_length_a       9.5307
_cell_length_b       12.7016
_cell_length_c       18.8199
_cell_angle_alpha    106.349
_cell_angle_beta     98.629
_cell_angle_gamma    100.06

_symmetry_space_group_name_H-M    "P 1"
_symmetry_int_tables_number       1

loop_
  _symmetry_equiv_pos_as_xyz
  'x, y, z'

loop_
  _atom_site_label
  _atom_site_occupancy
  _atom_site_fract_x
  _atom_site_fract_y
  _atom_site_fract_z
  _atom_site_thermal_displace_type
  _atom_site_B_iso_or_equiv
  _atom_site_type_symbol
  Tb1      1.0000 0.76664  0.98367  0.99669  Biso   1.000  Tb
  N1       1.0000 0.00030  0.14820  0.67980  Biso   1.000  N
  O1       1.0000 0.68640  0.02400  0.11720  Biso   1.000  O
  O2       1.0000 0.86090  0.06530  0.90400  Biso   1.000  O
  O3       1.0000 0.00870  0.89070  0.92620  Biso   1.000  O
  N2       1.0000 0.95820  0.60740  0.67480  Biso   1.000  N
  O4       1.0000 0.76980  0.82270  0.88780  Biso   1.000  O
  O5       1.0000 0.10530  0.12000  0.93660  Biso   1.000  O
  N3       1.0000 0.56660  0.16680  0.36790  Biso   1.000  N
  C1       1.0000 0.92000  0.23100  0.57770  Biso   1.000  C
  C2       1.0000 0.56670  0.04180  0.13280  Biso   1.000  C
  C3       1.0000 0.56460  0.08200  0.21600  Biso   1.000  C
  C4       1.0000 0.90550  0.41840  0.57430  Biso   1.000  C
  C5       1.0000 0.43790  0.10220  0.24040  Biso   1.000  C
  H1       1.0000 0.34950  0.08700  0.20440  Biso   1.000  H
  C6       1.0000 0.68920  0.14610  0.34600  Biso   1.000  C
  H2       1.0000 0.77590  0.16150  0.38310  Biso   1.000  H
  C7       1.0000 0.77180  0.37500  0.52330  Biso   1.000  C
  C8       1.0000 0.97930  0.34710  0.60260  Biso   1.000  C
  C9       1.0000 0.70910  0.25860  0.50210  Biso   1.000  C
  C10      1.0000 0.78180  0.18610  0.52830  Biso   1.000  C
  C11      1.0000 0.89790  0.82320  0.87980  Biso   1.000  C
  C12      1.0000 0.98850  0.11890  0.81690  Biso   1.000  C
  C13      1.0000 0.69110  0.10290  0.27060  Biso   1.000  C
  H3       1.0000 0.77820  0.08740  0.25570  Biso   1.000  H
  C14      1.0000 0.05930  0.73740  0.79720  Biso   1.000  C
  H4       1.0000 0.14240  0.78070  0.83550  Biso   1.000  H
  C15      1.0000 0.98330  0.10040  0.89300  Biso   1.000  C
  C16      1.0000 0.80190  0.67580  0.75330  Biso   1.000  C
  H5       1.0000 0.70600  0.67650  0.76140  Biso   1.000  H
  C17      1.0000 0.12300  0.39630  0.65950  Biso   1.000  C
  H6       1.0000 0.16030  0.33540  0.67250  Biso   1.000  H
  H7       1.0000 0.10810  0.44930  0.70530  Biso   1.000  H
  H8       1.0000 0.19350  0.43590  0.63740  Biso   1.000  H
  C18      1.0000 0.00660  0.15400  0.60040  Biso   1.000  C
  H9       1.0000 0.10950  0.18010  0.59810  Biso   1.000  H
  H10      1.0000 0.96960  0.07740  0.56350  Biso   1.000  H
  C19      1.0000 0.87380  0.14390  0.70320  Biso   1.000  C
  H11      1.0000 0.78990  0.15100  0.67210  Biso   1.000  H
  C20      1.0000 0.92050  0.74240  0.80880  Biso   1.000  C
  C21      1.0000 0.44100  0.14410  0.31640  Biso   1.000  C
  H12      1.0000 0.35440  0.15730  0.33290  Biso   1.000  H
  C22      1.0000 0.11780  0.12510  0.79130  Biso   1.000  C
  H13      1.0000 0.20370  0.12030  0.82200  Biso   1.000  H
  C23      1.0000 0.86610  0.12950  0.77180  Biso   1.000  C
  H14      1.0000 0.77680  0.12670  0.78860  Biso   1.000  H
  C24      1.0000 0.07560  0.66880  0.72930  Biso   1.000  C
  H15      1.0000 0.17060  0.66480  0.72080  Biso   1.000  H
  C25      1.0000 0.82220  0.60820  0.68610  Biso   1.000  C
  H16      1.0000 0.74040  0.56220  0.64780  Biso   1.000  H
  C26      1.0000 0.97900  0.54300  0.59870  Biso   1.000  C
  H17      1.0000 0.08460  0.55100  0.60010  Biso   1.000  H
  H18      1.0000 0.93900  0.57610  0.56060  Biso   1.000  H
  C27      1.0000 0.55930  0.21070  0.45030  Biso   1.000  C
  H19      1.0000 0.50670  0.14860  0.46520  Biso   1.000  H
  H20      1.0000 0.50320  0.27020  0.45700  Biso   1.000  H
  C28      1.0000 0.68810  0.44810  0.49010  Biso   1.000  C
  H21      1.0000 0.61180  0.46530  0.51820  Biso   1.000  H
  H22      1.0000 0.64340  0.40750  0.43670  Biso   1.000  H
  H23      1.0000 0.75510  0.51840  0.49420  Biso   1.000  H
  C29      1.0000 0.12180  0.13820  0.72160  Biso   1.000  C
  H24      1.0000 0.20940  0.14030  0.70320  Biso   1.000  H
  C30      1.0000 0.71760  0.06080  0.50310  Biso   1.000  C
  H25      1.0000 0.71790  0.03520  0.54760  Biso   1.000  H
  H26      1.0000 0.77600  0.02120  0.47070  Biso   1.000  H
  H27      1.0000 0.61720  0.04470  0.47460  Biso   1.000  H
  O6       1.0000 0.45400  0.03020  0.08690  Biso   1.000  O
  Tb2      1.0000 0.23336  0.01633  0.00331  Biso   1.000  Tb
  N4       1.0000 0.99970  0.85180  0.32020  Biso   1.000  N
  O7       1.0000 0.31360  0.97600  0.88280  Biso   1.000  O
  O8       1.0000 0.13910  0.93470  0.09600  Biso   1.000  O
  O9       1.0000 0.99130  0.10930  0.07380  Biso   1.000  O
  N5       1.0000 0.04180  0.39260  0.32520  Biso   1.000  N
  O10      1.0000 0.23020  0.17730  0.11220  Biso   1.000  O
  O11      1.0000 0.89470  0.88000  0.06340  Biso   1.000  O
  N6       1.0000 0.43340  0.83320  0.63210  Biso   1.000  N
  C31      1.0000 0.08000  0.76900  0.42230  Biso   1.000  C
  C32      1.0000 0.43330  0.95820  0.86720  Biso   1.000  C
  C33      1.0000 0.43540  0.91800  0.78400  Biso   1.000  C
  C34      1.0000 0.09450  0.58160  0.42570  Biso   1.000  C
  C35      1.0000 0.56210  0.89780  0.75960  Biso   1.000  C
  H28      1.0000 0.65050  0.91300  0.79560  Biso   1.000  H
  C36      1.0000 0.31080  0.85390  0.65400  Biso   1.000  C
  H29      1.0000 0.22410  0.83850  0.61690  Biso   1.000  H
  C37      1.0000 0.22820  0.62500  0.47670  Biso   1.000  C
  C38      1.0000 0.02070  0.65290  0.39740  Biso   1.000  C
  C39      1.0000 0.29090  0.74140  0.49790  Biso   1.000  C
  C40      1.0000 0.21820  0.81390  0.47170  Biso   1.000  C
  C41      1.0000 0.10210  0.17680  0.12020  Biso   1.000  C
  C42      1.0000 0.01150  0.88110  0.18310  Biso   1.000  C
  C43      1.0000 0.30890  0.89710  0.72940  Biso   1.000  C
  H30      1.0000 0.22180  0.91260  0.74430  Biso   1.000  H
  C44      1.0000 0.94070  0.26260  0.20280  Biso   1.000  C
  H31      1.0000 0.85760  0.21930  0.16450  Biso   1.000  H
  C45      1.0000 0.01670  0.89960  0.10700  Biso   1.000  C
  C46      1.0000 0.19810  0.32420  0.24670  Biso   1.000  C
  H32      1.0000 0.29400  0.32350  0.23860  Biso   1.000  H
  C47      1.0000 0.87700  0.60370  0.34050  Biso   1.000  C
  H33      1.0000 0.83970  0.66460  0.32750  Biso   1.000  H
  H34      1.0000 0.89190  0.55070  0.29470  Biso   1.000  H
  H35      1.0000 0.80650  0.56410  0.36260  Biso   1.000  H
  C48      1.0000 0.99340  0.84600  0.39960  Biso   1.000  C
  H36      1.0000 0.89050  0.81990  0.40190  Biso   1.000  H
  H37      1.0000 0.03040  0.92260  0.43650  Biso   1.000  H
  C49      1.0000 0.12620  0.85610  0.29680  Biso   1.000  C
  H38      1.0000 0.21010  0.84900  0.32790  Biso   1.000  H
  C50      1.0000 0.07950  0.25760  0.19120  Biso   1.000  C
  C51      1.0000 0.55900  0.85590  0.68360  Biso   1.000  C
  H39      1.0000 0.64560  0.84270  0.66710  Biso   1.000  H
  C52      1.0000 0.88220  0.87490  0.20870  Biso   1.000  C
  H40      1.0000 0.79630  0.87970  0.17800  Biso   1.000  H
  C53      1.0000 0.13390  0.87050  0.22820  Biso   1.000  C
  H41      1.0000 0.22320  0.87330  0.21140  Biso   1.000  H
  C54      1.0000 0.92440  0.33120  0.27070  Biso   1.000  C
  H42      1.0000 0.82940  0.33520  0.27920  Biso   1.000  H
  C55      1.0000 0.17780  0.39180  0.31390  Biso   1.000  C
  H43      1.0000 0.25960  0.43780  0.35220  Biso   1.000  H
  C56      1.0000 0.02100  0.45700  0.40130  Biso   1.000  C
  H44      1.0000 0.91540  0.44900  0.39990  Biso   1.000  H
  H45      1.0000 0.06100  0.42390  0.43940  Biso   1.000  H
  C57      1.0000 0.44070  0.78930  0.54970  Biso   1.000  C
  H46      1.0000 0.49330  0.85140  0.53480  Biso   1.000  H
  H47      1.0000 0.49680  0.72980  0.54300  Biso   1.000  H
  C58      1.0000 0.31190  0.55190  0.50990  Biso   1.000  C
  H48      1.0000 0.38820  0.53470  0.48180  Biso   1.000  H
  H49      1.0000 0.35660  0.59250  0.56330  Biso   1.000  H
  H50      1.0000 0.24490  0.48160  0.50580  Biso   1.000  H
  C59      1.0000 0.87820  0.86180  0.27840  Biso   1.000  C
  H51      1.0000 0.79060  0.85970  0.29680  Biso   1.000  H
  C60      1.0000 0.28240  0.93920  0.49690  Biso   1.000  C
  H52      1.0000 0.28210  0.96480  0.45240  Biso   1.000  H
  H53      1.0000 0.22400  0.97880  0.52930  Biso   1.000  H
  H54      1.0000 0.38280  0.95530  0.52540  Biso   1.000  H
  O12      1.0000 0.54600  0.96980  0.91310  Biso   1.000  O
