data_image0
_cell_length_a       9.53
_cell_length_b       12.5401
_cell_length_c       18.8719
_cell_angle_alpha    105.932
_cell_angle_beta     98.86
_cell_angle_gamma    100.482

_symmetry_space_group_name_H-M    "P 1"
_symmetry_int_tables_number       1

loop_
  _symmetry_equiv_pos_as_xyz
  'x, y, z'

loop_
  _atom_site_label
  _atom_site_occupancy
  _atom_site_fract_x
  _atom_site_fract_y
  _atom_site_fract_z
  _atom_site_thermal_displace_type
  _atom_site_B_iso_or_equiv
  _atom_site_type_symbol
  Pr1      1.0000 0.76582  0.48222  0.49636  Biso   1.000  Pr
  O1       1.0000 0.45630  0.52980  0.58667  Biso   1.000  O
  O2       1.0000 0.68670  0.51980  0.61744  Biso   1.000  O
  N1       1.0000 0.00350  0.65190  0.18160  Biso   1.000  N
  N2       1.0000 0.56730  0.66290  0.86630  Biso   1.000  N
  N3       1.0000 0.95700  0.11000  0.17410  Biso   1.000  N
  O3       1.0000 0.76680  0.31980  0.38560  Biso   1.000  O
  C1       1.0000 0.90540  0.92010  0.07330  Biso   1.000  C
  C2       1.0000 0.97990  0.84920  0.10160  Biso   1.000  C
  C3       1.0000 0.56810  0.53810  0.63270  Biso   1.000  C
  O4       1.0000 0.00630  0.39130  0.42490  Biso   1.000  O
  C4       1.0000 0.92260  0.73190  0.07800  Biso   1.000  C
  O5       1.0000 0.86120  0.56940  0.40500  Biso   1.000  O
  C5       1.0000 0.77260  0.87580  0.02250  Biso   1.000  C
  C6       1.0000 0.92070  0.24340  0.30740  Biso   1.000  C
  C7       1.0000 0.71020  0.75570  0.00130  Biso   1.000  C
  C8       1.0000 0.69140  0.59820  0.77070  Biso   1.000  C
  H1       1.0000 0.77840  0.58200  0.75630  Biso   1.000  H
  C9       1.0000 0.43950  0.59790  0.74000  Biso   1.000  C
  H2       1.0000 0.35100  0.58280  0.70410  Biso   1.000  H
  C10      1.0000 0.56570  0.57860  0.71630  Biso   1.000  C
  C11      1.0000 0.89580  0.32390  0.37850  Biso   1.000  C
  C12      1.0000 0.44290  0.63900  0.81560  Biso   1.000  C
  H3       1.0000 0.35590  0.65050  0.83200  Biso   1.000  H
  C13      1.0000 0.78650  0.68450  0.02840  Biso   1.000  C
  C14      1.0000 0.12440  0.89950  0.15880  Biso   1.000  C
  H4       1.0000 0.16240  0.83790  0.17140  Biso   1.000  H
  H5       1.0000 0.10910  0.95180  0.20470  Biso   1.000  H
  H6       1.0000 0.19470  0.94140  0.13740  Biso   1.000  H
  C15      1.0000 0.86910  0.63430  0.27360  Biso   1.000  C
  H7       1.0000 0.77950  0.63140  0.28990  Biso   1.000  H
  C16      1.0000 0.98960  0.62520  0.31870  Biso   1.000  C
  C17      1.0000 0.00910  0.65450  0.10110  Biso   1.000  C
  H8       1.0000 0.11200  0.68020  0.09830  Biso   1.000  H
  H9       1.0000 0.97040  0.57630  0.06540  Biso   1.000  H
  C18      1.0000 0.05790  0.23680  0.29660  Biso   1.000  C
  H10      1.0000 0.14120  0.27750  0.33570  Biso   1.000  H
  C19      1.0000 0.68900  0.64150  0.84590  Biso   1.000  C
  H11      1.0000 0.77500  0.65600  0.88340  Biso   1.000  H
  C20      1.0000 0.07380  0.17080  0.22880  Biso   1.000  C
  H12      1.0000 0.16910  0.16820  0.22030  Biso   1.000  H
  C21      1.0000 0.97550  0.04580  0.09710  Biso   1.000  C
  H13      1.0000 0.93210  0.07890  0.05950  Biso   1.000  H
  H14      1.0000 0.08110  0.05600  0.09750  Biso   1.000  H
  C22      1.0000 0.12070  0.63120  0.29400  Biso   1.000  C
  H15      1.0000 0.20610  0.62630  0.32520  Biso   1.000  H
  C23      1.0000 0.12540  0.64420  0.22430  Biso   1.000  C
  H16      1.0000 0.21360  0.64760  0.20660  Biso   1.000  H
  C24      1.0000 0.87730  0.64770  0.20390  Biso   1.000  C
  H17      1.0000 0.79360  0.65400  0.17220  Biso   1.000  H
  C25      1.0000 0.79930  0.17710  0.25160  Biso   1.000  C
  H18      1.0000 0.70330  0.17780  0.25940  Biso   1.000  H
  C26      1.0000 0.68670  0.94800  0.98880  Biso   1.000  C
  H19      1.0000 0.60120  0.95440  0.01120  Biso   1.000  H
  H20      1.0000 0.65450  0.91180  0.93410  Biso   1.000  H
  H21      1.0000 0.74920  0.02430  0.99940  Biso   1.000  H
  C27      1.0000 0.82150  0.10950  0.18400  Biso   1.000  C
  H22      1.0000 0.74020  0.06320  0.14510  Biso   1.000  H
  C28      1.0000 0.56170  0.70720  0.95030  Biso   1.000  C
  H23      1.0000 0.50530  0.76690  0.95710  Biso   1.000  H
  H24      1.0000 0.50960  0.64370  0.96510  Biso   1.000  H
  C29      1.0000 0.72370  0.55680  0.00330  Biso   1.000  C
  H25      1.0000 0.79640  0.51720  0.98420  Biso   1.000  H
  H26      1.0000 0.63590  0.53680  0.96320  Biso   1.000  H
  H27      1.0000 0.69830  0.53390  0.04620  Biso   1.000  H
  O6       1.0000 0.10670  0.62550  0.43860  Biso   1.000  O
  C30      1.0000 0.98450  0.60590  0.39510  Biso   1.000  C
  Pr2      1.0000 0.23418  0.51778  0.50364  Biso   1.000  Pr
  O7       1.0000 0.54370  0.47020  0.41333  Biso   1.000  O
  O8       1.0000 0.31330  0.48020  0.38256  Biso   1.000  O
  N4       1.0000 0.99650  0.34810  0.81840  Biso   1.000  N
  N5       1.0000 0.43270  0.33710  0.13370  Biso   1.000  N
  N6       1.0000 0.04300  0.89000  0.82590  Biso   1.000  N
  O9       1.0000 0.23320  0.68020  0.61440  Biso   1.000  O
  C31      1.0000 0.09460  0.07990  0.92670  Biso   1.000  C
  C32      1.0000 0.02010  0.15080  0.89840  Biso   1.000  C
  C33      1.0000 0.43190  0.46190  0.36730  Biso   1.000  C
  O10      1.0000 0.99370  0.60870  0.57510  Biso   1.000  O
  C34      1.0000 0.07740  0.26810  0.92200  Biso   1.000  C
  O11      1.0000 0.13880  0.43060  0.59500  Biso   1.000  O
  C35      1.0000 0.22740  0.12420  0.97750  Biso   1.000  C
  C36      1.0000 0.07930  0.75660  0.69260  Biso   1.000  C
  C37      1.0000 0.28980  0.24430  0.99870  Biso   1.000  C
  C38      1.0000 0.30860  0.40180  0.22930  Biso   1.000  C
  H28      1.0000 0.22160  0.41800  0.24370  Biso   1.000  H
  C39      1.0000 0.56050  0.40210  0.26000  Biso   1.000  C
  H29      1.0000 0.64900  0.41720  0.29590  Biso   1.000  H
  C40      1.0000 0.43430  0.42140  0.28370  Biso   1.000  C
  C41      1.0000 0.10420  0.67610  0.62150  Biso   1.000  C
  C42      1.0000 0.55710  0.36100  0.18440  Biso   1.000  C
  H30      1.0000 0.64410  0.34950  0.16800  Biso   1.000  H
  C43      1.0000 0.21350  0.31550  0.97160  Biso   1.000  C
  C44      1.0000 0.87560  0.10050  0.84120  Biso   1.000  C
  H31      1.0000 0.83760  0.16210  0.82860  Biso   1.000  H
  H32      1.0000 0.89090  0.04820  0.79530  Biso   1.000  H
  H33      1.0000 0.80530  0.05860  0.86260  Biso   1.000  H
  C45      1.0000 0.13090  0.36570  0.72640  Biso   1.000  C
  H34      1.0000 0.22050  0.36860  0.71010  Biso   1.000  H
  C46      1.0000 0.01040  0.37480  0.68130  Biso   1.000  C
  C47      1.0000 0.99090  0.34550  0.89890  Biso   1.000  C
  H35      1.0000 0.88800  0.31980  0.90170  Biso   1.000  H
  H36      1.0000 0.02960  0.42370  0.93460  Biso   1.000  H
  C48      1.0000 0.94210  0.76320  0.70340  Biso   1.000  C
  H37      1.0000 0.85880  0.72250  0.66430  Biso   1.000  H
  C49      1.0000 0.31100  0.35850  0.15410  Biso   1.000  C
  H38      1.0000 0.22500  0.34400  0.11660  Biso   1.000  H
  C50      1.0000 0.92620  0.82920  0.77120  Biso   1.000  C
  H39      1.0000 0.83090  0.83180  0.77970  Biso   1.000  H
  C51      1.0000 0.02450  0.95420  0.90290  Biso   1.000  C
  H40      1.0000 0.06790  0.92110  0.94050  Biso   1.000  H
  H41      1.0000 0.91890  0.94400  0.90250  Biso   1.000  H
  C52      1.0000 0.87930  0.36880  0.70600  Biso   1.000  C
  H42      1.0000 0.79390  0.37370  0.67480  Biso   1.000  H
  C53      1.0000 0.87460  0.35580  0.77570  Biso   1.000  C
  H43      1.0000 0.78640  0.35240  0.79340  Biso   1.000  H
  C54      1.0000 0.12270  0.35230  0.79610  Biso   1.000  C
  H44      1.0000 0.20640  0.34600  0.82780  Biso   1.000  H
  C55      1.0000 0.20070  0.82290  0.74840  Biso   1.000  C
  H45      1.0000 0.29670  0.82220  0.74060  Biso   1.000  H
  C56      1.0000 0.31330  0.05200  0.01120  Biso   1.000  C
  H46      1.0000 0.39880  0.04560  0.98880  Biso   1.000  H
  H47      1.0000 0.34550  0.08820  0.06590  Biso   1.000  H
  H48      1.0000 0.25080  0.97570  0.00060  Biso   1.000  H
  C57      1.0000 0.17850  0.89050  0.81600  Biso   1.000  C
  H49      1.0000 0.25980  0.93680  0.85490  Biso   1.000  H
  C58      1.0000 0.43830  0.29280  0.04970  Biso   1.000  C
  H50      1.0000 0.49470  0.23310  0.04290  Biso   1.000  H
  H51      1.0000 0.49040  0.35630  0.03490  Biso   1.000  H
  C59      1.0000 0.27630  0.44320  0.99670  Biso   1.000  C
  H52      1.0000 0.20360  0.48280  0.01580  Biso   1.000  H
  H53      1.0000 0.36410  0.46320  0.03680  Biso   1.000  H
  H54      1.0000 0.30170  0.46610  0.95380  Biso   1.000  H
  O12      1.0000 0.89330  0.37450  0.56140  Biso   1.000  O
  C60      1.0000 0.01550  0.39410  0.60490  Biso   1.000  C
