data_image0
_cell_length_a       9.4977
_cell_length_b       12.627
_cell_length_c       18.7072
_cell_angle_alpha    106.096
_cell_angle_beta     98.452
_cell_angle_gamma    100.275

_symmetry_space_group_name_H-M    "P 1"
_symmetry_int_tables_number       1

loop_
  _symmetry_equiv_pos_as_xyz
  'x, y, z'

loop_
  _atom_site_label
  _atom_site_occupancy
  _atom_site_fract_x
  _atom_site_fract_y
  _atom_site_fract_z
  _atom_site_thermal_displace_type
  _atom_site_B_iso_or_equiv
  _atom_site_type_symbol
  Eu1      1.0000 0.23517  0.01618  0.00304  Biso   1.000  Eu
  O1       1.0000 0.45050  0.02860  0.08570  Biso   1.000  O
  N1       1.0000 0.00530  0.15210  0.68260  Biso   1.000  N
  N2       1.0000 0.95640  0.60820  0.67320  Biso   1.000  N
  O2       1.0000 0.68250  0.02120  0.11550  Biso   1.000  O
  O3       1.0000 0.77650  0.82870  0.88910  Biso   1.000  O
  O4       1.0000 0.01830  0.89120  0.92510  Biso   1.000  O
  O5       1.0000 0.86280  0.06720  0.90750  Biso   1.000  O
  O6       1.0000 0.10790  0.12140  0.94090  Biso   1.000  O
  C1       1.0000 0.91980  0.23240  0.57840  Biso   1.000  C
  C2       1.0000 0.90380  0.82810  0.88060  Biso   1.000  C
  C3       1.0000 0.56300  0.07920  0.21560  Biso   1.000  C
  N3       1.0000 0.56590  0.16510  0.36710  Biso   1.000  N
  C4       1.0000 0.90280  0.41840  0.57350  Biso   1.000  C
  C5       1.0000 0.70660  0.25560  0.50280  Biso   1.000  C
  C6       1.0000 0.43640  0.10060  0.23990  Biso   1.000  C
  H1       1.0000 0.34850  0.08810  0.20400  Biso   1.000  H
  C7       1.0000 0.76850  0.37180  0.52290  Biso   1.000  C
  C8       1.0000 0.97870  0.34760  0.60260  Biso   1.000  C
  C9       1.0000 0.68880  0.09840  0.26960  Biso   1.000  C
  H2       1.0000 0.77640  0.08350  0.25450  Biso   1.000  H
  C10      1.0000 0.56480  0.03860  0.13160  Biso   1.000  C
  C11      1.0000 0.68540  0.13980  0.34630  Biso   1.000  C
  H3       1.0000 0.77000  0.15000  0.38390  Biso   1.000  H
  C12      1.0000 0.06150  0.73940  0.79660  Biso   1.000  C
  H4       1.0000 0.14550  0.78210  0.83470  Biso   1.000  H
  C13      1.0000 0.92180  0.74360  0.80810  Biso   1.000  C
  C14      1.0000 0.87870  0.14650  0.70510  Biso   1.000  C
  H5       1.0000 0.79480  0.15180  0.67290  Biso   1.000  H
  C15      1.0000 0.44010  0.14030  0.31680  Biso   1.000  C
  H6       1.0000 0.35270  0.15020  0.33410  Biso   1.000  H
  C16      1.0000 0.86810  0.13280  0.77610  Biso   1.000  C
  H7       1.0000 0.77870  0.13060  0.79330  Biso   1.000  H
  C17      1.0000 0.80200  0.67750  0.75420  Biso   1.000  C
  H8       1.0000 0.70640  0.67820  0.76340  Biso   1.000  H
  C18      1.0000 0.12200  0.13140  0.79500  Biso   1.000  C
  H9       1.0000 0.20930  0.12910  0.82610  Biso   1.000  H
  C19      1.0000 0.99400  0.12250  0.82090  Biso   1.000  C
  C20      1.0000 0.78340  0.18360  0.52930  Biso   1.000  C
  C21      1.0000 0.12210  0.40010  0.65790  Biso   1.000  C
  H10      1.0000 0.16140  0.34090  0.67290  Biso   1.000  H
  H11      1.0000 0.10740  0.45520  0.70310  Biso   1.000  H
  H12      1.0000 0.19130  0.43860  0.63400  Biso   1.000  H
  C22      1.0000 0.00830  0.15520  0.60210  Biso   1.000  C
  H13      1.0000 0.11100  0.18060  0.59840  Biso   1.000  H
  H14      1.0000 0.97000  0.07750  0.56630  Biso   1.000  H
  C23      1.0000 0.07390  0.66950  0.72630  Biso   1.000  C
  H15      1.0000 0.16840  0.66580  0.71630  Biso   1.000  H
  C24      1.0000 0.97450  0.54340  0.59700  Biso   1.000  C
  H16      1.0000 0.08030  0.55220  0.59720  Biso   1.000  H
  H17      1.0000 0.93220  0.57600  0.55880  Biso   1.000  H
  C25      1.0000 0.82140  0.61090  0.68730  Biso   1.000  C
  H18      1.0000 0.73820  0.56520  0.64960  Biso   1.000  H
  C26      1.0000 0.12500  0.14370  0.72360  Biso   1.000  C
  H19      1.0000 0.21270  0.14610  0.70470  Biso   1.000  H
  C27      1.0000 0.98700  0.10230  0.89610  Biso   1.000  C
  C28      1.0000 0.68240  0.44720  0.48980  Biso   1.000  C
  H20      1.0000 0.61310  0.47030  0.52160  Biso   1.000  H
  H21      1.0000 0.62890  0.40410  0.43790  Biso   1.000  H
  H22      1.0000 0.75100  0.51450  0.48900  Biso   1.000  H
  C29      1.0000 0.55670  0.20510  0.45100  Biso   1.000  C
  H23      1.0000 0.49720  0.26260  0.45870  Biso   1.000  H
  H24      1.0000 0.50700  0.14020  0.46500  Biso   1.000  H
  C30      1.0000 0.72150  0.05800  0.50430  Biso   1.000  C
  H25      1.0000 0.77960  0.01950  0.47090  Biso   1.000  H
  H26      1.0000 0.62000  0.04080  0.47670  Biso   1.000  H
  H27      1.0000 0.72460  0.03180  0.54900  Biso   1.000  H
  Eu2      1.0000 0.76483  0.98382  0.99696  Biso   1.000  Eu
  O7       1.0000 0.54950  0.97140  0.91430  Biso   1.000  O
  N4       1.0000 0.99470  0.84790  0.31740  Biso   1.000  N
  N5       1.0000 0.04360  0.39180  0.32680  Biso   1.000  N
  O8       1.0000 0.31750  0.97880  0.88450  Biso   1.000  O
  O9       1.0000 0.22350  0.17130  0.11090  Biso   1.000  O
  O10      1.0000 0.98170  0.10880  0.07490  Biso   1.000  O
  O11      1.0000 0.13720  0.93280  0.09250  Biso   1.000  O
  O12      1.0000 0.89210  0.87860  0.05910  Biso   1.000  O
  C31      1.0000 0.08020  0.76760  0.42160  Biso   1.000  C
  C32      1.0000 0.09620  0.17190  0.11940  Biso   1.000  C
  C33      1.0000 0.43700  0.92080  0.78440  Biso   1.000  C
  N6       1.0000 0.43410  0.83490  0.63290  Biso   1.000  N
  C34      1.0000 0.09720  0.58160  0.42650  Biso   1.000  C
  C35      1.0000 0.29340  0.74440  0.49720  Biso   1.000  C
  C36      1.0000 0.56360  0.89940  0.76010  Biso   1.000  C
  H28      1.0000 0.65150  0.91190  0.79600  Biso   1.000  H
  C37      1.0000 0.23150  0.62820  0.47710  Biso   1.000  C
  C38      1.0000 0.02130  0.65240  0.39740  Biso   1.000  C
  C39      1.0000 0.31120  0.90160  0.73040  Biso   1.000  C
  H29      1.0000 0.22360  0.91650  0.74550  Biso   1.000  H
  C40      1.0000 0.43520  0.96140  0.86840  Biso   1.000  C
  C41      1.0000 0.31460  0.86020  0.65370  Biso   1.000  C
  H30      1.0000 0.23000  0.85000  0.61610  Biso   1.000  H
  C42      1.0000 0.93850  0.26060  0.20340  Biso   1.000  C
  H31      1.0000 0.85450  0.21790  0.16530  Biso   1.000  H
  C43      1.0000 0.07820  0.25640  0.19190  Biso   1.000  C
  C44      1.0000 0.12130  0.85350  0.29490  Biso   1.000  C
  H32      1.0000 0.20520  0.84820  0.32710  Biso   1.000  H
  C45      1.0000 0.55990  0.85970  0.68320  Biso   1.000  C
  H33      1.0000 0.64730  0.84980  0.66590  Biso   1.000  H
  C46      1.0000 0.13190  0.86720  0.22390  Biso   1.000  C
  H34      1.0000 0.22130  0.86940  0.20670  Biso   1.000  H
  C47      1.0000 0.19800  0.32250  0.24580  Biso   1.000  C
  H35      1.0000 0.29360  0.32180  0.23660  Biso   1.000  H
  C48      1.0000 0.87800  0.86860  0.20500  Biso   1.000  C
  H36      1.0000 0.79070  0.87090  0.17390  Biso   1.000  H
  C49      1.0000 0.00600  0.87750  0.17910  Biso   1.000  C
  C50      1.0000 0.21660  0.81640  0.47070  Biso   1.000  C
  C51      1.0000 0.87790  0.59990  0.34210  Biso   1.000  C
  H37      1.0000 0.83860  0.65910  0.32710  Biso   1.000  H
  H38      1.0000 0.89260  0.54480  0.29690  Biso   1.000  H
  H39      1.0000 0.80870  0.56140  0.36600  Biso   1.000  H
  C52      1.0000 0.99170  0.84480  0.39790  Biso   1.000  C
  H40      1.0000 0.88900  0.81940  0.40160  Biso   1.000  H
  H41      1.0000 0.03000  0.92250  0.43370  Biso   1.000  H
  C53      1.0000 0.92610  0.33050  0.27370  Biso   1.000  C
  H42      1.0000 0.83160  0.33420  0.28370  Biso   1.000  H
  C54      1.0000 0.02550  0.45660  0.40300  Biso   1.000  C
  H43      1.0000 0.91970  0.44780  0.40280  Biso   1.000  H
  H44      1.0000 0.06780  0.42400  0.44120  Biso   1.000  H
  C55      1.0000 0.17860  0.38910  0.31270  Biso   1.000  C
  H45      1.0000 0.26180  0.43480  0.35040  Biso   1.000  H
  C56      1.0000 0.87500  0.85630  0.27640  Biso   1.000  C
  H46      1.0000 0.78730  0.85390  0.29530  Biso   1.000  H
  C57      1.0000 0.01300  0.89770  0.10390  Biso   1.000  C
  C58      1.0000 0.31760  0.55280  0.51020  Biso   1.000  C
  H47      1.0000 0.38690  0.52970  0.47840  Biso   1.000  H
  H48      1.0000 0.37110  0.59590  0.56210  Biso   1.000  H
  H49      1.0000 0.24900  0.48550  0.51100  Biso   1.000  H
  C59      1.0000 0.44330  0.79490  0.54900  Biso   1.000  C
  H50      1.0000 0.50280  0.73740  0.54130  Biso   1.000  H
  H51      1.0000 0.49300  0.85980  0.53500  Biso   1.000  H
  C60      1.0000 0.27850  0.94200  0.49570  Biso   1.000  C
  H52      1.0000 0.22040  0.98050  0.52910  Biso   1.000  H
  H53      1.0000 0.38000  0.95920  0.52330  Biso   1.000  H
  H54      1.0000 0.27540  0.96820  0.45100  Biso   1.000  H
