data_image0
_cell_length_a       9.5251
_cell_length_b       12.5605
_cell_length_c       18.9231
_cell_angle_alpha    106.077
_cell_angle_beta     98.874
_cell_angle_gamma    100.643

_symmetry_space_group_name_H-M    "P 1"
_symmetry_int_tables_number       1

loop_
  _symmetry_equiv_pos_as_xyz
  'x, y, z'

loop_
  _atom_site_label
  _atom_site_occupancy
  _atom_site_fract_x
  _atom_site_fract_y
  _atom_site_fract_z
  _atom_site_thermal_displace_type
  _atom_site_B_iso_or_equiv
  _atom_site_type_symbol
  Ce1      1.0000 0.23413  0.01779  0.00391  Biso   1.000  Ce
  O1       1.0000 0.45780  0.02940  0.08755  Biso   1.000  O
  O2       1.0000 0.68880  0.02030  0.11865  Biso   1.000  O
  O3       1.0000 0.00200  0.89130  0.92420  Biso   1.000  O
  N1       1.0000 0.56810  0.15930  0.36710  Biso   1.000  N
  O4       1.0000 0.76320  0.81890  0.88360  Biso   1.000  O
  N2       1.0000 0.00510  0.15300  0.68220  Biso   1.000  N
  O5       1.0000 0.10630  0.12680  0.93870  Biso   1.000  O
  O6       1.0000 0.86040  0.07070  0.90490  Biso   1.000  O
  N3       1.0000 0.95490  0.61040  0.67310  Biso   1.000  N
  C1       1.0000 0.92410  0.23240  0.57850  Biso   1.000  C
  C2       1.0000 0.89150  0.82340  0.87720  Biso   1.000  C
  C3       1.0000 0.56620  0.07660  0.21690  Biso   1.000  C
  C4       1.0000 0.90540  0.41890  0.57330  Biso   1.000  C
  C5       1.0000 0.57010  0.03790  0.13400  Biso   1.000  C
  C6       1.0000 0.98090  0.34850  0.60230  Biso   1.000  C
  C7       1.0000 0.43990  0.09640  0.24040  Biso   1.000  C
  H1       1.0000 0.35180  0.08190  0.20430  Biso   1.000  H
  C8       1.0000 0.71060  0.25340  0.50170  Biso   1.000  C
  C9       1.0000 0.69230  0.09610  0.27120  Biso   1.000  C
  H2       1.0000 0.77950  0.08080  0.25670  Biso   1.000  H
  C10      1.0000 0.44240  0.13700  0.31570  Biso   1.000  C
  H3       1.0000 0.35550  0.14950  0.33180  Biso   1.000  H
  C11      1.0000 0.77070  0.37270  0.52290  Biso   1.000  C
  C12      1.0000 0.69000  0.13810  0.34680  Biso   1.000  C
  H4       1.0000 0.77590  0.15170  0.38420  Biso   1.000  H
  C13      1.0000 0.91620  0.74200  0.80530  Biso   1.000  C
  C14      1.0000 0.99130  0.12630  0.81920  Biso   1.000  C
  C15      1.0000 0.78620  0.18320  0.52830  Biso   1.000  C
  C16      1.0000 0.87890  0.14780  0.70450  Biso   1.000  C
  H5       1.0000 0.79500  0.15300  0.67250  Biso   1.000  H
  C17      1.0000 0.01110  0.15500  0.60210  Biso   1.000  C
  H6       1.0000 0.11430  0.18090  0.59950  Biso   1.000  H
  H7       1.0000 0.97250  0.07660  0.56650  Biso   1.000  H
  C18      1.0000 0.12240  0.13350  0.79460  Biso   1.000  C
  H8       1.0000 0.20810  0.13000  0.82620  Biso   1.000  H
  C19      1.0000 0.86940  0.13480  0.77310  Biso   1.000  C
  H9       1.0000 0.77930  0.13170  0.78910  Biso   1.000  H
  C20      1.0000 0.12410  0.40140  0.65940  Biso   1.000  C
  H10      1.0000 0.16270  0.34140  0.67360  Biso   1.000  H
  H11      1.0000 0.10800  0.45520  0.70420  Biso   1.000  H
  H12      1.0000 0.19450  0.44200  0.63740  Biso   1.000  H
  C21      1.0000 0.05490  0.73940  0.79470  Biso   1.000  C
  H13      1.0000 0.13770  0.78350  0.83350  Biso   1.000  H
  C22      1.0000 0.79750  0.67620  0.74980  Biso   1.000  C
  H14      1.0000 0.70120  0.67690  0.75720  Biso   1.000  H
  C23      1.0000 0.07280  0.67260  0.72780  Biso   1.000  C
  H15      1.0000 0.16830  0.67010  0.71980  Biso   1.000  H
  C24      1.0000 0.81860  0.60960  0.68370  Biso   1.000  C
  H16      1.0000 0.73680  0.56270  0.64520  Biso   1.000  H
  C25      1.0000 0.97500  0.54540  0.59720  Biso   1.000  C
  H17      1.0000 0.08110  0.55620  0.59840  Biso   1.000  H
  H18      1.0000 0.93230  0.57760  0.55910  Biso   1.000  H
  C26      1.0000 0.98600  0.10720  0.89490  Biso   1.000  C
  C27      1.0000 0.12880  0.14550  0.72510  Biso   1.000  C
  H19      1.0000 0.21720  0.14850  0.70750  Biso   1.000  H
  C28      1.0000 0.56110  0.20240  0.45040  Biso   1.000  C
  H20      1.0000 0.50290  0.26070  0.45710  Biso   1.000  H
  H21      1.0000 0.51050  0.13810  0.46490  Biso   1.000  H
  C29      1.0000 0.68460  0.44380  0.48820  Biso   1.000  C
  H22      1.0000 0.60290  0.45510  0.51290  Biso   1.000  H
  H23      1.0000 0.64650  0.40380  0.43430  Biso   1.000  H
  H24      1.0000 0.74900  0.51810  0.49520  Biso   1.000  H
  C30      1.0000 0.72680  0.05460  0.50330  Biso   1.000  C
  H25      1.0000 0.62490  0.03490  0.47560  Biso   1.000  H
  H26      1.0000 0.73150  0.02850  0.54770  Biso   1.000  H
  H27      1.0000 0.78580  0.01740  0.47060  Biso   1.000  H
  Ce2      1.0000 0.76587  0.98221  0.99609  Biso   1.000  Ce
  O7       1.0000 0.54220  0.97060  0.91245  Biso   1.000  O
  O8       1.0000 0.31120  0.97970  0.88135  Biso   1.000  O
  O9       1.0000 0.99800  0.10870  0.07580  Biso   1.000  O
  N4       1.0000 0.43190  0.84070  0.63290  Biso   1.000  N
  O10      1.0000 0.23680  0.18110  0.11640  Biso   1.000  O
  N5       1.0000 0.99490  0.84700  0.31780  Biso   1.000  N
  O11      1.0000 0.89370  0.87320  0.06130  Biso   1.000  O
  O12      1.0000 0.13960  0.92930  0.09510  Biso   1.000  O
  N6       1.0000 0.04510  0.38960  0.32690  Biso   1.000  N
  C31      1.0000 0.07590  0.76760  0.42150  Biso   1.000  C
  C32      1.0000 0.10850  0.17660  0.12280  Biso   1.000  C
  C33      1.0000 0.43380  0.92340  0.78310  Biso   1.000  C
  C34      1.0000 0.09460  0.58110  0.42670  Biso   1.000  C
  C35      1.0000 0.42990  0.96210  0.86600  Biso   1.000  C
  C36      1.0000 0.01910  0.65150  0.39770  Biso   1.000  C
  C37      1.0000 0.56010  0.90360  0.75960  Biso   1.000  C
  H28      1.0000 0.64820  0.91810  0.79570  Biso   1.000  H
  C38      1.0000 0.28940  0.74660  0.49830  Biso   1.000  C
  C39      1.0000 0.30770  0.90390  0.72880  Biso   1.000  C
  H29      1.0000 0.22050  0.91920  0.74330  Biso   1.000  H
  C40      1.0000 0.55760  0.86300  0.68430  Biso   1.000  C
  H30      1.0000 0.64450  0.85050  0.66820  Biso   1.000  H
  C41      1.0000 0.22930  0.62730  0.47710  Biso   1.000  C
  C42      1.0000 0.31000  0.86190  0.65320  Biso   1.000  C
  H31      1.0000 0.22410  0.84830  0.61580  Biso   1.000  H
  C43      1.0000 0.08380  0.25800  0.19470  Biso   1.000  C
  C44      1.0000 0.00870  0.87370  0.18080  Biso   1.000  C
  C45      1.0000 0.21380  0.81680  0.47170  Biso   1.000  C
  C46      1.0000 0.12110  0.85220  0.29550  Biso   1.000  C
  H32      1.0000 0.20500  0.84700  0.32750  Biso   1.000  H
  C47      1.0000 0.98890  0.84500  0.39790  Biso   1.000  C
  H33      1.0000 0.88570  0.81910  0.40050  Biso   1.000  H
  H34      1.0000 0.02750  0.92340  0.43350  Biso   1.000  H
  C48      1.0000 0.87760  0.86650  0.20540  Biso   1.000  C
  H35      1.0000 0.79190  0.87000  0.17380  Biso   1.000  H
  C49      1.0000 0.13060  0.86520  0.22690  Biso   1.000  C
  H36      1.0000 0.22070  0.86830  0.21090  Biso   1.000  H
  C50      1.0000 0.87590  0.59860  0.34060  Biso   1.000  C
  H37      1.0000 0.83730  0.65860  0.32640  Biso   1.000  H
  H38      1.0000 0.89200  0.54480  0.29580  Biso   1.000  H
  H39      1.0000 0.80550  0.55800  0.36260  Biso   1.000  H
  C51      1.0000 0.94510  0.26060  0.20530  Biso   1.000  C
  H40      1.0000 0.86230  0.21650  0.16650  Biso   1.000  H
  C52      1.0000 0.20250  0.32380  0.25020  Biso   1.000  C
  H41      1.0000 0.29880  0.32310  0.24280  Biso   1.000  H
  C53      1.0000 0.92720  0.32740  0.27220  Biso   1.000  C
  H42      1.0000 0.83170  0.32990  0.28020  Biso   1.000  H
  C54      1.0000 0.18140  0.39040  0.31630  Biso   1.000  C
  H43      1.0000 0.26320  0.43730  0.35480  Biso   1.000  H
  C55      1.0000 0.02500  0.45460  0.40280  Biso   1.000  C
  H44      1.0000 0.91890  0.44380  0.40160  Biso   1.000  H
  H45      1.0000 0.06770  0.42240  0.44090  Biso   1.000  H
  C56      1.0000 0.01400  0.89280  0.10510  Biso   1.000  C
  C57      1.0000 0.87120  0.85450  0.27490  Biso   1.000  C
  H46      1.0000 0.78280  0.85150  0.29250  Biso   1.000  H
  C58      1.0000 0.43890  0.79760  0.54960  Biso   1.000  C
  H47      1.0000 0.49710  0.73930  0.54290  Biso   1.000  H
  H48      1.0000 0.48950  0.86190  0.53510  Biso   1.000  H
  C59      1.0000 0.31540  0.55620  0.51180  Biso   1.000  C
  H49      1.0000 0.39710  0.54490  0.48710  Biso   1.000  H
  H50      1.0000 0.35350  0.59620  0.56570  Biso   1.000  H
  H51      1.0000 0.25100  0.48190  0.50480  Biso   1.000  H
  C60      1.0000 0.27320  0.94540  0.49670  Biso   1.000  C
  H52      1.0000 0.37510  0.96510  0.52440  Biso   1.000  H
  H53      1.0000 0.26850  0.97150  0.45230  Biso   1.000  H
  H54      1.0000 0.21420  0.98260  0.52940  Biso   1.000  H
