data_image0
_cell_length_a       9.4727
_cell_length_b       12.652
_cell_length_c       18.6017
_cell_angle_alpha    106.106
_cell_angle_beta     98.088
_cell_angle_gamma    100.255

_symmetry_space_group_name_H-M    "P 1"
_symmetry_int_tables_number       1

loop_
  _symmetry_equiv_pos_as_xyz
  'x, y, z'

loop_
  _atom_site_label
  _atom_site_occupancy
  _atom_site_fract_x
  _atom_site_fract_y
  _atom_site_fract_z
  _atom_site_thermal_displace_type
  _atom_site_B_iso_or_equiv
  _atom_site_type_symbol
  Dy1      1.0000 0.76384  0.48437  0.49715  Biso   1.000  Dy
  O1       1.0000 0.55160  0.46820  0.41470  Biso   1.000  O
  N1       1.0000 0.99560  0.34850  0.81720  Biso   1.000  N
  O2       1.0000 0.97570  0.60810  0.57430  Biso   1.000  O
  O3       1.0000 0.88950  0.38300  0.55970  Biso   1.000  O
  O4       1.0000 0.31960  0.47910  0.38670  Biso   1.000  O
  O5       1.0000 0.21850  0.66770  0.60770  Biso   1.000  O
  N2       1.0000 0.43880  0.33720  0.13320  Biso   1.000  N
  C1       1.0000 0.09870  0.08190  0.92640  Biso   1.000  C
  C2       1.0000 0.43980  0.42010  0.28510  Biso   1.000  C
  N3       1.0000 0.04390  0.89210  0.82620  Biso   1.000  N
  C3       1.0000 0.08040  0.26840  0.92130  Biso   1.000  C
  C4       1.0000 0.09050  0.67070  0.61750  Biso   1.000  C
  C5       1.0000 0.43910  0.46090  0.37060  Biso   1.000  C
  C6       1.0000 0.56580  0.39810  0.26040  Biso   1.000  C
  H1       1.0000 0.65380  0.41070  0.29630  Biso   1.000  H
  C7       1.0000 0.07520  0.75610  0.68950  Biso   1.000  C
  C8       1.0000 0.21870  0.31560  0.97070  Biso   1.000  C
  C9       1.0000 0.23290  0.12790  0.97710  Biso   1.000  C
  C10      1.0000 0.31420  0.40210  0.23120  Biso   1.000  C
  H2       1.0000 0.22770  0.41940  0.24720  Biso   1.000  H
  C11      1.0000 0.29530  0.24550  0.99750  Biso   1.000  C
  C12      1.0000 0.56250  0.35790  0.18350  Biso   1.000  C
  H3       1.0000 0.64930  0.34480  0.16610  Biso   1.000  H
  C13      1.0000 0.87810  0.10210  0.84240  Biso   1.000  C
  H4       1.0000 0.83300  0.16310  0.83460  Biso   1.000  H
  H5       1.0000 0.81280  0.05370  0.86270  Biso   1.000  H
  H6       1.0000 0.89480  0.05710  0.79350  Biso   1.000  H
  C14      1.0000 0.31420  0.35910  0.15400  Biso   1.000  C
  H7       1.0000 0.22800  0.34540  0.11670  Biso   1.000  H
  C15      1.0000 0.19710  0.82170  0.74450  Biso   1.000  C
  H8       1.0000 0.29270  0.81940  0.73520  Biso   1.000  H
  C16      1.0000 0.87540  0.37040  0.70460  Biso   1.000  C
  H9       1.0000 0.78860  0.37430  0.67390  Biso   1.000  H
  C17      1.0000 0.93700  0.76290  0.70430  Biso   1.000  C
  H10      1.0000 0.85180  0.72020  0.66710  Biso   1.000  H
  C18      1.0000 0.13040  0.36770  0.72330  Biso   1.000  C
  H11      1.0000 0.22010  0.37100  0.70570  Biso   1.000  H
  C19      1.0000 0.92510  0.83180  0.77270  Biso   1.000  C
  H12      1.0000 0.83070  0.83710  0.78290  Biso   1.000  H
  C20      1.0000 0.01160  0.39920  0.60240  Biso   1.000  C
  C21      1.0000 0.02160  0.15180  0.89800  Biso   1.000  C
  C22      1.0000 0.12220  0.35310  0.79300  Biso   1.000  C
  H13      1.0000 0.20650  0.34620  0.82410  Biso   1.000  H
  C23      1.0000 0.99160  0.34500  0.89840  Biso   1.000  C
  H14      1.0000 0.02920  0.42240  0.93450  Biso   1.000  H
  H15      1.0000 0.88870  0.31910  0.90210  Biso   1.000  H
  C24      1.0000 0.27950  0.44160  0.99500  Biso   1.000  C
  H16      1.0000 0.22290  0.47990  0.03000  Biso   1.000  H
  H17      1.0000 0.27290  0.46750  0.94990  Biso   1.000  H
  H18      1.0000 0.38220  0.45920  0.02100  Biso   1.000  H
  C25      1.0000 0.17900  0.88950  0.81210  Biso   1.000  C
  H19      1.0000 0.26240  0.93530  0.84950  Biso   1.000  H
  C26      1.0000 0.87330  0.35730  0.77570  Biso   1.000  C
  H20      1.0000 0.78560  0.35460  0.79510  Biso   1.000  H
  C27      1.0000 0.00580  0.37780  0.67850  Biso   1.000  C
  C28      1.0000 0.02700  0.95780  0.90380  Biso   1.000  C
  H21      1.0000 0.07030  0.92540  0.94200  Biso   1.000  H
  H22      1.0000 0.92140  0.94930  0.90460  Biso   1.000  H
  C29      1.0000 0.44670  0.29690  0.04920  Biso   1.000  C
  H23      1.0000 0.50680  0.23970  0.04130  Biso   1.000  H
  H24      1.0000 0.49570  0.36150  0.03460  Biso   1.000  H
  C30      1.0000 0.31940  0.05470  0.01020  Biso   1.000  C
  H25      1.0000 0.25570  0.98020  0.00120  Biso   1.000  H
  H26      1.0000 0.35480  0.09130  0.06530  Biso   1.000  H
  H27      1.0000 0.40300  0.04580  0.98530  Biso   1.000  H
  O6       1.0000 0.13610  0.43530  0.59120  Biso   1.000  O
  Dy2      1.0000 0.23616  0.51563  0.50285  Biso   1.000  Dy
  O7       1.0000 0.44840  0.53180  0.58530  Biso   1.000  O
  N4       1.0000 0.00440  0.65150  0.18280  Biso   1.000  N
  O8       1.0000 0.02430  0.39190  0.42570  Biso   1.000  O
  O9       1.0000 0.11050  0.61700  0.44030  Biso   1.000  O
  O10      1.0000 0.68040  0.52090  0.61330  Biso   1.000  O
  O11      1.0000 0.78150  0.33230  0.39230  Biso   1.000  O
  N5       1.0000 0.56120  0.66280  0.86680  Biso   1.000  N
  C31      1.0000 0.90130  0.91810  0.07360  Biso   1.000  C
  C32      1.0000 0.56020  0.57990  0.71490  Biso   1.000  C
  N6       1.0000 0.95610  0.10790  0.17380  Biso   1.000  N
  C33      1.0000 0.91960  0.73160  0.07870  Biso   1.000  C
  C34      1.0000 0.90950  0.32930  0.38250  Biso   1.000  C
  C35      1.0000 0.56090  0.53910  0.62940  Biso   1.000  C
  C36      1.0000 0.43420  0.60190  0.73960  Biso   1.000  C
  H28      1.0000 0.34620  0.58930  0.70370  Biso   1.000  H
  C37      1.0000 0.92480  0.24390  0.31050  Biso   1.000  C
  C38      1.0000 0.78130  0.68440  0.02930  Biso   1.000  C
  C39      1.0000 0.76710  0.87210  0.02290  Biso   1.000  C
  C40      1.0000 0.68580  0.59790  0.76880  Biso   1.000  C
  H29      1.0000 0.77230  0.58060  0.75280  Biso   1.000  H
  C41      1.0000 0.70470  0.75450  0.00250  Biso   1.000  C
  C42      1.0000 0.43750  0.64210  0.81650  Biso   1.000  C
  H30      1.0000 0.35070  0.65520  0.83390  Biso   1.000  H
  C43      1.0000 0.12190  0.89790  0.15760  Biso   1.000  C
  H31      1.0000 0.16700  0.83690  0.16540  Biso   1.000  H
  H32      1.0000 0.18720  0.94630  0.13730  Biso   1.000  H
  H33      1.0000 0.10520  0.94290  0.20650  Biso   1.000  H
  C44      1.0000 0.68580  0.64090  0.84600  Biso   1.000  C
  H34      1.0000 0.77200  0.65460  0.88330  Biso   1.000  H
  C45      1.0000 0.80290  0.17830  0.25550  Biso   1.000  C
  H35      1.0000 0.70730  0.18060  0.26480  Biso   1.000  H
  C46      1.0000 0.12460  0.62960  0.29540  Biso   1.000  C
  H36      1.0000 0.21140  0.62570  0.32610  Biso   1.000  H
  C47      1.0000 0.06300  0.23710  0.29570  Biso   1.000  C
  H37      1.0000 0.14820  0.27980  0.33290  Biso   1.000  H
  C48      1.0000 0.86960  0.63230  0.27670  Biso   1.000  C
  H38      1.0000 0.77990  0.62900  0.29430  Biso   1.000  H
  C49      1.0000 0.07490  0.16820  0.22730  Biso   1.000  C
  H39      1.0000 0.16930  0.16290  0.21710  Biso   1.000  H
  C50      1.0000 0.98840  0.60080  0.39760  Biso   1.000  C
  C51      1.0000 0.97840  0.84820  0.10200  Biso   1.000  C
  C52      1.0000 0.87780  0.64690  0.20700  Biso   1.000  C
  H40      1.0000 0.79350  0.65380  0.17590  Biso   1.000  H
  C53      1.0000 0.00840  0.65500  0.10160  Biso   1.000  C
  H41      1.0000 0.97080  0.57760  0.06550  Biso   1.000  H
  H42      1.0000 0.11130  0.68090  0.09790  Biso   1.000  H
  C54      1.0000 0.72050  0.55840  0.00500  Biso   1.000  C
  H43      1.0000 0.77710  0.52010  0.97000  Biso   1.000  H
  H44      1.0000 0.72710  0.53250  0.05010  Biso   1.000  H
  H45      1.0000 0.61780  0.54080  0.97900  Biso   1.000  H
  C55      1.0000 0.82100  0.11050  0.18790  Biso   1.000  C
  H46      1.0000 0.73760  0.06470  0.15050  Biso   1.000  H
  C56      1.0000 0.12670  0.64270  0.22430  Biso   1.000  C
  H47      1.0000 0.21440  0.64540  0.20490  Biso   1.000  H
  C57      1.0000 0.99420  0.62220  0.32150  Biso   1.000  C
  C58      1.0000 0.97300  0.04220  0.09620  Biso   1.000  C
  H48      1.0000 0.92970  0.07460  0.05800  Biso   1.000  H
  H49      1.0000 0.07860  0.05070  0.09540  Biso   1.000  H
  C59      1.0000 0.55330  0.70310  0.95080  Biso   1.000  C
  H50      1.0000 0.49320  0.76030  0.95870  Biso   1.000  H
  H51      1.0000 0.50430  0.63850  0.96540  Biso   1.000  H
  C60      1.0000 0.68060  0.94530  0.98980  Biso   1.000  C
  H52      1.0000 0.74430  0.01980  0.99880  Biso   1.000  H
  H53      1.0000 0.64520  0.90870  0.93470  Biso   1.000  H
  H54      1.0000 0.59700  0.95420  0.01470  Biso   1.000  H
  O12      1.0000 0.86390  0.56470  0.40880  Biso   1.000  O
