data_image0
_cell_length_a       9.4951
_cell_length_b       12.5595
_cell_length_c       18.9191
_cell_angle_alpha    106.107
_cell_angle_beta     98.869
_cell_angle_gamma    100.65

_symmetry_space_group_name_H-M    "P 1"
_symmetry_int_tables_number       1

loop_
  _symmetry_equiv_pos_as_xyz
  'x, y, z'

loop_
  _atom_site_label
  _atom_site_occupancy
  _atom_site_fract_x
  _atom_site_fract_y
  _atom_site_fract_z
  _atom_site_thermal_displace_type
  _atom_site_B_iso_or_equiv
  _atom_site_type_symbol
  Yb1      1.0000 0.23413  0.01781  0.00391  Biso   1.000  Yb
  O1       1.0000 0.45780  0.02950  0.08770  Biso   1.000  O
  O2       1.0000 0.68900  0.02040  0.11880  Biso   1.000  O
  O3       1.0000 0.00240  0.89120  0.92430  Biso   1.000  O
  N1       1.0000 0.56780  0.15890  0.36730  Biso   1.000  N
  O4       1.0000 0.76350  0.81880  0.88370  Biso   1.000  O
  N2       1.0000 0.00540  0.15290  0.68190  Biso   1.000  N
  O5       1.0000 0.10650  0.12710  0.93880  Biso   1.000  O
  O6       1.0000 0.86050  0.07110  0.90500  Biso   1.000  O
  N3       1.0000 0.95450  0.61040  0.67270  Biso   1.000  N
  C1       1.0000 0.92410  0.23230  0.57840  Biso   1.000  C
  C2       1.0000 0.89160  0.82320  0.87700  Biso   1.000  C
  C3       1.0000 0.56590  0.07640  0.21700  Biso   1.000  C
  C4       1.0000 0.90550  0.41910  0.57330  Biso   1.000  C
  C5       1.0000 0.56990  0.03790  0.13400  Biso   1.000  C
  C6       1.0000 0.98080  0.34850  0.60220  Biso   1.000  C
  C7       1.0000 0.44040  0.09640  0.24040  Biso   1.000  C
  H1       1.0000 0.35220  0.08220  0.20420  Biso   1.000  H
  C8       1.0000 0.71100  0.25350  0.50160  Biso   1.000  C
  C9       1.0000 0.69240  0.09640  0.27120  Biso   1.000  C
  H2       1.0000 0.78000  0.08120  0.25660  Biso   1.000  H
  C10      1.0000 0.44220  0.13670  0.31580  Biso   1.000  C
  H3       1.0000 0.35490  0.14910  0.33180  Biso   1.000  H
  C11      1.0000 0.77010  0.37200  0.52250  Biso   1.000  C
  C12      1.0000 0.69000  0.13850  0.34660  Biso   1.000  C
  H4       1.0000 0.77660  0.15290  0.38400  Biso   1.000  H
  C13      1.0000 0.91620  0.74250  0.80540  Biso   1.000  C
  C14      1.0000 0.99130  0.12650  0.81910  Biso   1.000  C
  C15      1.0000 0.78650  0.18300  0.52840  Biso   1.000  C
  C16      1.0000 0.87870  0.14780  0.70440  Biso   1.000  C
  H5       1.0000 0.79450  0.15330  0.67250  Biso   1.000  H
  C17      1.0000 0.01170  0.15520  0.60260  Biso   1.000  C
  H6       1.0000 0.11530  0.18140  0.60020  Biso   1.000  H
  H7       1.0000 0.97360  0.07670  0.56700  Biso   1.000  H
  C18      1.0000 0.12200  0.13350  0.79460  Biso   1.000  C
  H8       1.0000 0.20800  0.13000  0.82620  Biso   1.000  H
  C19      1.0000 0.86910  0.13480  0.77320  Biso   1.000  C
  H9       1.0000 0.77870  0.13160  0.78910  Biso   1.000  H
  C20      1.0000 0.12450  0.40170  0.65950  Biso   1.000  C
  H10      1.0000 0.16370  0.34170  0.67350  Biso   1.000  H
  H11      1.0000 0.10800  0.45500  0.70450  Biso   1.000  H
  H12      1.0000 0.19500  0.44290  0.63770  Biso   1.000  H
  C21      1.0000 0.05540  0.73980  0.79510  Biso   1.000  C
  H13      1.0000 0.13850  0.78400  0.83390  Biso   1.000  H
  C22      1.0000 0.79770  0.67580  0.74990  Biso   1.000  C
  H14      1.0000 0.70110  0.67590  0.75750  Biso   1.000  H
  C23      1.0000 0.07280  0.67240  0.72790  Biso   1.000  C
  H15      1.0000 0.16860  0.66940  0.72010  Biso   1.000  H
  C24      1.0000 0.81800  0.60940  0.68380  Biso   1.000  C
  H16      1.0000 0.73560  0.56240  0.64550  Biso   1.000  H
  C25      1.0000 0.97470  0.54530  0.59710  Biso   1.000  C
  H17      1.0000 0.08110  0.55630  0.59830  Biso   1.000  H
  H18      1.0000 0.93170  0.57720  0.55890  Biso   1.000  H
  C26      1.0000 0.98560  0.10750  0.89470  Biso   1.000  C
  C27      1.0000 0.12820  0.14530  0.72510  Biso   1.000  C
  H19      1.0000 0.21700  0.14820  0.70760  Biso   1.000  H
  C28      1.0000 0.56100  0.20210  0.45020  Biso   1.000  C
  H20      1.0000 0.50240  0.26030  0.45690  Biso   1.000  H
  H21      1.0000 0.51030  0.13790  0.46480  Biso   1.000  H
  C29      1.0000 0.68490  0.44410  0.48870  Biso   1.000  C
  H22      1.0000 0.60420  0.45670  0.51420  Biso   1.000  H
  H23      1.0000 0.64500  0.40430  0.43480  Biso   1.000  H
  H24      1.0000 0.75070  0.51780  0.49530  Biso   1.000  H
  C30      1.0000 0.72540  0.05570  0.50330  Biso   1.000  C
  H25      1.0000 0.62610  0.03660  0.47210  Biso   1.000  H
  H26      1.0000 0.72170  0.03010  0.54750  Biso   1.000  H
  H27      1.0000 0.78850  0.01760  0.47380  Biso   1.000  H
  Yb2      1.0000 0.76587  0.98219  0.99609  Biso   1.000  Yb
  O7       1.0000 0.54220  0.97050  0.91230  Biso   1.000  O
  O8       1.0000 0.31100  0.97960  0.88120  Biso   1.000  O
  O9       1.0000 0.99760  0.10880  0.07570  Biso   1.000  O
  N4       1.0000 0.43220  0.84110  0.63270  Biso   1.000  N
  O10      1.0000 0.23650  0.18120  0.11630  Biso   1.000  O
  N5       1.0000 0.99460  0.84710  0.31810  Biso   1.000  N
  O11      1.0000 0.89350  0.87290  0.06120  Biso   1.000  O
  O12      1.0000 0.13950  0.92890  0.09500  Biso   1.000  O
  N6       1.0000 0.04550  0.38960  0.32730  Biso   1.000  N
  C31      1.0000 0.07590  0.76770  0.42160  Biso   1.000  C
  C32      1.0000 0.10840  0.17680  0.12300  Biso   1.000  C
  C33      1.0000 0.43410  0.92360  0.78300  Biso   1.000  C
  C34      1.0000 0.09450  0.58090  0.42670  Biso   1.000  C
  C35      1.0000 0.43010  0.96210  0.86600  Biso   1.000  C
  C36      1.0000 0.01920  0.65150  0.39780  Biso   1.000  C
  C37      1.0000 0.55960  0.90360  0.75960  Biso   1.000  C
  H28      1.0000 0.64780  0.91780  0.79580  Biso   1.000  H
  C38      1.0000 0.28900  0.74650  0.49840  Biso   1.000  C
  C39      1.0000 0.30760  0.90360  0.72880  Biso   1.000  C
  H29      1.0000 0.22000  0.91880  0.74340  Biso   1.000  H
  C40      1.0000 0.55780  0.86330  0.68420  Biso   1.000  C
  H30      1.0000 0.64510  0.85090  0.66820  Biso   1.000  H
  C41      1.0000 0.22990  0.62800  0.47750  Biso   1.000  C
  C42      1.0000 0.31000  0.86150  0.65340  Biso   1.000  C
  H31      1.0000 0.22340  0.84710  0.61600  Biso   1.000  H
  C43      1.0000 0.08380  0.25750  0.19460  Biso   1.000  C
  C44      1.0000 0.00870  0.87350  0.18090  Biso   1.000  C
  C45      1.0000 0.21350  0.81700  0.47160  Biso   1.000  C
  C46      1.0000 0.12130  0.85220  0.29560  Biso   1.000  C
  H32      1.0000 0.20550  0.84670  0.32750  Biso   1.000  H
  C47      1.0000 0.98830  0.84480  0.39740  Biso   1.000  C
  H33      1.0000 0.88470  0.81860  0.39980  Biso   1.000  H
  H34      1.0000 0.02640  0.92330  0.43300  Biso   1.000  H
  C48      1.0000 0.87800  0.86650  0.20540  Biso   1.000  C
  H35      1.0000 0.79200  0.87000  0.17380  Biso   1.000  H
  C49      1.0000 0.13090  0.86520  0.22680  Biso   1.000  C
  H36      1.0000 0.22130  0.86840  0.21090  Biso   1.000  H
  C50      1.0000 0.87550  0.59830  0.34050  Biso   1.000  C
  H37      1.0000 0.83630  0.65830  0.32650  Biso   1.000  H
  H38      1.0000 0.89200  0.54500  0.29550  Biso   1.000  H
  H39      1.0000 0.80500  0.55710  0.36230  Biso   1.000  H
  C51      1.0000 0.94460  0.26020  0.20490  Biso   1.000  C
  H40      1.0000 0.86150  0.21600  0.16610  Biso   1.000  H
  C52      1.0000 0.20230  0.32420  0.25010  Biso   1.000  C
  H41      1.0000 0.29890  0.32410  0.24250  Biso   1.000  H
  C53      1.0000 0.92720  0.32760  0.27210  Biso   1.000  C
  H42      1.0000 0.83140  0.33060  0.27990  Biso   1.000  H
  C54      1.0000 0.18200  0.39060  0.31620  Biso   1.000  C
  H43      1.0000 0.26440  0.43760  0.35450  Biso   1.000  H
  C55      1.0000 0.02530  0.45470  0.40290  Biso   1.000  C
  H44      1.0000 0.91890  0.44370  0.40170  Biso   1.000  H
  H45      1.0000 0.06830  0.42280  0.44110  Biso   1.000  H
  C56      1.0000 0.01440  0.89250  0.10530  Biso   1.000  C
  C57      1.0000 0.87180  0.85470  0.27490  Biso   1.000  C
  H46      1.0000 0.78300  0.85180  0.29240  Biso   1.000  H
  C58      1.0000 0.43900  0.79790  0.54980  Biso   1.000  C
  H47      1.0000 0.49760  0.73970  0.54310  Biso   1.000  H
  H48      1.0000 0.48970  0.86210  0.53520  Biso   1.000  H
  C59      1.0000 0.31510  0.55590  0.51130  Biso   1.000  C
  H49      1.0000 0.39580  0.54330  0.48580  Biso   1.000  H
  H50      1.0000 0.35500  0.59570  0.56520  Biso   1.000  H
  H51      1.0000 0.24930  0.48220  0.50470  Biso   1.000  H
  C60      1.0000 0.27460  0.94430  0.49670  Biso   1.000  C
  H52      1.0000 0.37390  0.96340  0.52790  Biso   1.000  H
  H53      1.0000 0.27830  0.96990  0.45250  Biso   1.000  H
  H54      1.0000 0.21150  0.98240  0.52620  Biso   1.000  H
