data_image0
_cell_length_a       9.4644
_cell_length_b       12.7206
_cell_length_c       18.5539
_cell_angle_alpha    106.206
_cell_angle_beta     97.893
_cell_angle_gamma    100.266

_symmetry_space_group_name_H-M    "P 1"
_symmetry_int_tables_number       1

loop_
  _symmetry_equiv_pos_as_xyz
  'x, y, z'

loop_
  _atom_site_label
  _atom_site_occupancy
  _atom_site_fract_x
  _atom_site_fract_y
  _atom_site_fract_z
  _atom_site_thermal_displace_type
  _atom_site_B_iso_or_equiv
  _atom_site_type_symbol
  Ho1      1.0000 0.26384  0.48509  0.49728  Biso   1.000  Ho
  O1       1.0000 0.28400  0.33330  0.39430  Biso   1.000  O
  N1       1.0000 0.45810  0.10630  0.17410  Biso   1.000  N
  C1       1.0000 0.40170  0.91690  0.07400  Biso   1.000  C
  O2       1.0000 0.52670  0.39130  0.42690  Biso   1.000  O
  N2       1.0000 0.50410  0.64940  0.18080  Biso   1.000  N
  C2       1.0000 0.47780  0.84700  0.10220  Biso   1.000  C
  O3       1.0000 0.36450  0.56200  0.40770  Biso   1.000  O
  N3       1.0000 0.06080  0.66430  0.86800  Biso   1.000  N
  C3       1.0000 0.41860  0.73060  0.07810  Biso   1.000  C
  O4       1.0000 0.61100  0.61350  0.43870  Biso   1.000  O
  C4       1.0000 0.28190  0.68500  0.02990  Biso   1.000  C
  O5       1.0000 0.17960  0.52380  0.61317  Biso   1.000  O
  C5       1.0000 0.20590  0.75650  0.00380  Biso   1.000  C
  O6       1.0000 0.94680  0.53290  0.58529  Biso   1.000  O
  C6       1.0000 0.26600  0.87210  0.02350  Biso   1.000  C
  C7       1.0000 0.47210  0.03990  0.09670  Biso   1.000  C
  H1       1.0000 0.57740  0.04840  0.09480  Biso   1.000  H
  H2       1.0000 0.42750  0.07180  0.05860  Biso   1.000  H
  C8       1.0000 0.50850  0.65450  0.10080  Biso   1.000  C
  H3       1.0000 0.61150  0.68120  0.09740  Biso   1.000  H
  H4       1.0000 0.47210  0.57780  0.06410  Biso   1.000  H
  C9       1.0000 0.05560  0.70880  0.95270  Biso   1.000  C
  H5       1.0000 0.99920  0.76820  0.96000  Biso   1.000  H
  H6       1.0000 0.00310  0.64700  0.96850  Biso   1.000  H
  C10      1.0000 0.62070  0.89630  0.15780  Biso   1.000  C
  H7       1.0000 0.66220  0.83570  0.16850  Biso   1.000  H
  H8       1.0000 0.60470  0.94570  0.20550  Biso   1.000  H
  H9       1.0000 0.68880  0.93990  0.13570  Biso   1.000  H
  C11      1.0000 0.21680  0.56070  0.00450  Biso   1.000  C
  H10      1.0000 0.29140  0.51980  0.98840  Biso   1.000  H
  H11      1.0000 0.13420  0.54170  0.96150  Biso   1.000  H
  H12      1.0000 0.18240  0.53950  0.04700  Biso   1.000  H
  C12      1.0000 0.18210  0.94540  0.99150  Biso   1.000  C
  H13      1.0000 0.13390  0.90460  0.93820  Biso   1.000  H
  H14      1.0000 0.25000  0.01450  0.99370  Biso   1.000  H
  H15      1.0000 0.10800  0.96440  0.02190  Biso   1.000  H
  C13      1.0000 0.57760  0.16690  0.22740  Biso   1.000  C
  H16      1.0000 0.67220  0.16250  0.21700  Biso   1.000  H
  C14      1.0000 0.56410  0.23540  0.29720  Biso   1.000  C
  H17      1.0000 0.64900  0.27600  0.33530  Biso   1.000  H
  C15      1.0000 0.42740  0.24460  0.31140  Biso   1.000  C
  C16      1.0000 0.30370  0.17800  0.25700  Biso   1.000  C
  H18      1.0000 0.20830  0.18020  0.26710  Biso   1.000  H
  C17      1.0000 0.32160  0.10930  0.18880  Biso   1.000  C
  H19      1.0000 0.23800  0.06360  0.15160  Biso   1.000  H
  C18      1.0000 0.41130  0.32850  0.38380  Biso   1.000  C
  C19      1.0000 0.62580  0.63990  0.22260  Biso   1.000  C
  H20      1.0000 0.71390  0.64300  0.20330  Biso   1.000  H
  C20      1.0000 0.62330  0.62560  0.29290  Biso   1.000  C
  H21      1.0000 0.71010  0.62050  0.32300  Biso   1.000  H
  C21      1.0000 0.49400  0.61880  0.32020  Biso   1.000  C
  C22      1.0000 0.36960  0.62950  0.27570  Biso   1.000  C
  H22      1.0000 0.27990  0.62590  0.29350  Biso   1.000  H
  C23      1.0000 0.37730  0.64530  0.20680  Biso   1.000  C
  H23      1.0000 0.29280  0.65340  0.17660  Biso   1.000  H
  C24      1.0000 0.48790  0.59640  0.39580  Biso   1.000  C
  C25      1.0000 0.18460  0.64350  0.84540  Biso   1.000  C
  H24      1.0000 0.27150  0.65790  0.88250  Biso   1.000  H
  C26      1.0000 0.18590  0.60170  0.76900  Biso   1.000  C
  H25      1.0000 0.27290  0.58570  0.75290  Biso   1.000  H
  C27      1.0000 0.05900  0.58280  0.71530  Biso   1.000  C
  C28      1.0000 0.93280  0.60340  0.74050  Biso   1.000  C
  H26      1.0000 0.84400  0.58830  0.70460  Biso   1.000  H
  C29      1.0000 0.93650  0.64620  0.81820  Biso   1.000  C
  H27      1.0000 0.85090  0.66250  0.83590  Biso   1.000  H
  C30      1.0000 0.06100  0.54200  0.62990  Biso   1.000  C
  Ho2      1.0000 0.73616  0.51491  0.50272  Biso   1.000  Ho
  O7       1.0000 0.71600  0.66670  0.60570  Biso   1.000  O
  N4       1.0000 0.54190  0.89370  0.82590  Biso   1.000  N
  C31      1.0000 0.59830  0.08310  0.92600  Biso   1.000  C
  O8       1.0000 0.47330  0.60870  0.57310  Biso   1.000  O
  N5       1.0000 0.49590  0.35060  0.81920  Biso   1.000  N
  C32      1.0000 0.52220  0.15300  0.89780  Biso   1.000  C
  O9       1.0000 0.63550  0.43800  0.59230  Biso   1.000  O
  N6       1.0000 0.93920  0.33570  0.13200  Biso   1.000  N
  C33      1.0000 0.58140  0.26940  0.92190  Biso   1.000  C
  O10      1.0000 0.38900  0.38650  0.56130  Biso   1.000  O
  C34      1.0000 0.71810  0.31500  0.97010  Biso   1.000  C
  O11      1.0000 0.82040  0.47620  0.38683  Biso   1.000  O
  C35      1.0000 0.79410  0.24350  0.99620  Biso   1.000  C
  O12      1.0000 0.05320  0.46710  0.41471  Biso   1.000  O
  C36      1.0000 0.73400  0.12790  0.97650  Biso   1.000  C
  C37      1.0000 0.52790  0.96010  0.90330  Biso   1.000  C
  H28      1.0000 0.42260  0.95160  0.90520  Biso   1.000  H
  H29      1.0000 0.57250  0.92820  0.94140  Biso   1.000  H
  C38      1.0000 0.49150  0.34550  0.89920  Biso   1.000  C
  H30      1.0000 0.38850  0.31880  0.90260  Biso   1.000  H
  H31      1.0000 0.52790  0.42220  0.93590  Biso   1.000  H
  C39      1.0000 0.94440  0.29120  0.04730  Biso   1.000  C
  H32      1.0000 0.00080  0.23180  0.04000  Biso   1.000  H
  H33      1.0000 0.99690  0.35300  0.03150  Biso   1.000  H
  C40      1.0000 0.37930  0.10370  0.84220  Biso   1.000  C
  H34      1.0000 0.33780  0.16430  0.83150  Biso   1.000  H
  H35      1.0000 0.39530  0.05430  0.79450  Biso   1.000  H
  H36      1.0000 0.31120  0.06010  0.86430  Biso   1.000  H
  C41      1.0000 0.78320  0.43930  0.99550  Biso   1.000  C
  H37      1.0000 0.70860  0.48020  0.01160  Biso   1.000  H
  H38      1.0000 0.86580  0.45830  0.03850  Biso   1.000  H
  H39      1.0000 0.81760  0.46050  0.95300  Biso   1.000  H
  C42      1.0000 0.81790  0.05460  0.00850  Biso   1.000  C
  H40      1.0000 0.86610  0.09540  0.06180  Biso   1.000  H
  H41      1.0000 0.75000  0.98550  0.00630  Biso   1.000  H
  H42      1.0000 0.89200  0.03560  0.97810  Biso   1.000  H
  C43      1.0000 0.42240  0.83310  0.77260  Biso   1.000  C
  H43      1.0000 0.32780  0.83750  0.78300  Biso   1.000  H
  C44      1.0000 0.43590  0.76460  0.70280  Biso   1.000  C
  H44      1.0000 0.35100  0.72400  0.66470  Biso   1.000  H
  C45      1.0000 0.57260  0.75540  0.68860  Biso   1.000  C
  C46      1.0000 0.69630  0.82200  0.74300  Biso   1.000  C
  H45      1.0000 0.79170  0.81980  0.73290  Biso   1.000  H
  C47      1.0000 0.67840  0.89070  0.81120  Biso   1.000  C
  H46      1.0000 0.76200  0.93640  0.84840  Biso   1.000  H
  C48      1.0000 0.58870  0.67150  0.61620  Biso   1.000  C
  C49      1.0000 0.37420  0.36010  0.77740  Biso   1.000  C
  H47      1.0000 0.28610  0.35700  0.79670  Biso   1.000  H
  C50      1.0000 0.37670  0.37440  0.70710  Biso   1.000  C
  H48      1.0000 0.28990  0.37950  0.67700  Biso   1.000  H
  C51      1.0000 0.50600  0.38120  0.67980  Biso   1.000  C
  C52      1.0000 0.63040  0.37050  0.72430  Biso   1.000  C
  H49      1.0000 0.72010  0.37410  0.70650  Biso   1.000  H
  C53      1.0000 0.62270  0.35470  0.79320  Biso   1.000  C
  H50      1.0000 0.70720  0.34660  0.82340  Biso   1.000  H
  C54      1.0000 0.51210  0.40360  0.60420  Biso   1.000  C
  C55      1.0000 0.81540  0.35650  0.15460  Biso   1.000  C
  H51      1.0000 0.72850  0.34210  0.11750  Biso   1.000  H
  C56      1.0000 0.81410  0.39830  0.23100  Biso   1.000  C
  H52      1.0000 0.72710  0.41430  0.24710  Biso   1.000  H
  C57      1.0000 0.94100  0.41720  0.28470  Biso   1.000  C
  C58      1.0000 0.06720  0.39660  0.25950  Biso   1.000  C
  H53      1.0000 0.15600  0.41170  0.29540  Biso   1.000  H
  C59      1.0000 0.06350  0.35380  0.18180  Biso   1.000  C
  H54      1.0000 0.14910  0.33750  0.16410  Biso   1.000  H
  C60      1.0000 0.93900  0.45800  0.37010  Biso   1.000  C
