data_image0
_cell_length_a       19.485
_cell_length_b       7.084
_cell_length_c       12.134
_cell_angle_alpha    90
_cell_angle_beta     103.33
_cell_angle_gamma    90

_symmetry_space_group_name_H-M    "P 1"
_symmetry_int_tables_number       1

loop_
  _symmetry_equiv_pos_as_xyz
  'x, y, z'

loop_
  _atom_site_label
  _atom_site_occupancy
  _atom_site_fract_x
  _atom_site_fract_y
  _atom_site_fract_z
  _atom_site_thermal_displace_type
  _atom_site_B_iso_or_equiv
  _atom_site_type_symbol
  Co1      1.0000 0.71617  0.85665  0.86277  Biso   1.000  Co
  O1       1.0000 0.68779  0.83520  0.01764  Biso   1.000  O
  O2       1.0000 0.73958  0.08530  0.11490  Biso   1.000  O
  N1       1.0000 0.72012  0.85480  0.51617  Biso   1.000  N
  N2       1.0000 0.74073  0.87850  0.70310  Biso   1.000  N
  N3       1.0000 0.50036  0.71020  0.25130  Biso   1.000  N
  N4       1.0000 0.38464  0.73920  0.20390  Biso   1.000  N
  C1       1.0000 0.68087  0.84170  0.40120  Biso   1.000  C
  C2       1.0000 0.61187  0.77290  0.38090  Biso   1.000  C
  H1       1.0000 0.59240  0.73200  0.44170  Biso   1.000  H
  C3       1.0000 0.57241  0.76570  0.27020  Biso   1.000  C
  C4       1.0000 0.60151  0.81600  0.18000  Biso   1.000  C
  H2       1.0000 0.57460  0.80500  0.10430  Biso   1.000  H
  C5       1.0000 0.67069  0.88270  0.20190  Biso   1.000  C
  C6       1.0000 0.71007  0.89910  0.31300  Biso   1.000  C
  H3       1.0000 0.75650  0.94920  0.32810  Biso   1.000  H
  C7       1.0000 0.69135  0.88260  0.60710  Biso   1.000  C
  H4       1.0000 0.64250  0.90230  0.60250  Biso   1.000  H
  C8       1.0000 0.80373  0.85120  0.67150  Biso   1.000  C
  H5       1.0000 0.84870  0.84380  0.72250  Biso   1.000  H
  C9       1.0000 0.79232  0.83640  0.55730  Biso   1.000  C
  H6       1.0000 0.82680  0.81740  0.51430  Biso   1.000  H
  C10      1.0000 0.44492  0.81040  0.19280  Biso   1.000  C
  H7       1.0000 0.44900  0.91910  0.14890  Biso   1.000  H
  C11      1.0000 0.40247  0.58260  0.27280  Biso   1.000  C
  H8       1.0000 0.36970  0.50010  0.29530  Biso   1.000  H
  C12      1.0000 0.47343  0.56430  0.30330  Biso   1.000  C
  H9       1.0000 0.49940  0.46990  0.35090  Biso   1.000  H
  C13      1.0000 0.70204  0.94180  0.10500  Biso   1.000  C
  Co2      1.0000 0.21617  0.35665  0.86277  Biso   1.000  Co
  O3       1.0000 0.18779  0.33520  0.01764  Biso   1.000  O
  O4       1.0000 0.23958  0.58530  0.11490  Biso   1.000  O
  N5       1.0000 0.22012  0.35480  0.51617  Biso   1.000  N
  N6       1.0000 0.24073  0.37850  0.70310  Biso   1.000  N
  N7       1.0000 0.00036  0.21020  0.25130  Biso   1.000  N
  N8       1.0000 0.88464  0.23920  0.20390  Biso   1.000  N
  C14      1.0000 0.18087  0.34170  0.40120  Biso   1.000  C
  C15      1.0000 0.11187  0.27290  0.38090  Biso   1.000  C
  H10      1.0000 0.09240  0.23200  0.44170  Biso   1.000  H
  C16      1.0000 0.07241  0.26570  0.27020  Biso   1.000  C
  C17      1.0000 0.10151  0.31600  0.18000  Biso   1.000  C
  H11      1.0000 0.07460  0.30500  0.10430  Biso   1.000  H
  C18      1.0000 0.17069  0.38270  0.20190  Biso   1.000  C
  C19      1.0000 0.21007  0.39910  0.31300  Biso   1.000  C
  H12      1.0000 0.25650  0.44920  0.32810  Biso   1.000  H
  C20      1.0000 0.19135  0.38260  0.60710  Biso   1.000  C
  H13      1.0000 0.14250  0.40230  0.60250  Biso   1.000  H
  C21      1.0000 0.30373  0.35120  0.67150  Biso   1.000  C
  H14      1.0000 0.34870  0.34380  0.72250  Biso   1.000  H
  C22      1.0000 0.29232  0.33640  0.55730  Biso   1.000  C
  H15      1.0000 0.32680  0.31740  0.51430  Biso   1.000  H
  C23      1.0000 0.94492  0.31040  0.19280  Biso   1.000  C
  H16      1.0000 0.94900  0.41910  0.14890  Biso   1.000  H
  C24      1.0000 0.90247  0.08260  0.27280  Biso   1.000  C
  H17      1.0000 0.86970  0.00010  0.29530  Biso   1.000  H
  C25      1.0000 0.97343  0.06430  0.30330  Biso   1.000  C
  H18      1.0000 0.99940  0.96990  0.35090  Biso   1.000  H
  C26      1.0000 0.20204  0.44180  0.10500  Biso   1.000  C
  Co3      1.0000 0.28383  0.85665  0.13723  Biso   1.000  Co
  O5       1.0000 0.31221  0.83520  0.98236  Biso   1.000  O
  O6       1.0000 0.26042  0.08530  0.88510  Biso   1.000  O
  N9       1.0000 0.27988  0.85480  0.48383  Biso   1.000  N
  N10      1.0000 0.25927  0.87850  0.29690  Biso   1.000  N
  N11      1.0000 0.49964  0.71020  0.74870  Biso   1.000  N
  N12      1.0000 0.61536  0.73920  0.79610  Biso   1.000  N
  C27      1.0000 0.31913  0.84170  0.59880  Biso   1.000  C
  C28      1.0000 0.38813  0.77290  0.61910  Biso   1.000  C
  H19      1.0000 0.40760  0.73200  0.55830  Biso   1.000  H
  C29      1.0000 0.42759  0.76570  0.72980  Biso   1.000  C
  C30      1.0000 0.39849  0.81600  0.82000  Biso   1.000  C
  H20      1.0000 0.42540  0.80500  0.89570  Biso   1.000  H
  C31      1.0000 0.32931  0.88270  0.79810  Biso   1.000  C
  C32      1.0000 0.28993  0.89910  0.68700  Biso   1.000  C
  H21      1.0000 0.24350  0.94920  0.67190  Biso   1.000  H
  C33      1.0000 0.30865  0.88260  0.39290  Biso   1.000  C
  H22      1.0000 0.35750  0.90230  0.39750  Biso   1.000  H
  C34      1.0000 0.19627  0.85120  0.32850  Biso   1.000  C
  H23      1.0000 0.15130  0.84380  0.27750  Biso   1.000  H
  C35      1.0000 0.20768  0.83640  0.44270  Biso   1.000  C
  H24      1.0000 0.17320  0.81740  0.48570  Biso   1.000  H
  C36      1.0000 0.55508  0.81040  0.80720  Biso   1.000  C
  H25      1.0000 0.55100  0.91910  0.85110  Biso   1.000  H
  C37      1.0000 0.59753  0.58260  0.72720  Biso   1.000  C
  H26      1.0000 0.63030  0.50010  0.70470  Biso   1.000  H
  C38      1.0000 0.52657  0.56430  0.69670  Biso   1.000  C
  H27      1.0000 0.50060  0.46990  0.64910  Biso   1.000  H
  C39      1.0000 0.29796  0.94180  0.89500  Biso   1.000  C
  Co4      1.0000 0.78383  0.35665  0.13723  Biso   1.000  Co
  O7       1.0000 0.81221  0.33520  0.98236  Biso   1.000  O
  O8       1.0000 0.76042  0.58530  0.88510  Biso   1.000  O
  N13      1.0000 0.77988  0.35480  0.48383  Biso   1.000  N
  N14      1.0000 0.75927  0.37850  0.29690  Biso   1.000  N
  N15      1.0000 0.99964  0.21020  0.74870  Biso   1.000  N
  N16      1.0000 0.11536  0.23920  0.79610  Biso   1.000  N
  C40      1.0000 0.81913  0.34170  0.59880  Biso   1.000  C
  C41      1.0000 0.88813  0.27290  0.61910  Biso   1.000  C
  H28      1.0000 0.90760  0.23200  0.55830  Biso   1.000  H
  C42      1.0000 0.92759  0.26570  0.72980  Biso   1.000  C
  C43      1.0000 0.89849  0.31600  0.82000  Biso   1.000  C
  H29      1.0000 0.92540  0.30500  0.89570  Biso   1.000  H
  C44      1.0000 0.82931  0.38270  0.79810  Biso   1.000  C
  C45      1.0000 0.78993  0.39910  0.68700  Biso   1.000  C
  H30      1.0000 0.74350  0.44920  0.67190  Biso   1.000  H
  C46      1.0000 0.80865  0.38260  0.39290  Biso   1.000  C
  H31      1.0000 0.85750  0.40230  0.39750  Biso   1.000  H
  C47      1.0000 0.69627  0.35120  0.32850  Biso   1.000  C
  H32      1.0000 0.65130  0.34380  0.27750  Biso   1.000  H
  C48      1.0000 0.70768  0.33640  0.44270  Biso   1.000  C
  H33      1.0000 0.67320  0.31740  0.48570  Biso   1.000  H
  C49      1.0000 0.05508  0.31040  0.80720  Biso   1.000  C
  H34      1.0000 0.05100  0.41910  0.85110  Biso   1.000  H
  C50      1.0000 0.09753  0.08260  0.72720  Biso   1.000  C
  H35      1.0000 0.13030  0.00010  0.70470  Biso   1.000  H
  C51      1.0000 0.02657  0.06430  0.69670  Biso   1.000  C
  H36      1.0000 0.00060  0.96990  0.64910  Biso   1.000  H
  C52      1.0000 0.79796  0.44180  0.89500  Biso   1.000  C
