data_image0
_cell_length_a       9.4778
_cell_length_b       11.0657
_cell_length_c       12.6936
_cell_angle_alpha    101.544
_cell_angle_beta     92.0654
_cell_angle_gamma    100.591

_symmetry_space_group_name_H-M    "P 1"
_symmetry_int_tables_number       1

loop_
  _symmetry_equiv_pos_as_xyz
  'x, y, z'

loop_
  _atom_site_label
  _atom_site_occupancy
  _atom_site_fract_x
  _atom_site_fract_y
  _atom_site_fract_z
  _atom_site_thermal_displace_type
  _atom_site_B_iso_or_equiv
  _atom_site_type_symbol
  Ni1      1.0000 0.16762  0.26634  0.45472  Biso   1.000  Ni
  O1       1.0000 0.17891  0.33750  0.33319  Biso   1.000  O
  O2       1.0000 0.94241  0.32701  0.34025  Biso   1.000  O
  O3       1.0000 0.98271  0.42277  0.57072  Biso   1.000  O
  O4       1.0000 0.84994  0.13530  0.39358  Biso   1.000  O
  N1       1.0000 0.39763  0.27416  0.46495  Biso   1.000  N
  C1       1.0000 0.47585  0.38077  0.55282  Biso   1.000  C
  C2       1.0000 0.43346  0.15698  0.49226  Biso   1.000  C
  C3       1.0000 0.46190  0.28903  0.36587  Biso   1.000  C
  C4       1.0000 0.05472  0.33326  0.28688  Biso   1.000  C
  C5       1.0000 0.02585  0.30700  0.16880  Biso   1.000  C
  C6       1.0000 0.13788  0.30878  0.09943  Biso   1.000  C
  C7       1.0000 0.10805  0.28107  0.98662  Biso   1.000  C
  C8       1.0000 0.21885  0.27357  0.91693  Biso   1.000  C
  C9       1.0000 0.88354  0.28607  0.12371  Biso   1.000  C
  C10      1.0000 0.10459  0.47049  0.54628  Biso   1.000  C
  C11      1.0000 0.09296  0.59148  0.51038  Biso   1.000  C
  C12      1.0000 0.97726  0.64690  0.53471  Biso   1.000  C
  C13      1.0000 0.96685  0.75185  0.49904  Biso   1.000  C
  C14      1.0000 0.84413  0.80617  0.51735  Biso   1.000  C
  C15      1.0000 0.21003  0.64331  0.46055  Biso   1.000  C
  Ni2      1.0000 0.90480  0.27367  0.47709  Biso   1.000  Ni
  O5       1.0000 0.89928  0.20551  0.59732  Biso   1.000  O
  O6       1.0000 0.13389  0.20893  0.58925  Biso   1.000  O
  O7       1.0000 0.07654  0.11792  0.35972  Biso   1.000  O
  O8       1.0000 0.20942  0.40232  0.54307  Biso   1.000  O
  N2       1.0000 0.68241  0.27989  0.47625  Biso   1.000  N
  C16      1.0000 0.63982  0.38541  0.56091  Biso   1.000  C
  C17      1.0000 0.59511  0.16591  0.49853  Biso   1.000  C
  C18      1.0000 0.62228  0.29490  0.37034  Biso   1.000  C
  C19      1.0000 0.02195  0.20694  0.64311  Biso   1.000  C
  C20      1.0000 0.04759  0.23516  0.76090  Biso   1.000  C
  C21      1.0000 0.93504  0.23866  0.83009  Biso   1.000  C
  C22      1.0000 0.96457  0.26022  0.94254  Biso   1.000  C
  C23      1.0000 0.85347  0.26307  0.01186  Biso   1.000  C
  C24      1.0000 0.18887  0.25014  0.80551  Biso   1.000  C
  C25      1.0000 0.95221  0.08188  0.38866  Biso   1.000  C
  C26      1.0000 0.94533  0.95598  0.42108  Biso   1.000  C
  C27      1.0000 0.06543  0.90795  0.40294  Biso   1.000  C
  C28      1.0000 0.08061  0.80479  0.44328  Biso   1.000  C
  C29      1.0000 0.20049  0.74998  0.42246  Biso   1.000  C
  C30      1.0000 0.83122  0.90868  0.47533  Biso   1.000  C
  H1       1.0000 0.24731  0.32445  0.13339  Biso   1.000  H
  H2       1.0000 0.32876  0.28590  0.94832  Biso   1.000  H
  H3       1.0000 0.79504  0.28629  0.17470  Biso   1.000  H
  H4       1.0000 0.82540  0.22791  0.79666  Biso   1.000  H
  H5       1.0000 0.74303  0.24300  0.97901  Biso   1.000  H
  H6       1.0000 0.27664  0.24580  0.75412  Biso   1.000  H
  H7       1.0000 0.89144  0.60419  0.58449  Biso   1.000  H
  H8       1.0000 0.75691  0.76471  0.56671  Biso   1.000  H
  H9       1.0000 0.30869  0.59768  0.45250  Biso   1.000  H
  H10      1.0000 0.15169  0.95324  0.35486  Biso   1.000  H
  H11      1.0000 0.28977  0.79176  0.37486  Biso   1.000  H
  H12      1.0000 0.73298  0.95489  0.48321  Biso   1.000  H
  H13      1.0000 0.43175  0.36886  0.63328  Biso   1.000  H
  H14      1.0000 0.45701  0.47402  0.53559  Biso   1.000  H
  H15      1.0000 0.38063  0.07214  0.42730  Biso   1.000  H
  H16      1.0000 0.39154  0.14542  0.57344  Biso   1.000  H
  H17      1.0000 0.43893  0.37910  0.34436  Biso   1.000  H
  H18      1.0000 0.41147  0.20615  0.29831  Biso   1.000  H
  H19      1.0000 0.69802  0.48042  0.54791  Biso   1.000  H
  H20      1.0000 0.67305  0.37467  0.64524  Biso   1.000  H
  H21      1.0000 0.63097  0.15647  0.58271  Biso   1.000  H
  H22      1.0000 0.61484  0.08056  0.43817  Biso   1.000  H
  H23      1.0000 0.64700  0.21735  0.30399  Biso   1.000  H
  H24      1.0000 0.67530  0.38997  0.35428  Biso   1.000  H
