data_image0
_cell_length_a       20.4051
_cell_length_b       16.4969
_cell_length_c       9.3469
_cell_angle_alpha    90
_cell_angle_beta     94.1221
_cell_angle_gamma    90

_symmetry_space_group_name_H-M    "P 1"
_symmetry_int_tables_number       1

loop_
  _symmetry_equiv_pos_as_xyz
  'x, y, z'

loop_
  _atom_site_label
  _atom_site_occupancy
  _atom_site_fract_x
  _atom_site_fract_y
  _atom_site_fract_z
  _atom_site_thermal_displace_type
  _atom_site_B_iso_or_equiv
  _atom_site_type_symbol
  O1       1.0000 0.31153  0.17296  0.40871  Biso   1.000  O
  O2       1.0000 0.18491  0.16981  0.62729  Biso   1.000  O
  O3       1.0000 0.18445  0.17090  0.38810  Biso   1.000  O
  O4       1.0000 0.32059  0.17510  0.64922  Biso   1.000  O
  C1       1.0000 0.15819  0.14783  0.50369  Biso   1.000  C
  C2       1.0000 0.10037  0.09762  0.48581  Biso   1.000  C
  C3       1.0000 0.06680  0.06204  0.59893  Biso   1.000  C
  H1       1.0000 0.08322  0.07594  0.70853  Biso   1.000  H
  C4       1.0000 0.39476  0.05575  0.37775  Biso   1.000  C
  H2       1.0000 0.35440  0.06846  0.30069  Biso   1.000  H
  C5       1.0000 0.97776  0.97445  0.68183  Biso   1.000  C
  H3       1.0000 0.99286  0.98845  0.79095  Biso   1.000  H
  C6       1.0000 0.01163  0.00879  0.57092  Biso   1.000  C
  H4       1.0000 0.33828  0.30293  0.14422  Biso   1.000  H
  H5       1.0000 0.34104  0.19660  0.89492  Biso   1.000  H
  C7       1.0000 0.34182  0.15043  0.52833  Biso   1.000  C
  C8       1.0000 0.39611  0.09175  0.51464  Biso   1.000  C
  C9       1.0000 0.45174  0.07328  0.60905  Biso   1.000  C
  H6       1.0000 0.45697  0.10317  0.71232  Biso   1.000  H
  C10      1.0000 0.07688  0.07689  0.34568  Biso   1.000  C
  H7       1.0000 0.10130  0.10046  0.25600  Biso   1.000  H
  C11      1.0000 0.44484  0.00335  0.33706  Biso   1.000  C
  H8       1.0000 0.44335  0.98140  0.22909  Biso   1.000  H
  C12      1.0000 0.50173  0.01785  0.56855  Biso   1.000  C
  C13      1.0000 0.21110  0.17773  0.08085  Biso   1.000  C
  H9       1.0000 0.23459  0.12142  0.12470  Biso   1.000  H
  H10      1.0000 0.15982  0.17498  0.11061  Biso   1.000  H
  C14      1.0000 0.21210  0.17814  0.90965  Biso   1.000  C
  H11      1.0000 0.16082  0.17680  0.86328  Biso   1.000  H
  H12      1.0000 0.23456  0.12145  0.87236  Biso   1.000  H
  O5       1.0000 0.68847  0.67296  0.59129  Biso   1.000  O
  O6       1.0000 0.81509  0.66981  0.37271  Biso   1.000  O
  O7       1.0000 0.81555  0.67090  0.61190  Biso   1.000  O
  O8       1.0000 0.67941  0.67510  0.35078  Biso   1.000  O
  C15      1.0000 0.84181  0.64783  0.49631  Biso   1.000  C
  C16      1.0000 0.89963  0.59762  0.51419  Biso   1.000  C
  C17      1.0000 0.93320  0.56204  0.40107  Biso   1.000  C
  H13      1.0000 0.91678  0.57594  0.29147  Biso   1.000  H
  C18      1.0000 0.60524  0.55575  0.62225  Biso   1.000  C
  H14      1.0000 0.64560  0.56846  0.69931  Biso   1.000  H
  C19      1.0000 0.02224  0.47445  0.31817  Biso   1.000  C
  H15      1.0000 0.00714  0.48845  0.20905  Biso   1.000  H
  C20      1.0000 0.98837  0.50879  0.42908  Biso   1.000  C
  H16      1.0000 0.66172  0.80293  0.85578  Biso   1.000  H
  H17      1.0000 0.65896  0.69660  0.10508  Biso   1.000  H
  C21      1.0000 0.65818  0.65043  0.47167  Biso   1.000  C
  C22      1.0000 0.60389  0.59175  0.48536  Biso   1.000  C
  C23      1.0000 0.54826  0.57328  0.39095  Biso   1.000  C
  H18      1.0000 0.54303  0.60317  0.28768  Biso   1.000  H
  C24      1.0000 0.92312  0.57689  0.65432  Biso   1.000  C
  H19      1.0000 0.89870  0.60046  0.74400  Biso   1.000  H
  C25      1.0000 0.55516  0.50335  0.66294  Biso   1.000  C
  H20      1.0000 0.55665  0.48140  0.77091  Biso   1.000  H
  C26      1.0000 0.49827  0.51785  0.43145  Biso   1.000  C
  C27      1.0000 0.78890  0.67773  0.91915  Biso   1.000  C
  H21      1.0000 0.76541  0.62142  0.87530  Biso   1.000  H
  H22      1.0000 0.84018  0.67498  0.88939  Biso   1.000  H
  C28      1.0000 0.78790  0.67814  0.09035  Biso   1.000  C
  H23      1.0000 0.83918  0.67680  0.13672  Biso   1.000  H
  H24      1.0000 0.76544  0.62145  0.12764  Biso   1.000  H
  O9       1.0000 0.68847  0.82704  0.59129  Biso   1.000  O
  O10      1.0000 0.81509  0.83019  0.37271  Biso   1.000  O
  O11      1.0000 0.81555  0.82910  0.61190  Biso   1.000  O
  O12      1.0000 0.67941  0.82490  0.35078  Biso   1.000  O
  C29      1.0000 0.84181  0.85217  0.49631  Biso   1.000  C
  C30      1.0000 0.89963  0.90238  0.51419  Biso   1.000  C
  C31      1.0000 0.93320  0.93796  0.40107  Biso   1.000  C
  H25      1.0000 0.91678  0.92406  0.29147  Biso   1.000  H
  C32      1.0000 0.60524  0.94425  0.62225  Biso   1.000  C
  H26      1.0000 0.64560  0.93154  0.69931  Biso   1.000  H
  C33      1.0000 0.02224  0.02555  0.31817  Biso   1.000  C
  H27      1.0000 0.00714  0.01155  0.20905  Biso   1.000  H
  C34      1.0000 0.98837  0.99121  0.42908  Biso   1.000  C
  H28      1.0000 0.66172  0.69707  0.85578  Biso   1.000  H
  H29      1.0000 0.65896  0.80340  0.10508  Biso   1.000  H
  C35      1.0000 0.65818  0.84957  0.47167  Biso   1.000  C
  C36      1.0000 0.60389  0.90825  0.48536  Biso   1.000  C
  C37      1.0000 0.54826  0.92672  0.39095  Biso   1.000  C
  H30      1.0000 0.54303  0.89683  0.28768  Biso   1.000  H
  C38      1.0000 0.92312  0.92311  0.65432  Biso   1.000  C
  H31      1.0000 0.89870  0.89954  0.74400  Biso   1.000  H
  C39      1.0000 0.55516  0.99665  0.66294  Biso   1.000  C
  H32      1.0000 0.55665  0.01860  0.77091  Biso   1.000  H
  C40      1.0000 0.49827  0.98215  0.43145  Biso   1.000  C
  C41      1.0000 0.78890  0.82227  0.91915  Biso   1.000  C
  H33      1.0000 0.76541  0.87858  0.87530  Biso   1.000  H
  H34      1.0000 0.84018  0.82502  0.88939  Biso   1.000  H
  C42      1.0000 0.78790  0.82186  0.09035  Biso   1.000  C
  H35      1.0000 0.83918  0.82320  0.13672  Biso   1.000  H
  H36      1.0000 0.76544  0.87855  0.12764  Biso   1.000  H
  O13      1.0000 0.31153  0.32704  0.40871  Biso   1.000  O
  O14      1.0000 0.18491  0.33019  0.62729  Biso   1.000  O
  O15      1.0000 0.18445  0.32910  0.38810  Biso   1.000  O
  O16      1.0000 0.32059  0.32490  0.64922  Biso   1.000  O
  C43      1.0000 0.15819  0.35217  0.50369  Biso   1.000  C
  C44      1.0000 0.10037  0.40238  0.48581  Biso   1.000  C
  C45      1.0000 0.06680  0.43796  0.59893  Biso   1.000  C
  H37      1.0000 0.08322  0.42406  0.70853  Biso   1.000  H
  C46      1.0000 0.39476  0.44425  0.37775  Biso   1.000  C
  H38      1.0000 0.35440  0.43154  0.30069  Biso   1.000  H
  C47      1.0000 0.97776  0.52555  0.68183  Biso   1.000  C
  H39      1.0000 0.99286  0.51155  0.79095  Biso   1.000  H
  C48      1.0000 0.01163  0.49121  0.57092  Biso   1.000  C
  H40      1.0000 0.33828  0.19707  0.14422  Biso   1.000  H
  H41      1.0000 0.34104  0.30340  0.89492  Biso   1.000  H
  C49      1.0000 0.34182  0.34957  0.52833  Biso   1.000  C
  C50      1.0000 0.39611  0.40825  0.51464  Biso   1.000  C
  C51      1.0000 0.45174  0.42672  0.60905  Biso   1.000  C
  H42      1.0000 0.45697  0.39683  0.71232  Biso   1.000  H
  C52      1.0000 0.07688  0.42311  0.34568  Biso   1.000  C
  H43      1.0000 0.10130  0.39954  0.25600  Biso   1.000  H
  C53      1.0000 0.44484  0.49665  0.33706  Biso   1.000  C
  H44      1.0000 0.44335  0.51860  0.22909  Biso   1.000  H
  C54      1.0000 0.50173  0.48215  0.56855  Biso   1.000  C
  C55      1.0000 0.21110  0.32227  0.08085  Biso   1.000  C
  H45      1.0000 0.23459  0.37858  0.12470  Biso   1.000  H
  H46      1.0000 0.15982  0.32502  0.11061  Biso   1.000  H
  C56      1.0000 0.21210  0.32186  0.90965  Biso   1.000  C
  H47      1.0000 0.16082  0.32320  0.86328  Biso   1.000  H
  H48      1.0000 0.23456  0.37855  0.87236  Biso   1.000  H
  Ni1      1.0000 0.25177  0.25000  0.63725  Biso   1.000  Ni
  Ni2      1.0000 0.25009  0.25000  0.39237  Biso   1.000  Ni
  N1       1.0000 0.24650  0.25000  0.85199  Biso   1.000  N
  N2       1.0000 0.24362  0.25000  0.15064  Biso   1.000  N
  C57      1.0000 0.31115  0.25000  0.09954  Biso   1.000  C
  C58      1.0000 0.31301  0.25000  0.92841  Biso   1.000  C
  Ni3      1.0000 0.74823  0.75000  0.36275  Biso   1.000  Ni
  Ni4      1.0000 0.74991  0.75000  0.60763  Biso   1.000  Ni
  N3       1.0000 0.75350  0.75000  0.14801  Biso   1.000  N
  N4       1.0000 0.75638  0.75000  0.84936  Biso   1.000  N
  C59      1.0000 0.68885  0.75000  0.90046  Biso   1.000  C
  C60      1.0000 0.68699  0.75000  0.07159  Biso   1.000  C
