data_image0
_cell_length_a       15.189
_cell_length_b       15.232
_cell_length_c       23.855
_cell_angle_alpha    85.89
_cell_angle_beta     79.971
_cell_angle_gamma    86.842

_symmetry_space_group_name_H-M    "P 1"
_symmetry_int_tables_number       1

loop_
  _symmetry_equiv_pos_as_xyz
  'x, y, z'

loop_
  _atom_site_label
  _atom_site_occupancy
  _atom_site_fract_x
  _atom_site_fract_y
  _atom_site_fract_z
  _atom_site_thermal_displace_type
  _atom_site_B_iso_or_equiv
  _atom_site_type_symbol
  C1       1.0000 0.50060  0.01000  0.77610  Biso   1.000  C
  C2       1.0000 0.59980  0.99050  0.75190  Biso   1.000  C
  C3       1.0000 0.62330  0.93900  0.70670  Biso   1.000  C
  H1       1.0000 0.57990  0.91040  0.69280  Biso   1.000  H
  C4       1.0000 0.71210  0.92990  0.68190  Biso   1.000  C
  H2       1.0000 0.72740  0.89560  0.65060  Biso   1.000  H
  C5       1.0000 0.77890  0.96980  0.70170  Biso   1.000  C
  C6       1.0000 0.75570  0.01800  0.74960  Biso   1.000  C
  H3       1.0000 0.80010  0.04110  0.76570  Biso   1.000  H
  C7       1.0000 0.66590  0.03200  0.77370  Biso   1.000  C
  H4       1.0000 0.65000  0.06850  0.80390  Biso   1.000  H
  C8       1.0000 0.93110  0.00840  0.69010  Biso   1.000  C
  C9       1.0000 0.99910  0.96750  0.70940  Biso   1.000  C
  H5       1.0000 0.00120  0.90640  0.71520  Biso   1.000  H
  C10      1.0000 0.06640  0.01490  0.72070  Biso   1.000  C
  H6       1.0000 0.11430  0.98470  0.73410  Biso   1.000  H
  C11      1.0000 0.06720  0.10320  0.71350  Biso   1.000  C
  C12      1.0000 0.99510  0.14370  0.69210  Biso   1.000  C
  H7       1.0000 0.99280  0.20460  0.68540  Biso   1.000  H
  C13      1.0000 0.92790  0.09710  0.68060  Biso   1.000  C
  H8       1.0000 0.88000  0.12560  0.66630  Biso   1.000  H
  C14      1.0000 0.13790  0.15430  0.73020  Biso   1.000  C
  C15      1.0000 0.32590  0.97610  0.68090  Biso   1.000  C
  C16      1.0000 0.32300  0.93160  0.62790  Biso   1.000  C
  C17      1.0000 0.27090  0.86290  0.62870  Biso   1.000  C
  H9       1.0000 0.23850  0.84120  0.66320  Biso   1.000  H
  C18      1.0000 0.26490  0.82480  0.58000  Biso   1.000  C
  H10      1.0000 0.22710  0.77850  0.58100  Biso   1.000  H
  C19      1.0000 0.31440  0.85440  0.52950  Biso   1.000  C
  C20      1.0000 0.36600  0.92070  0.52570  Biso   1.000  C
  H11      1.0000 0.39730  0.94120  0.49060  Biso   1.000  H
  C21      1.0000 0.37350  0.96030  0.57550  Biso   1.000  C
  H12      1.0000 0.41230  0.00590  0.57390  Biso   1.000  H
  C22      1.0000 0.37970  0.79950  0.44250  Biso   1.000  C
  C23      1.0000 0.45120  0.74780  0.45980  Biso   1.000  C
  H13      1.0000 0.44790  0.72500  0.49730  Biso   1.000  H
  C24      1.0000 0.52460  0.73220  0.42040  Biso   1.000  C
  H14      1.0000 0.57150  0.69720  0.43150  Biso   1.000  H
  C25      1.0000 0.53350  0.76560  0.36450  Biso   1.000  C
  C26      1.0000 0.46200  0.81310  0.35020  Biso   1.000  C
  H15      1.0000 0.46620  0.83590  0.31270  Biso   1.000  H
  C27      1.0000 0.38170  0.83090  0.38760  Biso   1.000  C
  H16      1.0000 0.33320  0.86200  0.37560  Biso   1.000  H
  C28      1.0000 0.61880  0.74810  0.32510  Biso   1.000  C
  C29      1.0000 0.29930  0.93900  0.88950  Biso   1.000  C
  C30      1.0000 0.26610  0.96520  0.94870  Biso   1.000  C
  C31      1.0000 0.29150  0.91400  0.99300  Biso   1.000  C
  H17      1.0000 0.32630  0.86250  0.98590  Biso   1.000  H
  C32      1.0000 0.26510  0.93880  0.04890  Biso   1.000  C
  H18      1.0000 0.28230  0.90410  0.07910  Biso   1.000  H
  C33      1.0000 0.21330  0.01530  0.05890  Biso   1.000  C
  C34      1.0000 0.18710  0.06700  0.01530  Biso   1.000  C
  H19      1.0000 0.15330  0.11900  0.02250  Biso   1.000  H
  C35      1.0000 0.21210  0.04070  0.95920  Biso   1.000  C
  H20      1.0000 0.19240  0.07400  0.92910  Biso   1.000  H
  C36      1.0000 0.10940  0.08160  0.13130  Biso   1.000  C
  C37      1.0000 0.03220  0.04390  0.12790  Biso   1.000  C
  H21      1.0000 0.03270  0.98920  0.11280  Biso   1.000  H
  C38      1.0000 0.95080  0.08960  0.14780  Biso   1.000  C
  H22      1.0000 0.89700  0.06550  0.14490  Biso   1.000  H
  C39      1.0000 0.94990  0.16900  0.17120  Biso   1.000  C
  C40      1.0000 0.03070  0.20470  0.17290  Biso   1.000  C
  H23      1.0000 0.03140  0.25890  0.18850  Biso   1.000  H
  C41      1.0000 0.10990  0.16170  0.15220  Biso   1.000  C
  H24      1.0000 0.16390  0.18760  0.15240  Biso   1.000  H
  C42      1.0000 0.86330  0.21280  0.19680  Biso   1.000  C
  C43      1.0000 0.27490  0.65570  0.87760  Biso   1.000  C
  C44      1.0000 0.29670  0.66660  0.93470  Biso   1.000  C
  C45      1.0000 0.22900  0.66630  0.98170  Biso   1.000  C
  H25      1.0000 0.17020  0.65960  0.97720  Biso   1.000  H
  C46      1.0000 0.24850  0.67580  0.03420  Biso   1.000  C
  H26      1.0000 0.20330  0.67370  0.06600  Biso   1.000  H
  C47      1.0000 0.33440  0.68840  0.04070  Biso   1.000  C
  C48      1.0000 0.40590  0.68920  0.99540  Biso   1.000  C
  H27      1.0000 0.46440  0.69560  0.00080  Biso   1.000  H
  C49      1.0000 0.38500  0.67990  0.94200  Biso   1.000  C
  H28      1.0000 0.43020  0.68260  0.91020  Biso   1.000  H
  C50      1.0000 0.41880  0.66880  0.11780  Biso   1.000  C
  C51      1.0000 0.44960  0.58540  0.10870  Biso   1.000  C
  H29      1.0000 0.42660  0.55260  0.08360  Biso   1.000  H
  C52      1.0000 0.51590  0.54970  0.13740  Biso   1.000  C
  H30      1.0000 0.53680  0.49170  0.13220  Biso   1.000  H
  C53      1.0000 0.55260  0.59990  0.17470  Biso   1.000  C
  C54      1.0000 0.52030  0.68600  0.17980  Biso   1.000  C
  H31      1.0000 0.54510  0.72090  0.20290  Biso   1.000  H
  C55      1.0000 0.45430  0.72220  0.15290  Biso   1.000  C
  H32      1.0000 0.43340  0.78020  0.15760  Biso   1.000  H
  C56      1.0000 0.62730  0.56200  0.20500  Biso   1.000  C
  C57      1.0000 0.23510  0.56190  0.65780  Biso   1.000  C
  C58      1.0000 0.25980  0.55050  0.59460  Biso   1.000  C
  C59      1.0000 0.32780  0.49230  0.57380  Biso   1.000  C
  H33      1.0000 0.35830  0.45880  0.59900  Biso   1.000  H
  C60      1.0000 0.35140  0.48260  0.51660  Biso   1.000  C
  H34      1.0000 0.39940  0.44500  0.50300  Biso   1.000  H
  C61      1.0000 0.30410  0.52840  0.47950  Biso   1.000  C
  C62      1.0000 0.23470  0.58740  0.49790  Biso   1.000  C
  H35      1.0000 0.20310  0.61940  0.47260  Biso   1.000  H
  C63      1.0000 0.21460  0.59630  0.55650  Biso   1.000  C
  H36      1.0000 0.16800  0.63540  0.57040  Biso   1.000  H
  C64      1.0000 0.38220  0.45820  0.39850  Biso   1.000  C
  C65      1.0000 0.37060  0.36890  0.40140  Biso   1.000  C
  H37      1.0000 0.31860  0.34650  0.42290  Biso   1.000  H
  C66      1.0000 0.43350  0.31260  0.37360  Biso   1.000  C
  H38      1.0000 0.42360  0.25260  0.37630  Biso   1.000  H
  C67      1.0000 0.51040  0.34280  0.34200  Biso   1.000  C
  C68      1.0000 0.52490  0.42990  0.33750  Biso   1.000  C
  H39      1.0000 0.57690  0.45150  0.31560  Biso   1.000  H
  C69      1.0000 0.45820  0.48830  0.36720  Biso   1.000  C
  H40      1.0000 0.46770  0.54830  0.36470  Biso   1.000  H
  C70      1.0000 0.57360  0.28230  0.30720  Biso   1.000  C
  C71      1.0000 0.06470  0.46090  0.79630  Biso   1.000  C
  C72      1.0000 0.98590  0.49540  0.83510  Biso   1.000  C
  C73      1.0000 0.90250  0.46830  0.83060  Biso   1.000  C
  H41      1.0000 0.89690  0.42940  0.80320  Biso   1.000  H
  C74      1.0000 0.82860  0.49780  0.86570  Biso   1.000  C
  H42      1.0000 0.77270  0.47910  0.86200  Biso   1.000  H
  C75      1.0000 0.83520  0.55600  0.90740  Biso   1.000  C
  C76      1.0000 0.91810  0.58520  0.91170  Biso   1.000  C
  H43      1.0000 0.92340  0.62470  0.93870  Biso   1.000  H
  C77      1.0000 0.99240  0.55540  0.87570  Biso   1.000  C
  H44      1.0000 0.04820  0.57560  0.87830  Biso   1.000  H
  C78      1.0000 0.75190  0.62190  0.99140  Biso   1.000  C
  C79      1.0000 0.70920  0.70050  0.99940  Biso   1.000  C
  H45      1.0000 0.68100  0.72860  0.97100  Biso   1.000  H
  C80      1.0000 0.70750  0.73940  0.05020  Biso   1.000  C
  H46      1.0000 0.67710  0.79360  0.05600  Biso   1.000  H
  C81      1.0000 0.74990  0.69930  0.09210  Biso   1.000  C
  C82      1.0000 0.78930  0.61720  0.08400  Biso   1.000  C
  H47      1.0000 0.81550  0.58780  0.11290  Biso   1.000  H
  C83      1.0000 0.79060  0.57690  0.03330  Biso   1.000  C
  H48      1.0000 0.81710  0.52090  0.02800  Biso   1.000  H
  C84      1.0000 0.75200  0.74350  0.14720  Biso   1.000  C
  Dy1      1.0000 0.32704  0.08712  0.77615  Biso   1.000  Dy
  Dy2      1.0000 0.35613  0.83129  0.78788  Biso   1.000  Dy
  Dy3      1.0000 0.24010  0.60743  0.77000  Biso   1.000  Dy
  Dy4      1.0000 0.21394  0.36015  0.73125  Biso   1.000  Dy
  O1       1.0000 0.47630  0.08230  0.79850  Biso   1.000  O
  O2       1.0000 0.44280  0.95630  0.76960  Biso   1.000  O
  O3       1.0000 0.86470  0.95810  0.67630  Biso   1.000  O
  O4       1.0000 0.14110  0.23500  0.71380  Biso   1.000  O
  O5       1.0000 0.19150  0.11290  0.75940  Biso   1.000  O
  O6       1.0000 0.35850  0.05040  0.67870  Biso   1.000  O
  O7       1.0000 0.29450  0.93850  0.72920  Biso   1.000  O
  O8       1.0000 0.30380  0.81650  0.48080  Biso   1.000  O
  O9       1.0000 0.62840  0.78770  0.27550  Biso   1.000  O
  O10      1.0000 0.67650  0.69210  0.34020  Biso   1.000  O
  O11      1.0000 0.27800  0.98970  0.84900  Biso   1.000  O
  O12      1.0000 0.34350  0.86810  0.88130  Biso   1.000  O
  O13      1.0000 0.19180  0.04030  0.11450  Biso   1.000  O
  O14      1.0000 0.86790  0.28400  0.21860  Biso   1.000  O
  O15      1.0000 0.79420  0.17540  0.19120  Biso   1.000  O
  O16      1.0000 0.32420  0.69150  0.83330  Biso   1.000  O
  O17      1.0000 0.20900  0.61420  0.87170  Biso   1.000  O
  O18      1.0000 0.34600  0.70790  0.09450  Biso   1.000  O
  O19      1.0000 0.65990  0.61140  0.23440  Biso   1.000  O
  O20      1.0000 0.64940  0.48260  0.20080  Biso   1.000  O
  O21      1.0000 0.18990  0.62790  0.67550  Biso   1.000  O
  O22      1.0000 0.26550  0.50300  0.69170  Biso   1.000  O
  O23      1.0000 0.31980  0.52160  0.42130  Biso   1.000  O
  O24      1.0000 0.64930  0.30790  0.28300  Biso   1.000  O
  O25      1.0000 0.55260  0.20670  0.30090  Biso   1.000  O
  O26      1.0000 0.14110  0.49530  0.79480  Biso   1.000  O
  O27      1.0000 0.06020  0.39660  0.76930  Biso   1.000  O
  O28      1.0000 0.75240  0.58520  0.93900  Biso   1.000  O
  O29      1.0000 0.79870  0.70930  0.17990  Biso   1.000  O
  O30      1.0000 0.70630  0.81480  0.15390  Biso   1.000  O
  C85      1.0000 0.49940  0.99000  0.22390  Biso   1.000  C
  C86      1.0000 0.40020  0.00950  0.24810  Biso   1.000  C
  C87      1.0000 0.37670  0.06100  0.29330  Biso   1.000  C
  H49      1.0000 0.42010  0.08960  0.30720  Biso   1.000  H
  C88      1.0000 0.28790  0.07010  0.31810  Biso   1.000  C
  H50      1.0000 0.27260  0.10440  0.34940  Biso   1.000  H
  C89      1.0000 0.22110  0.03020  0.29830  Biso   1.000  C
  C90      1.0000 0.24430  0.98200  0.25040  Biso   1.000  C
  H51      1.0000 0.19990  0.95890  0.23430  Biso   1.000  H
  C91      1.0000 0.33410  0.96800  0.22630  Biso   1.000  C
  H52      1.0000 0.35000  0.93150  0.19610  Biso   1.000  H
  C92      1.0000 0.06890  0.99160  0.30990  Biso   1.000  C
  C93      1.0000 0.00090  0.03250  0.29060  Biso   1.000  C
  H53      1.0000 0.99880  0.09360  0.28480  Biso   1.000  H
  C94      1.0000 0.93360  0.98510  0.27930  Biso   1.000  C
  H54      1.0000 0.88570  0.01530  0.26590  Biso   1.000  H
  C95      1.0000 0.93280  0.89680  0.28650  Biso   1.000  C
  C96      1.0000 0.00490  0.85630  0.30790  Biso   1.000  C
  H55      1.0000 0.00720  0.79540  0.31460  Biso   1.000  H
  C97      1.0000 0.07210  0.90290  0.31940  Biso   1.000  C
  H56      1.0000 0.12000  0.87440  0.33370  Biso   1.000  H
  C98      1.0000 0.86210  0.84570  0.26980  Biso   1.000  C
  C99      1.0000 0.67410  0.02390  0.31910  Biso   1.000  C
  C100     1.0000 0.67700  0.06840  0.37210  Biso   1.000  C
  C101     1.0000 0.72910  0.13710  0.37130  Biso   1.000  C
  H57      1.0000 0.76150  0.15880  0.33680  Biso   1.000  H
  C102     1.0000 0.73510  0.17520  0.42000  Biso   1.000  C
  H58      1.0000 0.77290  0.22150  0.41900  Biso   1.000  H
  C103     1.0000 0.68560  0.14560  0.47050  Biso   1.000  C
  C104     1.0000 0.63400  0.07930  0.47430  Biso   1.000  C
  H59      1.0000 0.60270  0.05880  0.50940  Biso   1.000  H
  C105     1.0000 0.62650  0.03970  0.42450  Biso   1.000  C
  H60      1.0000 0.58770  0.99410  0.42610  Biso   1.000  H
  C106     1.0000 0.62030  0.20050  0.55750  Biso   1.000  C
  C107     1.0000 0.54880  0.25220  0.54020  Biso   1.000  C
  H61      1.0000 0.55210  0.27500  0.50270  Biso   1.000  H
  C108     1.0000 0.47540  0.26780  0.57960  Biso   1.000  C
  H62      1.0000 0.42850  0.30280  0.56850  Biso   1.000  H
  C109     1.0000 0.46650  0.23440  0.63550  Biso   1.000  C
  C110     1.0000 0.53800  0.18690  0.64980  Biso   1.000  C
  H63      1.0000 0.53380  0.16410  0.68730  Biso   1.000  H
  C111     1.0000 0.61830  0.16910  0.61240  Biso   1.000  C
  H64      1.0000 0.66680  0.13800  0.62440  Biso   1.000  H
  C112     1.0000 0.38120  0.25190  0.67490  Biso   1.000  C
  C113     1.0000 0.70070  0.06100  0.11050  Biso   1.000  C
  C114     1.0000 0.73390  0.03480  0.05130  Biso   1.000  C
  C115     1.0000 0.70850  0.08600  0.00700  Biso   1.000  C
  H65      1.0000 0.67370  0.13750  0.01410  Biso   1.000  H
  C116     1.0000 0.73490  0.06120  0.95110  Biso   1.000  C
  H66      1.0000 0.71770  0.09590  0.92090  Biso   1.000  H
  C117     1.0000 0.78670  0.98470  0.94110  Biso   1.000  C
  C118     1.0000 0.81290  0.93300  0.98470  Biso   1.000  C
  H67      1.0000 0.84670  0.88100  0.97750  Biso   1.000  H
  C119     1.0000 0.78790  0.95930  0.04080  Biso   1.000  C
  H68      1.0000 0.80760  0.92600  0.07090  Biso   1.000  H
  C120     1.0000 0.89060  0.91840  0.86870  Biso   1.000  C
  C121     1.0000 0.96780  0.95610  0.87210  Biso   1.000  C
  H69      1.0000 0.96730  0.01080  0.88720  Biso   1.000  H
  C122     1.0000 0.04920  0.91040  0.85220  Biso   1.000  C
  H70      1.0000 0.10300  0.93450  0.85510  Biso   1.000  H
  C123     1.0000 0.05010  0.83100  0.82880  Biso   1.000  C
  C124     1.0000 0.96930  0.79530  0.82710  Biso   1.000  C
  H71      1.0000 0.96860  0.74110  0.81150  Biso   1.000  H
  C125     1.0000 0.89010  0.83830  0.84780  Biso   1.000  C
  H72      1.0000 0.83610  0.81240  0.84760  Biso   1.000  H
  C126     1.0000 0.13670  0.78720  0.80320  Biso   1.000  C
  C127     1.0000 0.72510  0.34430  0.12240  Biso   1.000  C
  C128     1.0000 0.70330  0.33340  0.06530  Biso   1.000  C
  C129     1.0000 0.77100  0.33370  0.01830  Biso   1.000  C
  H73      1.0000 0.82980  0.34040  0.02280  Biso   1.000  H
  C130     1.0000 0.75150  0.32420  0.96580  Biso   1.000  C
  H74      1.0000 0.79670  0.32630  0.93400  Biso   1.000  H
  C131     1.0000 0.66560  0.31160  0.95930  Biso   1.000  C
  C132     1.0000 0.59410  0.31080  0.00460  Biso   1.000  C
  H75      1.0000 0.53560  0.30440  0.99920  Biso   1.000  H
  C133     1.0000 0.61500  0.32010  0.05800  Biso   1.000  C
  H76      1.0000 0.56980  0.31740  0.08980  Biso   1.000  H
  C134     1.0000 0.58120  0.33120  0.88220  Biso   1.000  C
  C135     1.0000 0.55040  0.41460  0.89130  Biso   1.000  C
  H77      1.0000 0.57340  0.44740  0.91640  Biso   1.000  H
  C136     1.0000 0.48410  0.45030  0.86260  Biso   1.000  C
  H78      1.0000 0.46320  0.50830  0.86780  Biso   1.000  H
  C137     1.0000 0.44740  0.40010  0.82530  Biso   1.000  C
  C138     1.0000 0.47970  0.31400  0.82020  Biso   1.000  C
  H79      1.0000 0.45490  0.27910  0.79710  Biso   1.000  H
  C139     1.0000 0.54570  0.27780  0.84710  Biso   1.000  C
  H80      1.0000 0.56660  0.21980  0.84240  Biso   1.000  H
  C140     1.0000 0.37270  0.43800  0.79500  Biso   1.000  C
  C141     1.0000 0.76490  0.43810  0.34220  Biso   1.000  C
  C142     1.0000 0.74020  0.44950  0.40540  Biso   1.000  C
  C143     1.0000 0.67220  0.50770  0.42620  Biso   1.000  C
  H81      1.0000 0.64170  0.54120  0.40100  Biso   1.000  H
  C144     1.0000 0.64860  0.51740  0.48340  Biso   1.000  C
  H82      1.0000 0.60060  0.55500  0.49700  Biso   1.000  H
  C145     1.0000 0.69590  0.47160  0.52050  Biso   1.000  C
  C146     1.0000 0.76530  0.41260  0.50210  Biso   1.000  C
  H83      1.0000 0.79690  0.38060  0.52740  Biso   1.000  H
  C147     1.0000 0.78540  0.40370  0.44350  Biso   1.000  C
  H84      1.0000 0.83200  0.36460  0.42960  Biso   1.000  H
  C148     1.0000 0.61780  0.54180  0.60150  Biso   1.000  C
  C149     1.0000 0.62940  0.63110  0.59860  Biso   1.000  C
  H85      1.0000 0.68140  0.65350  0.57710  Biso   1.000  H
  C150     1.0000 0.56650  0.68740  0.62640  Biso   1.000  C
  H86      1.0000 0.57640  0.74740  0.62370  Biso   1.000  H
  C151     1.0000 0.48960  0.65720  0.65800  Biso   1.000  C
  C152     1.0000 0.47510  0.57010  0.66250  Biso   1.000  C
  H87      1.0000 0.42310  0.54850  0.68440  Biso   1.000  H
  C153     1.0000 0.54180  0.51170  0.63280  Biso   1.000  C
  H88      1.0000 0.53230  0.45170  0.63530  Biso   1.000  H
  C154     1.0000 0.42640  0.71770  0.69280  Biso   1.000  C
  C155     1.0000 0.93530  0.53910  0.20370  Biso   1.000  C
  C156     1.0000 0.01410  0.50460  0.16490  Biso   1.000  C
  C157     1.0000 0.09750  0.53170  0.16940  Biso   1.000  C
  H89      1.0000 0.10310  0.57060  0.19680  Biso   1.000  H
  C158     1.0000 0.17140  0.50220  0.13430  Biso   1.000  C
  H90      1.0000 0.22730  0.52090  0.13800  Biso   1.000  H
  C159     1.0000 0.16480  0.44400  0.09260  Biso   1.000  C
  C160     1.0000 0.08190  0.41480  0.08830  Biso   1.000  C
  H91      1.0000 0.07660  0.37530  0.06130  Biso   1.000  H
  C161     1.0000 0.00760  0.44460  0.12430  Biso   1.000  C
  H92      1.0000 0.95180  0.42440  0.12170  Biso   1.000  H
  C162     1.0000 0.24810  0.37810  0.00860  Biso   1.000  C
  C163     1.0000 0.29080  0.29950  0.00060  Biso   1.000  C
  H93      1.0000 0.31900  0.27140  0.02900  Biso   1.000  H
  C164     1.0000 0.29250  0.26060  0.94980  Biso   1.000  C
  H94      1.0000 0.32290  0.20640  0.94400  Biso   1.000  H
  C165     1.0000 0.25010  0.30070  0.90790  Biso   1.000  C
  C166     1.0000 0.21070  0.38280  0.91600  Biso   1.000  C
  H95      1.0000 0.18450  0.41220  0.88710  Biso   1.000  H
  C167     1.0000 0.20940  0.42310  0.96670  Biso   1.000  C
  H96      1.0000 0.18290  0.47910  0.97200  Biso   1.000  H
  C168     1.0000 0.24800  0.25650  0.85280  Biso   1.000  C
  Dy5      1.0000 0.67296  0.91288  0.22385  Biso   1.000  Dy
  Dy6      1.0000 0.64387  0.16871  0.21212  Biso   1.000  Dy
  Dy7      1.0000 0.75990  0.39257  0.23000  Biso   1.000  Dy
  Dy8      1.0000 0.78606  0.63985  0.26875  Biso   1.000  Dy
  O31      1.0000 0.52370  0.91770  0.20150  Biso   1.000  O
  O32      1.0000 0.55720  0.04370  0.23040  Biso   1.000  O
  O33      1.0000 0.13530  0.04190  0.32370  Biso   1.000  O
  O34      1.0000 0.85890  0.76500  0.28620  Biso   1.000  O
  O35      1.0000 0.80850  0.88710  0.24060  Biso   1.000  O
  O36      1.0000 0.64150  0.94960  0.32130  Biso   1.000  O
  O37      1.0000 0.70550  0.06150  0.27080  Biso   1.000  O
  O38      1.0000 0.69620  0.18350  0.51920  Biso   1.000  O
  O39      1.0000 0.37160  0.21230  0.72450  Biso   1.000  O
  O40      1.0000 0.32350  0.30790  0.65980  Biso   1.000  O
  O41      1.0000 0.72200  0.01030  0.15100  Biso   1.000  O
  O42      1.0000 0.65650  0.13190  0.11870  Biso   1.000  O
  O43      1.0000 0.80820  0.95970  0.88550  Biso   1.000  O
  O44      1.0000 0.13210  0.71600  0.78140  Biso   1.000  O
  O45      1.0000 0.20580  0.82460  0.80880  Biso   1.000  O
  O46      1.0000 0.67580  0.30850  0.16670  Biso   1.000  O
  O47      1.0000 0.79100  0.38580  0.12830  Biso   1.000  O
  O48      1.0000 0.65400  0.29210  0.90550  Biso   1.000  O
  O49      1.0000 0.34010  0.38860  0.76560  Biso   1.000  O
  O50      1.0000 0.35060  0.51740  0.79920  Biso   1.000  O
  O51      1.0000 0.81010  0.37210  0.32450  Biso   1.000  O
  O52      1.0000 0.73450  0.49700  0.30830  Biso   1.000  O
  O53      1.0000 0.68020  0.47840  0.57870  Biso   1.000  O
  O54      1.0000 0.35070  0.69210  0.71700  Biso   1.000  O
  O55      1.0000 0.44740  0.79330  0.69910  Biso   1.000  O
  O56      1.0000 0.85890  0.50470  0.20520  Biso   1.000  O
  O57      1.0000 0.93980  0.60340  0.23070  Biso   1.000  O
  O58      1.0000 0.24760  0.41480  0.06100  Biso   1.000  O
  O59      1.0000 0.20130  0.29070  0.82010  Biso   1.000  O
  O60      1.0000 0.29370  0.18520  0.84610  Biso   1.000  O
