data_image0
_cell_length_a       14.626
_cell_length_b       15.297
_cell_length_c       23.009
_cell_angle_alpha    84.817
_cell_angle_beta     83.605
_cell_angle_gamma    86.488

_symmetry_space_group_name_H-M    "P 1"
_symmetry_int_tables_number       1

loop_
  _symmetry_equiv_pos_as_xyz
  'x, y, z'

loop_
  _atom_site_label
  _atom_site_occupancy
  _atom_site_fract_x
  _atom_site_fract_y
  _atom_site_fract_z
  _atom_site_thermal_displace_type
  _atom_site_B_iso_or_equiv
  _atom_site_type_symbol
  Gd1      1.0000 0.18242  0.87077  0.71779  Biso   1.000  Gd
  Gd2      1.0000 0.20964  0.11946  0.75979  Biso   1.000  Gd
  Gd3      1.0000 0.32985  0.33278  0.77277  Biso   1.000  Gd
  Gd4      1.0000 0.29343  0.59771  0.76450  Biso   1.000  Gd
  O1       1.0000 0.24070  0.02020  0.67999  Biso   1.000  O
  C1       1.0000 0.21320  0.07760  0.64070  Biso   1.000  C
  C2       1.0000 0.24350  0.06490  0.57790  Biso   1.000  C
  C3       1.0000 0.32060  0.01130  0.56310  Biso   1.000  C
  H1       1.0000 0.35210  0.98220  0.59270  Biso   1.000  H
  C4       1.0000 0.19570  0.10610  0.53360  Biso   1.000  C
  H2       1.0000 0.14370  0.14220  0.54310  Biso   1.000  H
  C5       1.0000 0.30200  0.04060  0.46160  Biso   1.000  C
  C6       1.0000 0.35160  0.00020  0.50500  Biso   1.000  C
  H3       1.0000 0.40510  0.96610  0.49540  Biso   1.000  H
  C7       1.0000 0.22400  0.09420  0.47570  Biso   1.000  C
  H4       1.0000 0.19120  0.12190  0.44630  Biso   1.000  H
  O2       1.0000 0.32720  0.03260  0.40230  Biso   1.000  O
  O3       1.0000 0.26030  0.45080  0.71409  Biso   1.000  O
  O4       1.0000 0.32550  0.56530  0.66360  Biso   1.000  O
  O5       1.0000 0.30980  0.30590  0.46260  Biso   1.000  O
  C8       1.0000 0.29720  0.44350  0.61140  Biso   1.000  C
  C9       1.0000 0.29270  0.49020  0.66520  Biso   1.000  C
  C10      1.0000 0.24370  0.37260  0.60880  Biso   1.000  C
  H5       1.0000 0.20350  0.35510  0.64140  Biso   1.000  H
  C11      1.0000 0.30770  0.35220  0.51190  Biso   1.000  C
  C12      1.0000 0.24800  0.32770  0.55990  Biso   1.000  C
  H6       1.0000 0.21060  0.28080  0.55910  Biso   1.000  H
  C13      1.0000 0.35490  0.46940  0.56180  Biso   1.000  C
  H7       1.0000 0.39000  0.51810  0.56180  Biso   1.000  H
  C14      1.0000 0.36090  0.42350  0.51210  Biso   1.000  C
  H8       1.0000 0.40060  0.44070  0.47920  Biso   1.000  H
  C15      1.0000 0.47600  0.51740  0.76240  Biso   1.000  C
  C16      1.0000 0.58110  0.45690  0.68130  Biso   1.000  C
  H9       1.0000 0.53070  0.43130  0.66980  Biso   1.000  H
  C17      1.0000 0.64600  0.53750  0.74940  Biso   1.000  C
  H10      1.0000 0.63900  0.56800  0.78290  Biso   1.000  H
  C18      1.0000 0.66520  0.45080  0.64800  Biso   1.000  C
  H11      1.0000 0.67200  0.42150  0.61400  Biso   1.000  H
  C19      1.0000 0.73950  0.48900  0.66600  Biso   1.000  C
  C20      1.0000 0.57090  0.50130  0.73220  Biso   1.000  C
  C21      1.0000 0.73110  0.52990  0.71830  Biso   1.000  C
  H12      1.0000 0.78230  0.55150  0.73170  Biso   1.000  H
  O6       1.0000 0.41500  0.46340  0.76180  Biso   1.000  O
  O7       1.0000 0.45560  0.58980  0.78520  Biso   1.000  O
  O8       1.0000 0.82080  0.48310  0.62870  Biso   1.000  O
  O9       1.0000 0.02210  0.90260  0.75820  Biso   1.000  O
  O10      1.0000 0.11370  0.00040  0.78135  Biso   1.000  O
  O11      1.0000 0.73620  0.08650  0.94170  Biso   1.000  O
  C22      1.0000 0.03270  0.96710  0.78610  Biso   1.000  C
  C23      1.0000 0.89930  0.08820  0.90750  Biso   1.000  C
  H13      1.0000 0.91030  0.12640  0.93490  Biso   1.000  H
  C24      1.0000 0.95800  0.00160  0.82720  Biso   1.000  C
  C25      1.0000 0.81210  0.06040  0.90600  Biso   1.000  C
  C26      1.0000 0.79610  0.00170  0.86470  Biso   1.000  C
  H14      1.0000 0.73740  0.98210  0.86340  Biso   1.000  H
  C27      1.0000 0.97130  0.05900  0.86770  Biso   1.000  C
  H15      1.0000 0.02990  0.07900  0.86860  Biso   1.000  H
  C28      1.0000 0.86970  0.97370  0.82600  Biso   1.000  C
  H16      1.0000 0.85960  0.93530  0.79860  Biso   1.000  H
  C29      1.0000 0.74910  0.12260  0.99390  Biso   1.000  C
  C30      1.0000 0.24830  0.16630  0.87350  Biso   1.000  C
  C31      1.0000 0.27550  0.17240  0.93250  Biso   1.000  C
  C32      1.0000 0.32220  0.18400  0.04450  Biso   1.000  C
  C33      1.0000 0.20810  0.16880  0.98130  Biso   1.000  C
  H17      1.0000 0.14690  0.16190  0.97590  Biso   1.000  H
  C34      1.0000 0.36510  0.18080  0.94160  Biso   1.000  C
  H18      1.0000 0.41000  0.18270  0.90960  Biso   1.000  H
  C35      1.0000 0.39140  0.18660  0.99770  Biso   1.000  C
  H19      1.0000 0.45270  0.19200  0.00350  Biso   1.000  H
  O12      1.0000 0.30140  0.19580  0.82810  Biso   1.000  O
  O13      1.0000 0.17590  0.13030  0.86589  Biso   1.000  O
  C36      1.0000 0.23210  0.17560  0.03680  Biso   1.000  C
  H20      1.0000 0.18730  0.17440  0.06890  Biso   1.000  H
  O14      1.0000 0.23860  0.50410  0.84290  Biso   1.000  O
  O15      1.0000 0.30140  0.37360  0.86770  Biso   1.000  O
  C37      1.0000 0.27350  0.40130  0.98560  Biso   1.000  C
  H21      1.0000 0.30920  0.35220  0.97400  Biso   1.000  H
  C38      1.0000 0.23990  0.46070  0.94410  Biso   1.000  C
  C39      1.0000 0.26190  0.44520  0.88050  Biso   1.000  C
  C40      1.0000 0.18760  0.53320  0.96120  Biso   1.000  C
  H22      1.0000 0.16520  0.57420  0.93320  Biso   1.000  H
  O16      1.0000 0.18660  0.49250  0.12150  Biso   1.000  O
  C41      1.0000 0.25490  0.41340  0.04490  Biso   1.000  C
  H23      1.0000 0.27810  0.37300  0.07290  Biso   1.000  H
  O17      1.0000 0.16900  0.14470  0.65634  Biso   1.000  O
  O18      1.0000 0.34120  0.19680  0.10110  Biso   1.000  O
  C42      1.0000 0.45970  0.07980  0.10970  Biso   1.000  C
  H24      1.0000 0.43530  0.04760  0.08320  Biso   1.000  H
  C43      1.0000 0.42050  0.16090  0.12240  Biso   1.000  C
  C44      1.0000 0.57120  0.09260  0.17800  Biso   1.000  C
  C45      1.0000 0.53190  0.17530  0.18850  Biso   1.000  C
  H25      1.0000 0.55660  0.20830  0.21450  Biso   1.000  H
  C46      1.0000 0.53550  0.04690  0.13670  Biso   1.000  C
  H26      1.0000 0.56350  0.99310  0.12720  Biso   1.000  H
  C47      1.0000 0.65020  0.05610  0.20800  Biso   1.000  C
  O19      1.0000 0.68250  0.10390  0.24250  Biso   1.000  O
  C48      1.0000 0.45590  0.20970  0.16070  Biso   1.000  C
  H27      1.0000 0.42960  0.26500  0.16810  Biso   1.000  H
  O20      1.0000 0.68140  0.97940  0.20050  Biso   1.000  O
  C49      1.0000 0.03140  0.61930  0.67920  Biso   1.000  C
  C50      1.0000 0.03120  0.52780  0.68920  Biso   1.000  C
  H28      1.0000 0.07760  0.49710  0.70820  Biso   1.000  H
  C51      1.0000 0.96440  0.66340  0.64740  Biso   1.000  C
  H29      1.0000 0.96650  0.72370  0.63800  Biso   1.000  H
  C52      1.0000 0.96200  0.48290  0.67070  Biso   1.000  C
  H30      1.0000 0.96140  0.42200  0.67710  Biso   1.000  H
  C53      1.0000 0.09750  0.66820  0.70480  Biso   1.000  C
  O21      1.0000 0.14840  0.62540  0.74180  Biso   1.000  O
  O22      1.0000 0.10610  0.74940  0.69180  Biso   1.000  O
  C54      1.0000 0.89390  0.53000  0.64260  Biso   1.000  C
  C55      1.0000 0.80670  0.11360  0.08670  Biso   1.000  C
  H31      1.0000 0.84090  0.08330  0.11460  Biso   1.000  H
  C56      1.0000 0.79700  0.07630  0.03600  Biso   1.000  C
  H32      1.0000 0.82260  0.02030  0.03010  Biso   1.000  H
  C57      1.0000 0.76610  0.19600  0.09710  Biso   1.000  C
  C58      1.0000 0.71690  0.24080  0.05510  Biso   1.000  C
  H33      1.0000 0.68930  0.29600  0.06140  Biso   1.000  H
  C59      1.0000 0.70840  0.20380  0.00360  Biso   1.000  C
  H34      1.0000 0.67500  0.23410  0.97530  Biso   1.000  H
  C60      1.0000 0.39680  0.28650  0.43360  Biso   1.000  C
  C61      1.0000 0.40920  0.30360  0.37380  Biso   1.000  C
  H35      1.0000 0.36030  0.32720  0.35380  Biso   1.000  H
  C62      1.0000 0.56550  0.24820  0.37240  Biso   1.000  C
  C63      1.0000 0.49300  0.28630  0.34360  Biso   1.000  C
  H36      1.0000 0.50150  0.30010  0.30320  Biso   1.000  H
  C64      1.0000 0.54980  0.22760  0.43320  Biso   1.000  C
  H37      1.0000 0.59700  0.20030  0.45340  Biso   1.000  H
  C65      1.0000 0.46530  0.24730  0.46350  Biso   1.000  C
  H38      1.0000 0.45550  0.23390  0.50380  Biso   1.000  H
  C66      1.0000 0.89600  0.61900  0.63010  Biso   1.000  C
  H39      1.0000 0.85070  0.64910  0.60970  Biso   1.000  H
  C67      1.0000 0.77780  0.23680  0.15340  Biso   1.000  C
  O23      1.0000 0.72990  0.30720  0.16241  Biso   1.000  O
  O24      1.0000 0.83110  0.19900  0.18770  Biso   1.000  O
  C68      1.0000 0.65780  0.22940  0.34050  Biso   1.000  C
  O25      1.0000 0.71220  0.17170  0.36320  Biso   1.000  O
  O26      1.0000 0.67910  0.26640  0.28969  Biso   1.000  O
  C69      1.0000 0.20180  0.48590  0.06160  Biso   1.000  C
  C70      1.0000 0.16830  0.54520  0.02020  Biso   1.000  C
  H40      1.0000 0.13220  0.59400  0.03170  Biso   1.000  H
  C71      1.0000 0.11820  0.55080  0.14330  Biso   1.000  C
  C72      1.0000 0.07210  0.68540  0.18500  Biso   1.000  C
  H41      1.0000 0.08720  0.73910  0.19630  Biso   1.000  H
  C73      1.0000 0.14050  0.62900  0.15960  Biso   1.000  C
  H42      1.0000 0.20130  0.64500  0.15370  Biso   1.000  H
  C74      1.0000 0.02930  0.52800  0.15000  Biso   1.000  C
  H43      1.0000 0.01450  0.47510  0.13720  Biso   1.000  H
  C75      1.0000 0.98260  0.66110  0.19320  Biso   1.000  C
  C76      1.0000 0.91080  0.72390  0.22020  Biso   1.000  C
  C77      1.0000 0.95940  0.58320  0.17600  Biso   1.000  C
  H44      1.0000 0.89860  0.56700  0.18130  Biso   1.000  H
  O27      1.0000 0.93460  0.79680  0.23290  Biso   1.000  O
  O28      1.0000 0.82730  0.70630  0.22850  Biso   1.000  O
  C78      1.0000 0.47190  0.99400  0.35350  Biso   1.000  C
  H45      1.0000 0.48230  0.05340  0.34570  Biso   1.000  H
  C79      1.0000 0.39290  0.96750  0.38500  Biso   1.000  C
  C80      1.0000 0.37700  0.87960  0.39760  Biso   1.000  C
  H46      1.0000 0.32310  0.86220  0.41980  Biso   1.000  H
  C81      1.0000 0.52350  0.84310  0.34440  Biso   1.000  C
  C82      1.0000 0.53700  0.93070  0.33290  Biso   1.000  C
  H47      1.0000 0.59090  0.94850  0.31090  Biso   1.000  H
  C83      1.0000 0.44360  0.81680  0.37630  Biso   1.000  C
  H48      1.0000 0.43350  0.75730  0.38390  Biso   1.000  H
  C84      1.0000 0.59130  0.77630  0.31810  Biso   1.000  C
  O29      1.0000 0.57080  0.69700  0.31890  Biso   1.000  O
  O30      1.0000 0.66640  0.80080  0.28964  Biso   1.000  O
  Gd5      1.0000 0.81758  0.12923  0.28221  Biso   1.000  Gd
  Gd6      1.0000 0.79036  0.88054  0.24021  Biso   1.000  Gd
  Gd7      1.0000 0.67015  0.66722  0.22723  Biso   1.000  Gd
  Gd8      1.0000 0.70657  0.40229  0.23550  Biso   1.000  Gd
  O31      1.0000 0.75930  0.97980  0.32001  Biso   1.000  O
  C85      1.0000 0.78680  0.92240  0.35930  Biso   1.000  C
  C86      1.0000 0.75650  0.93510  0.42210  Biso   1.000  C
  C87      1.0000 0.67940  0.98870  0.43690  Biso   1.000  C
  H49      1.0000 0.64790  0.01780  0.40730  Biso   1.000  H
  C88      1.0000 0.80430  0.89390  0.46640  Biso   1.000  C
  H50      1.0000 0.85630  0.85780  0.45690  Biso   1.000  H
  C89      1.0000 0.69800  0.95940  0.53840  Biso   1.000  C
  C90      1.0000 0.64840  0.99980  0.49500  Biso   1.000  C
  H51      1.0000 0.59490  0.03390  0.50460  Biso   1.000  H
  C91      1.0000 0.77600  0.90580  0.52430  Biso   1.000  C
  H52      1.0000 0.80880  0.87810  0.55370  Biso   1.000  H
  O32      1.0000 0.67280  0.96740  0.59770  Biso   1.000  O
  O33      1.0000 0.73970  0.54920  0.28591  Biso   1.000  O
  O34      1.0000 0.67450  0.43470  0.33640  Biso   1.000  O
  O35      1.0000 0.69020  0.69410  0.53740  Biso   1.000  O
  C92      1.0000 0.70280  0.55650  0.38860  Biso   1.000  C
  C93      1.0000 0.70730  0.50980  0.33480  Biso   1.000  C
  C94      1.0000 0.75630  0.62740  0.39120  Biso   1.000  C
  H53      1.0000 0.79650  0.64490  0.35860  Biso   1.000  H
  C95      1.0000 0.69230  0.64780  0.48810  Biso   1.000  C
  C96      1.0000 0.75200  0.67230  0.44010  Biso   1.000  C
  H54      1.0000 0.78940  0.71920  0.44090  Biso   1.000  H
  C97      1.0000 0.64510  0.53060  0.43820  Biso   1.000  C
  H55      1.0000 0.61000  0.48190  0.43820  Biso   1.000  H
  C98      1.0000 0.63910  0.57650  0.48790  Biso   1.000  C
  H56      1.0000 0.59940  0.55930  0.52080  Biso   1.000  H
  C99      1.0000 0.52400  0.48260  0.23760  Biso   1.000  C
  C100     1.0000 0.41890  0.54310  0.31870  Biso   1.000  C
  H57      1.0000 0.46930  0.56870  0.33020  Biso   1.000  H
  C101     1.0000 0.35400  0.46250  0.25060  Biso   1.000  C
  H58      1.0000 0.36100  0.43200  0.21710  Biso   1.000  H
  C102     1.0000 0.33480  0.54920  0.35200  Biso   1.000  C
  H59      1.0000 0.32800  0.57850  0.38600  Biso   1.000  H
  C103     1.0000 0.26050  0.51100  0.33400  Biso   1.000  C
  C104     1.0000 0.42910  0.49870  0.26780  Biso   1.000  C
  C105     1.0000 0.26890  0.47010  0.28170  Biso   1.000  C
  H60      1.0000 0.21770  0.44850  0.26830  Biso   1.000  H
  O36      1.0000 0.58500  0.53660  0.23820  Biso   1.000  O
  O37      1.0000 0.54440  0.41020  0.21480  Biso   1.000  O
  O38      1.0000 0.17920  0.51690  0.37130  Biso   1.000  O
  O39      1.0000 0.97790  0.09740  0.24180  Biso   1.000  O
  O40      1.0000 0.88630  0.99960  0.21865  Biso   1.000  O
  O41      1.0000 0.26380  0.91350  0.05830  Biso   1.000  O
  C106     1.0000 0.96730  0.03290  0.21390  Biso   1.000  C
  C107     1.0000 0.10070  0.91180  0.09250  Biso   1.000  C
  H61      1.0000 0.08970  0.87360  0.06510  Biso   1.000  H
  C108     1.0000 0.04200  0.99840  0.17280  Biso   1.000  C
  C109     1.0000 0.18790  0.93960  0.09400  Biso   1.000  C
  C110     1.0000 0.20390  0.99830  0.13530  Biso   1.000  C
  H62      1.0000 0.26260  0.01790  0.13660  Biso   1.000  H
  C111     1.0000 0.02870  0.94100  0.13230  Biso   1.000  C
  H63      1.0000 0.97010  0.92100  0.13140  Biso   1.000  H
  C112     1.0000 0.13030  0.02630  0.17400  Biso   1.000  C
  H64      1.0000 0.14040  0.06470  0.20140  Biso   1.000  H
  C113     1.0000 0.25090  0.87740  0.00610  Biso   1.000  C
  C114     1.0000 0.75170  0.83370  0.12650  Biso   1.000  C
  C115     1.0000 0.72450  0.82760  0.06750  Biso   1.000  C
  C116     1.0000 0.67780  0.81600  0.95550  Biso   1.000  C
  C117     1.0000 0.79190  0.83120  0.01870  Biso   1.000  C
  H65      1.0000 0.85310  0.83810  0.02410  Biso   1.000  H
  C118     1.0000 0.63490  0.81920  0.05840  Biso   1.000  C
  H66      1.0000 0.59000  0.81730  0.09040  Biso   1.000  H
  C119     1.0000 0.60860  0.81340  0.00230  Biso   1.000  C
  H67      1.0000 0.54730  0.80800  0.99650  Biso   1.000  H
  O42      1.0000 0.69860  0.80420  0.17190  Biso   1.000  O
  O43      1.0000 0.82410  0.86970  0.13411  Biso   1.000  O
  C120     1.0000 0.76790  0.82440  0.96320  Biso   1.000  C
  H68      1.0000 0.81270  0.82560  0.93110  Biso   1.000  H
  O44      1.0000 0.76140  0.49590  0.15710  Biso   1.000  O
  O45      1.0000 0.69860  0.62640  0.13230  Biso   1.000  O
  C121     1.0000 0.72650  0.59870  0.01440  Biso   1.000  C
  H69      1.0000 0.69080  0.64780  0.02600  Biso   1.000  H
  C122     1.0000 0.76010  0.53930  0.05590  Biso   1.000  C
  C123     1.0000 0.73810  0.55480  0.11950  Biso   1.000  C
  C124     1.0000 0.81240  0.46680  0.03880  Biso   1.000  C
  H70      1.0000 0.83480  0.42580  0.06680  Biso   1.000  H
  O46      1.0000 0.81340  0.50750  0.87850  Biso   1.000  O
  C125     1.0000 0.74510  0.58660  0.95510  Biso   1.000  C
  H71      1.0000 0.72190  0.62700  0.92710  Biso   1.000  H
  O47      1.0000 0.83100  0.85530  0.34366  Biso   1.000  O
  O48      1.0000 0.65880  0.80320  0.89890  Biso   1.000  O
  C126     1.0000 0.54030  0.92020  0.89030  Biso   1.000  C
  H72      1.0000 0.56470  0.95240  0.91680  Biso   1.000  H
  C127     1.0000 0.57950  0.83910  0.87760  Biso   1.000  C
  C128     1.0000 0.42880  0.90740  0.82200  Biso   1.000  C
  C129     1.0000 0.46810  0.82470  0.81150  Biso   1.000  C
  H73      1.0000 0.44340  0.79170  0.78550  Biso   1.000  H
  C130     1.0000 0.46450  0.95310  0.86330  Biso   1.000  C
  H74      1.0000 0.43650  0.00690  0.87280  Biso   1.000  H
  C131     1.0000 0.34980  0.94390  0.79200  Biso   1.000  C
  O49      1.0000 0.31750  0.89610  0.75750  Biso   1.000  O
  C132     1.0000 0.54410  0.79030  0.83930  Biso   1.000  C
  H75      1.0000 0.57040  0.73500  0.83190  Biso   1.000  H
  O50      1.0000 0.31860  0.02060  0.79950  Biso   1.000  O
  C133     1.0000 0.96860  0.38070  0.32080  Biso   1.000  C
  C134     1.0000 0.96880  0.47220  0.31080  Biso   1.000  C
  H76      1.0000 0.92240  0.50290  0.29180  Biso   1.000  H
  C135     1.0000 0.03560  0.33660  0.35260  Biso   1.000  C
  H77      1.0000 0.03350  0.27630  0.36200  Biso   1.000  H
  C136     1.0000 0.03800  0.51710  0.32930  Biso   1.000  C
  H78      1.0000 0.03860  0.57800  0.32290  Biso   1.000  H
  C137     1.0000 0.90250  0.33180  0.29520  Biso   1.000  C
  O51      1.0000 0.85160  0.37460  0.25820  Biso   1.000  O
  O52      1.0000 0.89390  0.25060  0.30820  Biso   1.000  O
  C138     1.0000 0.10610  0.47000  0.35740  Biso   1.000  C
  C139     1.0000 0.19330  0.88640  0.91330  Biso   1.000  C
  H79      1.0000 0.15910  0.91670  0.88540  Biso   1.000  H
  C140     1.0000 0.20300  0.92370  0.96400  Biso   1.000  C
  H80      1.0000 0.17740  0.97970  0.96990  Biso   1.000  H
  C141     1.0000 0.23390  0.80400  0.90290  Biso   1.000  C
  C142     1.0000 0.28310  0.75920  0.94490  Biso   1.000  C
  H81      1.0000 0.31070  0.70400  0.93860  Biso   1.000  H
  C143     1.0000 0.29160  0.79620  0.99640  Biso   1.000  C
  H82      1.0000 0.32500  0.76590  0.02470  Biso   1.000  H
  C144     1.0000 0.60320  0.71350  0.56640  Biso   1.000  C
  C145     1.0000 0.59080  0.69640  0.62620  Biso   1.000  C
  H83      1.0000 0.63970  0.67280  0.64620  Biso   1.000  H
  C146     1.0000 0.43450  0.75180  0.62760  Biso   1.000  C
  C147     1.0000 0.50700  0.71370  0.65640  Biso   1.000  C
  H84      1.0000 0.49850  0.69990  0.69680  Biso   1.000  H
  C148     1.0000 0.45020  0.77240  0.56680  Biso   1.000  C
  H85      1.0000 0.40300  0.79970  0.54660  Biso   1.000  H
  C149     1.0000 0.53470  0.75270  0.53650  Biso   1.000  C
  H86      1.0000 0.54450  0.76610  0.49620  Biso   1.000  H
  C150     1.0000 0.10400  0.38100  0.36990  Biso   1.000  C
  H87      1.0000 0.14930  0.35090  0.39030  Biso   1.000  H
  C151     1.0000 0.22220  0.76320  0.84660  Biso   1.000  C
  O53      1.0000 0.27010  0.69280  0.83759  Biso   1.000  O
  O54      1.0000 0.16890  0.80100  0.81230  Biso   1.000  O
  C152     1.0000 0.34220  0.77060  0.65950  Biso   1.000  C
  O55      1.0000 0.28780  0.82830  0.63680  Biso   1.000  O
  O56      1.0000 0.32090  0.73360  0.71031  Biso   1.000  O
  C153     1.0000 0.79820  0.51410  0.93840  Biso   1.000  C
  C154     1.0000 0.83170  0.45480  0.97980  Biso   1.000  C
  H88      1.0000 0.86780  0.40600  0.96830  Biso   1.000  H
  C155     1.0000 0.88180  0.44920  0.85670  Biso   1.000  C
  C156     1.0000 0.92790  0.31460  0.81500  Biso   1.000  C
  H89      1.0000 0.91280  0.26090  0.80370  Biso   1.000  H
  C157     1.0000 0.85950  0.37100  0.84040  Biso   1.000  C
  H90      1.0000 0.79870  0.35500  0.84630  Biso   1.000  H
  C158     1.0000 0.97070  0.47200  0.85000  Biso   1.000  C
  H91      1.0000 0.98550  0.52490  0.86280  Biso   1.000  H
  C159     1.0000 0.01740  0.33890  0.80680  Biso   1.000  C
  C160     1.0000 0.08920  0.27610  0.77980  Biso   1.000  C
  C161     1.0000 0.04060  0.41680  0.82400  Biso   1.000  C
  H92      1.0000 0.10140  0.43300  0.81870  Biso   1.000  H
  O57      1.0000 0.06540  0.20320  0.76710  Biso   1.000  O
  O58      1.0000 0.17270  0.29370  0.77150  Biso   1.000  O
  C162     1.0000 0.52810  0.00600  0.64650  Biso   1.000  C
  H93      1.0000 0.51770  0.94660  0.65430  Biso   1.000  H
  C163     1.0000 0.60710  0.03250  0.61500  Biso   1.000  C
  C164     1.0000 0.62300  0.12040  0.60240  Biso   1.000  C
  H94      1.0000 0.67690  0.13780  0.58020  Biso   1.000  H
  C165     1.0000 0.47650  0.15690  0.65560  Biso   1.000  C
  C166     1.0000 0.46300  0.06930  0.66710  Biso   1.000  C
  H95      1.0000 0.40910  0.05150  0.68910  Biso   1.000  H
  C167     1.0000 0.55640  0.18320  0.62370  Biso   1.000  C
  H96      1.0000 0.56650  0.24270  0.61610  Biso   1.000  H
  C168     1.0000 0.40870  0.22370  0.68190  Biso   1.000  C
  O59      1.0000 0.42920  0.30300  0.68110  Biso   1.000  O
  O60      1.0000 0.33360  0.19920  0.71036  Biso   1.000  O
