data_image0
_cell_length_a       14.604
_cell_length_b       15.309
_cell_length_c       22.87
_cell_angle_alpha    84.603
_cell_angle_beta     83.64
_cell_angle_gamma    86.655

_symmetry_space_group_name_H-M    "P 1"
_symmetry_int_tables_number       1

loop_
  _symmetry_equiv_pos_as_xyz
  'x, y, z'

loop_
  _atom_site_label
  _atom_site_occupancy
  _atom_site_fract_x
  _atom_site_fract_y
  _atom_site_fract_z
  _atom_site_thermal_displace_type
  _atom_site_B_iso_or_equiv
  _atom_site_type_symbol
  Sm1      1.0000 0.70782  0.62002  0.25937  Biso   1.000  Sm
  O1       1.0000 0.61040  0.50080  0.28080  Biso   1.000  O
  O2       1.0000 0.79960  0.69630  0.32860  Biso   1.000  O
  O3       1.0000 0.67360  0.63150  0.36690  Biso   1.000  O
  O4       1.0000 0.56160  0.70310  0.26640  Biso   1.000  O
  O5       1.0000 0.83310  0.70100  0.20950  Biso   1.000  O
  O6       1.0000 0.66980  0.79340  0.27160  Biso   1.000  O
  O7       1.0000 0.81670  0.51980  0.30030  Biso   1.000  O
  O8       1.0000 0.73950  0.51950  0.17860  Biso   1.000  O
  O9       1.0000 0.66770  0.64530  0.15440  Biso   1.000  O
  Sm2      1.0000 0.68093  0.37056  0.21673  Biso   1.000  Sm
  C1       1.0000 0.53140  0.46660  0.28560  Biso   1.000  C
  Sm3      1.0000 0.82876  0.83360  0.27233  Biso   1.000  Sm
  C2       1.0000 0.74660  0.66600  0.37390  Biso   1.000  C
  C3       1.0000 0.58630  0.77450  0.28000  Biso   1.000  C
  C4       1.0000 0.71310  0.57940  0.13910  Biso   1.000  C
  O10      1.0000 0.51810  0.40320  0.25670  Biso   1.000  O
  O11      1.0000 0.78650  0.32690  0.13460  Biso   1.000  O
  O12      1.0000 0.81950  0.23430  0.20980  Biso   1.000  O
  O13      1.0000 0.81670  0.39570  0.25700  Biso   1.000  O
  O14      1.0000 0.66840  0.30000  0.31280  Biso   1.000  O
  O15      1.0000 0.60140  0.24830  0.19100  Biso   1.000  O
  C5       1.0000 0.45520  0.50130  0.32750  Biso   1.000  C
  O16      1.0000 0.91330  0.96340  0.26060  Biso   1.000  O
  O17      1.0000 0.75820  0.95200  0.21250  Biso   1.000  O
  O18      1.0000 0.92940  0.80410  0.17950  Biso   1.000  O
  O19      1.0000 0.80310  0.87100  0.36910  Biso   1.000  O
  C6       1.0000 0.77370  0.67170  0.43430  Biso   1.000  C
  C7       1.0000 0.51630  0.83830  0.30590  Biso   1.000  C
  C8       1.0000 0.74230  0.56640  0.07600  Biso   1.000  C
  C9       1.0000 0.46980  0.55820  0.36820  Biso   1.000  C
  C10      1.0000 0.36590  0.47390  0.32600  Biso   1.000  C
  Sm4      1.0000 0.79191  0.09765  0.26424  Biso   1.000  Sm
  C11      1.0000 0.97580  0.01750  0.26180  Biso   1.000  C
  C12      1.0000 0.79180  0.98980  0.16390  Biso   1.000  C
  C13      1.0000 0.86500  0.68130  0.44190  Biso   1.000  C
  C14      1.0000 0.70750  0.66840  0.48240  Biso   1.000  C
  C15      1.0000 0.53880  0.91620  0.32250  Biso   1.000  C
  C16      1.0000 0.42670  0.81560  0.31520  Biso   1.000  C
  C17      1.0000 0.82160  0.51210  0.06230  Biso   1.000  C
  C18      1.0000 0.69840  0.60730  0.03130  Biso   1.000  C
  C19      1.0000 0.39790  0.58700  0.40670  Biso   1.000  C
  H1       1.0000 0.52870  0.57730  0.36970  Biso   1.000  H
  C20      1.0000 0.29520  0.50330  0.36480  Biso   1.000  C
  H2       1.0000 0.35450  0.43570  0.29860  Biso   1.000  H
  O20      1.0000 0.95610  0.08790  0.28640  Biso   1.000  O
  O21      1.0000 0.82180  0.06690  0.16080  Biso   1.000  O
  O22      1.0000 0.76720  0.19300  0.33830  Biso   1.000  O
  O23      1.0000 0.64620  0.12520  0.24080  Biso   1.000  O
  O24      1.0000 0.73750  0.99940  0.34220  Biso   1.000  O
  C21      1.0000 0.06910  0.00310  0.23210  Biso   1.000  C
  C22      1.0000 0.79420  0.94440  0.10990  Biso   1.000  C
  H3       1.0000 0.90920  0.68450  0.40930  Biso   1.000  H
  C23      1.0000 0.89100  0.68630  0.49780  Biso   1.000  C
  H4       1.0000 0.64610  0.66150  0.47730  Biso   1.000  H
  C24      1.0000 0.73240  0.67520  0.53780  Biso   1.000  C
  H5       1.0000 0.59960  0.93280  0.31650  Biso   1.000  H
  C25      1.0000 0.46910  0.97190  0.34910  Biso   1.000  C
  H6       1.0000 0.41130  0.76130  0.30520  Biso   1.000  H
  C26      1.0000 0.35850  0.87160  0.33920  Biso   1.000  C
  H7       1.0000 0.85380  0.48450  0.09230  Biso   1.000  H
  C27      1.0000 0.85130  0.50010  0.00370  Biso   1.000  C
  H8       1.0000 0.64820  0.64580  0.04010  Biso   1.000  H
  C28      1.0000 0.72560  0.59380  0.97350  Biso   1.000  C
  H9       1.0000 0.40860  0.62590  0.43380  Biso   1.000  H
  C29      1.0000 0.31210  0.55960  0.40580  Biso   1.000  C
  H10      1.0000 0.23580  0.48540  0.36360  Biso   1.000  H
  C30      1.0000 0.07890  0.95800  0.18110  Biso   1.000  C
  C31      1.0000 0.14640  0.03620  0.25010  Biso   1.000  C
  C32      1.0000 0.85350  0.96960  0.06080  Biso   1.000  C
  C33      1.0000 0.74160  0.87410  0.10840  Biso   1.000  C
  H11      1.0000 0.95250  0.69090  0.50340  Biso   1.000  H
  C34      1.0000 0.82330  0.68430  0.54510  Biso   1.000  C
  H12      1.0000 0.68790  0.67370  0.57020  Biso   1.000  H
  H13      1.0000 0.48450  0.02450  0.36180  Biso   1.000  H
  C35      1.0000 0.38090  0.94970  0.35610  Biso   1.000  C
  H14      1.0000 0.29740  0.85600  0.34380  Biso   1.000  H
  C36      1.0000 0.80360  0.53980  0.95980  Biso   1.000  C
  H15      1.0000 0.90400  0.46490  0.99440  Biso   1.000  H
  H16      1.0000 0.69230  0.62040  0.94360  Biso   1.000  H
  O25      1.0000 0.23580  0.58690  0.44200  Biso   1.000  O
  H17      1.0000 0.02850  0.93220  0.16950  Biso   1.000  H
  C37      1.0000 0.16370  0.95220  0.14810  Biso   1.000  C
  H18      1.0000 0.14090  0.06430  0.28470  Biso   1.000  H
  C38      1.0000 0.23100  0.02840  0.21790  Biso   1.000  C
  H19      1.0000 0.88950  0.01760  0.06120  Biso   1.000  H
  C39      1.0000 0.86000  0.92380  0.01090  Biso   1.000  C
  H20      1.0000 0.70130  0.85670  0.14130  Biso   1.000  H
  C40      1.0000 0.74740  0.82820  0.05860  Biso   1.000  C
  O26      1.0000 0.84280  0.69770  0.60170  Biso   1.000  O
  O27      1.0000 0.31310  0.00790  0.37790  Biso   1.000  O
  O28      1.0000 0.82750  0.53250  0.90100  Biso   1.000  O
  C41      1.0000 0.24920  0.62380  0.49360  Biso   1.000  C
  C42      1.0000 0.24030  0.98840  0.16540  Biso   1.000  C
  H21      1.0000 0.16970  0.92350  0.11370  Biso   1.000  H
  H22      1.0000 0.28240  0.05000  0.23130  Biso   1.000  H
  C43      1.0000 0.80790  0.85350  0.01020  Biso   1.000  C
  H23      1.0000 0.90000  0.94130  0.97790  Biso   1.000  H
  H24      1.0000 0.71080  0.78070  0.05790  Biso   1.000  H
  C44      1.0000 0.92200  0.66180  0.62280  Biso   1.000  C
  C45      1.0000 0.29900  0.01620  0.43710  Biso   1.000  C
  C46      1.0000 0.89410  0.46820  0.88440  Biso   1.000  C
  C47      1.0000 0.29800  0.57810  0.53510  Biso   1.000  C
  C48      1.0000 0.20800  0.70370  0.50220  Biso   1.000  C
  O29      1.0000 0.31960  0.98170  0.12850  Biso   1.000  O
  O30      1.0000 0.80910  0.80580  0.96170  Biso   1.000  O
  C49      1.0000 0.96060  0.58020  0.60990  Biso   1.000  C
  C50      1.0000 0.95750  0.70850  0.66200  Biso   1.000  C
  C51      1.0000 0.24450  0.08770  0.45350  Biso   1.000  C
  C52      1.0000 0.33090  0.95480  0.48020  Biso   1.000  C
  C53      1.0000 0.97300  0.49290  0.85290  Biso   1.000  C
  C54      1.0000 0.87750  0.38090  0.89690  Biso   1.000  C
  H25      1.0000 0.32510  0.52310  0.52820  Biso   1.000  H
  C55      1.0000 0.30670  0.61350  0.58660  Biso   1.000  C
  C56      1.0000 0.21860  0.74020  0.55520  Biso   1.000  C
  H26      1.0000 0.17380  0.73360  0.47400  Biso   1.000  H
  C57      1.0000 0.39200  0.02800  0.14290  Biso   1.000  C
  C58      1.0000 0.89740  0.78570  0.93330  Biso   1.000  C
  C59      1.0000 0.03660  0.54630  0.63720  Biso   1.000  C
  H27      1.0000 0.93570  0.54840  0.58330  Biso   1.000  H
  C60      1.0000 0.03300  0.67470  0.68860  Biso   1.000  C
  H28      1.0000 0.93070  0.76310  0.67060  Biso   1.000  H
  C61      1.0000 0.22690  0.10090  0.51300  Biso   1.000  C
  H29      1.0000 0.21970  0.12680  0.42510  Biso   1.000  H
  C62      1.0000 0.31120  0.96810  0.53910  Biso   1.000  C
  H30      1.0000 0.36540  0.90490  0.46910  Biso   1.000  H
  C63      1.0000 0.03880  0.43000  0.83270  Biso   1.000  C
  H31      1.0000 0.98370  0.55220  0.84450  Biso   1.000  H
  C64      1.0000 0.94210  0.31660  0.87610  Biso   1.000  C
  H32      1.0000 0.82310  0.36430  0.91930  Biso   1.000  H
  H33      1.0000 0.33940  0.58190  0.61500  Biso   1.000  H
  C65      1.0000 0.26790  0.69530  0.59710  Biso   1.000  C
  H34      1.0000 0.19180  0.79550  0.56190  Biso   1.000  H
  C66      1.0000 0.46100  0.98340  0.16860  Biso   1.000  C
  C67      1.0000 0.39270  0.11590  0.12950  Biso   1.000  C
  C68      1.0000 0.90960  0.80310  0.87420  Biso   1.000  C
  C69      1.0000 0.96440  0.74620  0.96350  Biso   1.000  C
  C70      1.0000 0.07230  0.59250  0.67780  Biso   1.000  C
  H35      1.0000 0.06390  0.49210  0.62810  Biso   1.000  H
  H36      1.0000 0.05830  0.70760  0.71450  Biso   1.000  H
  C71      1.0000 0.25890  0.03980  0.55430  Biso   1.000  C
  H37      1.0000 0.19350  0.15110  0.52460  Biso   1.000  H
  H38      1.0000 0.33370  0.92830  0.56800  Biso   1.000  H
  H39      1.0000 0.09290  0.44790  0.81050  Biso   1.000  H
  C72      1.0000 0.02520  0.34260  0.84480  Biso   1.000  C
  H40      1.0000 0.92980  0.25740  0.88310  Biso   1.000  H
  C73      1.0000 0.27770  0.73860  0.65250  Biso   1.000  C
  H41      1.0000 0.46220  0.92240  0.17350  Biso   1.000  H
  C74      1.0000 0.53090  0.02800  0.18800  Biso   1.000  C
  C75      1.0000 0.45990  0.16330  0.14810  Biso   1.000  C
  H42      1.0000 0.34790  0.14440  0.10780  Biso   1.000  H
  C76      1.0000 0.99490  0.78520  0.84310  Biso   1.000  C
  H43      1.0000 0.86080  0.82710  0.85410  Biso   1.000  H
  C77      1.0000 0.04960  0.72790  0.93330  Biso   1.000  C
  H44      1.0000 0.95370  0.73150  0.00400  Biso   1.000  H
  C78      1.0000 0.15090  0.55550  0.70870  Biso   1.000  C
  C79      1.0000 0.23740  0.05750  0.61800  Biso   1.000  C
  C80      1.0000 0.09150  0.27510  0.81780  Biso   1.000  C
  H45      1.0000 0.57790  0.99800  0.20720  Biso   1.000  H
  C81      1.0000 0.52780  0.11760  0.17770  Biso   1.000  C
  H46      1.0000 0.45940  0.22410  0.14090  Biso   1.000  H
  C82      1.0000 0.06440  0.74840  0.87310  Biso   1.000  C
  H47      1.0000 0.00400  0.79820  0.80240  Biso   1.000  H
  H48      1.0000 0.09720  0.70160  0.95360  Biso   1.000  H
  C83      1.0000 0.59590  0.16800  0.20440  Biso   1.000  C
  C84      1.0000 0.15880  0.72910  0.84210  Biso   1.000  C
  Sm5      1.0000 0.29218  0.37998  0.74063  Biso   1.000  Sm
  O31      1.0000 0.38960  0.49920  0.71920  Biso   1.000  O
  O32      1.0000 0.20040  0.30370  0.67140  Biso   1.000  O
  O33      1.0000 0.32640  0.36850  0.63310  Biso   1.000  O
  O34      1.0000 0.43840  0.29690  0.73360  Biso   1.000  O
  O35      1.0000 0.16690  0.29900  0.79050  Biso   1.000  O
  O36      1.0000 0.33020  0.20660  0.72840  Biso   1.000  O
  O37      1.0000 0.18330  0.48020  0.69970  Biso   1.000  O
  O38      1.0000 0.26050  0.48050  0.82140  Biso   1.000  O
  O39      1.0000 0.33230  0.35470  0.84560  Biso   1.000  O
  Sm6      1.0000 0.31907  0.62944  0.78327  Biso   1.000  Sm
  C85      1.0000 0.46860  0.53340  0.71440  Biso   1.000  C
  Sm7      1.0000 0.17124  0.16640  0.72767  Biso   1.000  Sm
  C86      1.0000 0.25340  0.33400  0.62610  Biso   1.000  C
  C87      1.0000 0.41370  0.22550  0.72000  Biso   1.000  C
  C88      1.0000 0.28690  0.42060  0.86090  Biso   1.000  C
  O40      1.0000 0.48190  0.59680  0.74330  Biso   1.000  O
  O41      1.0000 0.21350  0.67310  0.86540  Biso   1.000  O
  O42      1.0000 0.18050  0.76570  0.79020  Biso   1.000  O
  O43      1.0000 0.18330  0.60430  0.74300  Biso   1.000  O
  O44      1.0000 0.33160  0.70000  0.68720  Biso   1.000  O
  O45      1.0000 0.39860  0.75170  0.80900  Biso   1.000  O
  C89      1.0000 0.54480  0.49870  0.67250  Biso   1.000  C
  O46      1.0000 0.08670  0.03660  0.73940  Biso   1.000  O
  O47      1.0000 0.24180  0.04800  0.78750  Biso   1.000  O
  O48      1.0000 0.07060  0.19590  0.82050  Biso   1.000  O
  O49      1.0000 0.19690  0.12900  0.63090  Biso   1.000  O
  C90      1.0000 0.22630  0.32830  0.56570  Biso   1.000  C
  C91      1.0000 0.48370  0.16170  0.69410  Biso   1.000  C
  C92      1.0000 0.25770  0.43360  0.92400  Biso   1.000  C
  C93      1.0000 0.53020  0.44180  0.63180  Biso   1.000  C
  C94      1.0000 0.63410  0.52610  0.67400  Biso   1.000  C
  Sm8      1.0000 0.20809  0.90235  0.73576  Biso   1.000  Sm
  C95      1.0000 0.02420  0.98250  0.73820  Biso   1.000  C
  C96      1.0000 0.20820  0.01020  0.83610  Biso   1.000  C
  C97      1.0000 0.13500  0.31870  0.55810  Biso   1.000  C
  C98      1.0000 0.29250  0.33160  0.51760  Biso   1.000  C
  C99      1.0000 0.46120  0.08380  0.67750  Biso   1.000  C
  C100     1.0000 0.57330  0.18440  0.68480  Biso   1.000  C
  C101     1.0000 0.17840  0.48790  0.93770  Biso   1.000  C
  C102     1.0000 0.30160  0.39270  0.96870  Biso   1.000  C
  C103     1.0000 0.60210  0.41300  0.59330  Biso   1.000  C
  H49      1.0000 0.47130  0.42270  0.63030  Biso   1.000  H
  C104     1.0000 0.70480  0.49670  0.63520  Biso   1.000  C
  H50      1.0000 0.64550  0.56430  0.70140  Biso   1.000  H
  O50      1.0000 0.04390  0.91210  0.71360  Biso   1.000  O
  O51      1.0000 0.17820  0.93310  0.83920  Biso   1.000  O
  O52      1.0000 0.23280  0.80700  0.66170  Biso   1.000  O
  O53      1.0000 0.35380  0.87480  0.75920  Biso   1.000  O
  O54      1.0000 0.26250  0.00060  0.65780  Biso   1.000  O
  C105     1.0000 0.93090  0.99690  0.76790  Biso   1.000  C
  C106     1.0000 0.20580  0.05560  0.89010  Biso   1.000  C
  H51      1.0000 0.09080  0.31550  0.59070  Biso   1.000  H
  C107     1.0000 0.10900  0.31370  0.50220  Biso   1.000  C
  H52      1.0000 0.35390  0.33850  0.52270  Biso   1.000  H
  C108     1.0000 0.26760  0.32480  0.46220  Biso   1.000  C
  H53      1.0000 0.40040  0.06720  0.68350  Biso   1.000  H
  C109     1.0000 0.53090  0.02810  0.65090  Biso   1.000  C
  H54      1.0000 0.58870  0.23870  0.69480  Biso   1.000  H
  C110     1.0000 0.64150  0.12840  0.66080  Biso   1.000  C
  H55      1.0000 0.14620  0.51550  0.90770  Biso   1.000  H
  C111     1.0000 0.14870  0.49990  0.99630  Biso   1.000  C
  H56      1.0000 0.35180  0.35420  0.95990  Biso   1.000  H
  C112     1.0000 0.27440  0.40620  0.02650  Biso   1.000  C
  H57      1.0000 0.59140  0.37410  0.56620  Biso   1.000  H
  C113     1.0000 0.68790  0.44040  0.59420  Biso   1.000  C
  H58      1.0000 0.76420  0.51460  0.63640  Biso   1.000  H
  C114     1.0000 0.92110  0.04200  0.81890  Biso   1.000  C
  C115     1.0000 0.85360  0.96380  0.74990  Biso   1.000  C
  C116     1.0000 0.14650  0.03040  0.93920  Biso   1.000  C
  C117     1.0000 0.25840  0.12590  0.89160  Biso   1.000  C
  H59      1.0000 0.04750  0.30910  0.49660  Biso   1.000  H
  C118     1.0000 0.17670  0.31570  0.45490  Biso   1.000  C
  H60      1.0000 0.31210  0.32630  0.42980  Biso   1.000  H
  H61      1.0000 0.51550  0.97550  0.63820  Biso   1.000  H
  C119     1.0000 0.61910  0.05030  0.64390  Biso   1.000  C
  H62      1.0000 0.70260  0.14400  0.65620  Biso   1.000  H
  C120     1.0000 0.19640  0.46020  0.04020  Biso   1.000  C
  H63      1.0000 0.09600  0.53510  0.00560  Biso   1.000  H
  H64      1.0000 0.30770  0.37960  0.05640  Biso   1.000  H
  O55      1.0000 0.76420  0.41310  0.55800  Biso   1.000  O
  H65      1.0000 0.97150  0.06780  0.83050  Biso   1.000  H
  C121     1.0000 0.83630  0.04780  0.85190  Biso   1.000  C
  H66      1.0000 0.85910  0.93570  0.71530  Biso   1.000  H
  C122     1.0000 0.76900  0.97160  0.78210  Biso   1.000  C
  H67      1.0000 0.11050  0.98240  0.93880  Biso   1.000  H
  C123     1.0000 0.14000  0.07620  0.98910  Biso   1.000  C
  H68      1.0000 0.29870  0.14330  0.85870  Biso   1.000  H
  C124     1.0000 0.25260  0.17180  0.94140  Biso   1.000  C
  O56      1.0000 0.15720  0.30230  0.39830  Biso   1.000  O
  O57      1.0000 0.68690  0.99210  0.62210  Biso   1.000  O
  O58      1.0000 0.17250  0.46750  0.09900  Biso   1.000  O
  C125     1.0000 0.75080  0.37620  0.50640  Biso   1.000  C
  C126     1.0000 0.75970  0.01160  0.83460  Biso   1.000  C
  H69      1.0000 0.83030  0.07650  0.88630  Biso   1.000  H
  H70      1.0000 0.71760  0.95000  0.76870  Biso   1.000  H
  C127     1.0000 0.19210  0.14650  0.98980  Biso   1.000  C
  H71      1.0000 0.10000  0.05870  0.02210  Biso   1.000  H
  H72      1.0000 0.28920  0.21930  0.94210  Biso   1.000  H
  C128     1.0000 0.07800  0.33820  0.37720  Biso   1.000  C
  C129     1.0000 0.70100  0.98380  0.56290  Biso   1.000  C
  C130     1.0000 0.10590  0.53180  0.11560  Biso   1.000  C
  C131     1.0000 0.70200  0.42190  0.46490  Biso   1.000  C
  C132     1.0000 0.79200  0.29630  0.49780  Biso   1.000  C
  O59      1.0000 0.68040  0.01830  0.87150  Biso   1.000  O
  O60      1.0000 0.19090  0.19420  0.03830  Biso   1.000  O
  C133     1.0000 0.03940  0.41980  0.39010  Biso   1.000  C
  C134     1.0000 0.04250  0.29150  0.33800  Biso   1.000  C
  C135     1.0000 0.75550  0.91230  0.54650  Biso   1.000  C
  C136     1.0000 0.66910  0.04520  0.51980  Biso   1.000  C
  C137     1.0000 0.02700  0.50710  0.14710  Biso   1.000  C
  C138     1.0000 0.12250  0.61910  0.10310  Biso   1.000  C
  H73      1.0000 0.67490  0.47690  0.47180  Biso   1.000  H
  C139     1.0000 0.69330  0.38650  0.41340  Biso   1.000  C
  C140     1.0000 0.78140  0.25980  0.44480  Biso   1.000  C
  H74      1.0000 0.82620  0.26640  0.52600  Biso   1.000  H
  C141     1.0000 0.60800  0.97200  0.85710  Biso   1.000  C
  C142     1.0000 0.10260  0.21430  0.06670  Biso   1.000  C
  C143     1.0000 0.96340  0.45370  0.36280  Biso   1.000  C
  H75      1.0000 0.06430  0.45160  0.41670  Biso   1.000  H
  C144     1.0000 0.96700  0.32530  0.31140  Biso   1.000  C
  H76      1.0000 0.06930  0.23690  0.32940  Biso   1.000  H
  C145     1.0000 0.77310  0.89910  0.48700  Biso   1.000  C
  H77      1.0000 0.78030  0.87320  0.57490  Biso   1.000  H
  C146     1.0000 0.68880  0.03190  0.46090  Biso   1.000  C
  H78      1.0000 0.63460  0.09510  0.53090  Biso   1.000  H
  C147     1.0000 0.96120  0.57000  0.16730  Biso   1.000  C
  H79      1.0000 0.01630  0.44780  0.15550  Biso   1.000  H
  C148     1.0000 0.05790  0.68340  0.12390  Biso   1.000  C
  H80      1.0000 0.17690  0.63570  0.08070  Biso   1.000  H
  H81      1.0000 0.66060  0.41810  0.38500  Biso   1.000  H
  C149     1.0000 0.73210  0.30470  0.40290  Biso   1.000  C
  H82      1.0000 0.80820  0.20450  0.43810  Biso   1.000  H
  C150     1.0000 0.53900  0.01660  0.83140  Biso   1.000  C
  C151     1.0000 0.60730  0.88410  0.87050  Biso   1.000  C
  C152     1.0000 0.09040  0.19690  0.12580  Biso   1.000  C
  C153     1.0000 0.03560  0.25380  0.03650  Biso   1.000  C
  C154     1.0000 0.92770  0.40750  0.32220  Biso   1.000  C
  H83      1.0000 0.93610  0.50790  0.37190  Biso   1.000  H
  H84      1.0000 0.94170  0.29240  0.28550  Biso   1.000  H
  C155     1.0000 0.74110  0.96020  0.44570  Biso   1.000  C
  H85      1.0000 0.80650  0.84890  0.47540  Biso   1.000  H
  H86      1.0000 0.66630  0.07170  0.43200  Biso   1.000  H
  H87      1.0000 0.90710  0.55210  0.18950  Biso   1.000  H
  C156     1.0000 0.97480  0.65740  0.15520  Biso   1.000  C
  H88      1.0000 0.07020  0.74260  0.11690  Biso   1.000  H
  C157     1.0000 0.72230  0.26140  0.34750  Biso   1.000  C
  H89      1.0000 0.53780  0.07760  0.82650  Biso   1.000  H
  C158     1.0000 0.46910  0.97200  0.81200  Biso   1.000  C
  C159     1.0000 0.54010  0.83670  0.85190  Biso   1.000  C
  H90      1.0000 0.65210  0.85560  0.89220  Biso   1.000  H
  C160     1.0000 0.00510  0.21480  0.15690  Biso   1.000  C
  H91      1.0000 0.13920  0.17290  0.14590  Biso   1.000  H
  C161     1.0000 0.95040  0.27210  0.06670  Biso   1.000  C
  H92      1.0000 0.04630  0.26850  0.99600  Biso   1.000  H
  C162     1.0000 0.84910  0.44450  0.29130  Biso   1.000  C
  C163     1.0000 0.76260  0.94250  0.38200  Biso   1.000  C
  C164     1.0000 0.90850  0.72490  0.18220  Biso   1.000  C
  H93      1.0000 0.42210  0.00200  0.79280  Biso   1.000  H
  C165     1.0000 0.47220  0.88240  0.82230  Biso   1.000  C
  H94      1.0000 0.54060  0.77590  0.85910  Biso   1.000  H
  C166     1.0000 0.93560  0.25160  0.12690  Biso   1.000  C
  H95      1.0000 0.99600  0.20180  0.19760  Biso   1.000  H
  H96      1.0000 0.90280  0.29840  0.04640  Biso   1.000  H
  C167     1.0000 0.40410  0.83200  0.79560  Biso   1.000  C
  C168     1.0000 0.84120  0.27090  0.15790  Biso   1.000  C
