data_image0
_cell_length_a       15.089
_cell_length_b       15.275
_cell_length_c       23.654
_cell_angle_alpha    85.902
_cell_angle_beta     81.506
_cell_angle_gamma    86.813

_symmetry_space_group_name_H-M    "P 1"
_symmetry_int_tables_number       1

loop_
  _symmetry_equiv_pos_as_xyz
  'x, y, z'

loop_
  _atom_site_label
  _atom_site_occupancy
  _atom_site_fract_x
  _atom_site_fract_y
  _atom_site_fract_z
  _atom_site_thermal_displace_type
  _atom_site_B_iso_or_equiv
  _atom_site_type_symbol
  O1       1.0000 0.32860  0.88160  0.74740  Biso   1.000  O
  O2       1.0000 0.85160  0.21990  0.22040  Biso   1.000  O
  O3       1.0000 0.03440  0.91660  0.70470  Biso   1.000  O
  O4       1.0000 0.06900  0.03990  0.73400  Biso   1.000  O
  C1       1.0000 0.01170  0.98720  0.72730  Biso   1.000  C
  C2       1.0000 0.91310  0.00500  0.75200  Biso   1.000  C
  C3       1.0000 0.84780  0.96510  0.73180  Biso   1.000  C
  H1       1.0000 0.86060  0.93100  0.70030  Biso   1.000  H
  C4       1.0000 0.89600  0.05650  0.79890  Biso   1.000  C
  H2       1.0000 0.94260  0.08350  0.81160  Biso   1.000  H
  O5       1.0000 0.68610  0.29490  0.31710  Biso   1.000  O
  C5       1.0000 0.73900  0.25900  0.34950  Biso   1.000  C
  C6       1.0000 0.74470  0.30180  0.40580  Biso   1.000  C
  C7       1.0000 0.78720  0.26180  0.44850  Biso   1.000  C
  H3       1.0000 0.81630  0.20700  0.44330  Biso   1.000  H
  C8       1.0000 0.70320  0.38560  0.41540  Biso   1.000  C
  H4       1.0000 0.67340  0.41490  0.38740  Biso   1.000  H
  C9       1.0000 0.70620  0.42420  0.46570  Biso   1.000  C
  H5       1.0000 0.68100  0.48060  0.47060  Biso   1.000  H
  C10      1.0000 0.78790  0.30120  0.49950  Biso   1.000  C
  H6       1.0000 0.81750  0.27270  0.52790  Biso   1.000  H
  C11      1.0000 0.74580  0.38090  0.50830  Biso   1.000  C
  O6       1.0000 0.60540  0.70820  0.27820  Biso   1.000  O
  C12      1.0000 0.53160  0.83010  0.32210  Biso   1.000  C
  C13      1.0000 0.44960  0.79540  0.32420  Biso   1.000  C
  H7       1.0000 0.44550  0.73940  0.31210  Biso   1.000  H
  C14      1.0000 0.37220  0.84430  0.34450  Biso   1.000  C
  H8       1.0000 0.31590  0.82390  0.34230  Biso   1.000  H
  C15      1.0000 0.97310  0.31690  0.31900  Biso   1.000  C
  H9       1.0000 0.94780  0.28310  0.29490  Biso   1.000  H
  O7       1.0000 0.83030  0.39130  0.26500  Biso   1.000  O
  O8       1.0000 0.83930  0.52080  0.30110  Biso   1.000  O
  C16      1.0000 0.86400  0.44180  0.29510  Biso   1.000  C
  C17      1.0000 0.93890  0.40330  0.32650  Biso   1.000  C
  C18      1.0000 0.97520  0.44880  0.36340  Biso   1.000  C
  H10      1.0000 0.95190  0.50520  0.37030  Biso   1.000  H
  C19      1.0000 0.04080  0.28100  0.34500  Biso   1.000  C
  H11      1.0000 0.06380  0.22430  0.33840  Biso   1.000  H
  O9       1.0000 0.81180  0.31410  0.15240  Biso   1.000  O
  C20      1.0000 0.86690  0.25700  0.17150  Biso   1.000  C
  C21      1.0000 0.95400  0.23990  0.13450  Biso   1.000  C
  C22      1.0000 0.10450  0.17900  0.12160  Biso   1.000  C
  H12      1.0000 0.15190  0.14920  0.13690  Biso   1.000  H
  C23      1.0000 0.96450  0.26730  0.07640  Biso   1.000  C
  H13      1.0000 0.91820  0.29840  0.06080  Biso   1.000  H
  C24      1.0000 0.04520  0.24740  0.04220  Biso   1.000  C
  H14      1.0000 0.05170  0.26460  0.00340  Biso   1.000  H
  O10      1.0000 0.84110  0.69830  0.21650  Biso   1.000  O
  O11      1.0000 0.93390  0.80380  0.18840  Biso   1.000  O
  C25      1.0000 0.91380  0.72510  0.18830  Biso   1.000  C
  C26      1.0000 0.97940  0.66100  0.15610  Biso   1.000  C
  Tb1      1.0000 0.29822  0.63673  0.77349  Biso   1.000  Tb
  Tb2      1.0000 0.27207  0.38906  0.73259  Biso   1.000  Tb
  Tb3      1.0000 0.15819  0.16721  0.71893  Biso   1.000  Tb
  Tb4      1.0000 0.18799  0.90959  0.72785  Biso   1.000  Tb
  C27      1.0000 0.51610  0.44570  0.62690  Biso   1.000  C
  H15      1.0000 0.45960  0.42670  0.62400  Biso   1.000  H
  C28      1.0000 0.44540  0.53890  0.70700  Biso   1.000  C
  C29      1.0000 0.67240  0.44510  0.59400  Biso   1.000  C
  C30      1.0000 0.52510  0.50250  0.66780  Biso   1.000  C
  C31      1.0000 0.58830  0.41670  0.59040  Biso   1.000  C
  H16      1.0000 0.58100  0.37780  0.56310  Biso   1.000  H
  C32      1.0000 0.61080  0.52970  0.67200  Biso   1.000  C
  H17      1.0000 0.61750  0.56720  0.70010  Biso   1.000  H
  C33      1.0000 0.68550  0.50240  0.63560  Biso   1.000  C
  H18      1.0000 0.74220  0.52120  0.63850  Biso   1.000  H
  O12      1.0000 0.45610  0.60230  0.73540  Biso   1.000  O
  O13      1.0000 0.36880  0.50460  0.70960  Biso   1.000  O
  O14      1.0000 0.75060  0.41820  0.56010  Biso   1.000  O
  O15      1.0000 0.22030  0.05730  0.77820  Biso   1.000  O
  O16      1.0000 0.24250  0.49210  0.81180  Biso   1.000  O
  O17      1.0000 0.31670  0.36770  0.83200  Biso   1.000  O
  O18      1.0000 0.30290  0.38130  0.62840  Biso   1.000  O
  O19      1.0000 0.18990  0.30530  0.66850  Biso   1.000  O
  O20      1.0000 0.17060  0.13050  0.62330  Biso   1.000  O
  O21      1.0000 0.23820  0.00860  0.65390  Biso   1.000  O
  O22      1.0000 0.16860  0.47800  0.08430  Biso   1.000  O
  O23      1.0000 0.16080  0.94200  0.82700  Biso   1.000  O
  C34      1.0000 0.27090  0.43430  0.84710  Biso   1.000  C
  C35      1.0000 0.23720  0.33920  0.62370  Biso   1.000  C
  C36      1.0000 0.24410  0.44760  0.91050  Biso   1.000  C
  C37      1.0000 0.21180  0.32960  0.56540  Biso   1.000  C
  C38      1.0000 0.12360  0.31870  0.56050  Biso   1.000  C
  H19      1.0000 0.08040  0.31660  0.59290  Biso   1.000  H
  C39      1.0000 0.29050  0.40330  0.95150  Biso   1.000  C
  H20      1.0000 0.33920  0.36550  0.94000  Biso   1.000  H
  C40      1.0000 0.14550  0.51240  0.98630  Biso   1.000  C
  H21      1.0000 0.09660  0.54980  0.99820  Biso   1.000  H
  C41      1.0000 0.10180  0.53860  0.10590  Biso   1.000  C
  C42      1.0000 0.21490  0.05930  0.61450  Biso   1.000  C
  C43      1.0000 0.27770  0.33210  0.51810  Biso   1.000  C
  H22      1.0000 0.33700  0.34040  0.52210  Biso   1.000  H
  C44      1.0000 0.21240  0.08830  0.50900  Biso   1.000  C
  H23      1.0000 0.17780  0.13920  0.51780  Biso   1.000  H
  C45      1.0000 0.17040  0.50170  0.92820  Biso   1.000  C
  H24      1.0000 0.13780  0.53070  0.90150  Biso   1.000  H
  C46      1.0000 0.09890  0.31070  0.50450  Biso   1.000  C
  H25      1.0000 0.03930  0.30520  0.50000  Biso   1.000  H
  C47      1.0000 0.19040  0.47000  0.02550  Biso   1.000  C
  C48      1.0000 0.24200  0.03460  0.55340  Biso   1.000  C
  C49      1.0000 0.25360  0.32200  0.46380  Biso   1.000  C
  H26      1.0000 0.29760  0.32270  0.43190  Biso   1.000  H
  C50      1.0000 0.16630  0.31120  0.45720  Biso   1.000  C
  C51      1.0000 0.11720  0.62790  0.09660  Biso   1.000  C
  H27      1.0000 0.16910  0.64640  0.07370  Biso   1.000  H
  C52      1.0000 0.29030  0.96030  0.54050  Biso   1.000  C
  H28      1.0000 0.30950  0.92370  0.56990  Biso   1.000  H
  C53      1.0000 0.23290  0.06790  0.45220  Biso   1.000  C
  H29      1.0000 0.21380  0.10490  0.42300  Biso   1.000  H
  C54      1.0000 0.26450  0.41500  0.00970  Biso   1.000  C
  H30      1.0000 0.29620  0.38670  0.03710  Biso   1.000  H
  C55      1.0000 0.03010  0.51000  0.14080  Biso   1.000  C
  H31      1.0000 0.02240  0.45010  0.14810  Biso   1.000  H
  O24      1.0000 0.78140  0.18820  0.34350  Biso   1.000  O
  O25      1.0000 0.37290  0.76090  0.79400  Biso   1.000  O
  O26      1.0000 0.14920  0.29250  0.40400  Biso   1.000  O
  C56      1.0000 0.96640  0.57110  0.16660  Biso   1.000  C
  H32      1.0000 0.91580  0.55170  0.19060  Biso   1.000  H
  C57      1.0000 0.38490  0.84230  0.78120  Biso   1.000  C
  C58      1.0000 0.44950  0.89400  0.79750  Biso   1.000  C
  C59      1.0000 0.07450  0.33080  0.38160  Biso   1.000  C
  C60      1.0000 0.02450  0.19810  0.15720  Biso   1.000  C
  H33      1.0000 0.01910  0.18250  0.19630  Biso   1.000  H
  C61      1.0000 0.19000  0.06200  0.87940  Biso   1.000  C
  C62      1.0000 0.24170  0.13230  0.88120  Biso   1.000  C
  H34      1.0000 0.27710  0.15250  0.84780  Biso   1.000  H
  C63      1.0000 0.24350  0.17460  0.93080  Biso   1.000  C
  H35      1.0000 0.27920  0.22230  0.93080  Biso   1.000  H
  C64      1.0000 0.18860  0.01660  0.82580  Biso   1.000  C
  C65      1.0000 0.19070  0.14370  0.98020  Biso   1.000  C
  C66      1.0000 0.05500  0.68960  0.12160  Biso   1.000  C
  H36      1.0000 0.06440  0.74940  0.11510  Biso   1.000  H
  C67      1.0000 0.13760  0.03010  0.93040  Biso   1.000  C
  H37      1.0000 0.10280  0.98180  0.93060  Biso   1.000  H
  O27      1.0000 0.19460  0.18550  0.03050  Biso   1.000  O
  C68      1.0000 0.11410  0.20410  0.06350  Biso   1.000  C
  C69      1.0000 0.04560  0.41600  0.39170  Biso   1.000  C
  H38      1.0000 0.07140  0.44940  0.41580  Biso   1.000  H
  C70      1.0000 0.28280  0.99100  0.44040  Biso   1.000  C
  C71      1.0000 0.31190  0.93700  0.48430  Biso   1.000  C
  H39      1.0000 0.34580  0.88550  0.47620  Biso   1.000  H
  C72      1.0000 0.37930  0.91830  0.36620  Biso   1.000  C
  C73      1.0000 0.45640  0.95720  0.36720  Biso   1.000  C
  H40      1.0000 0.45770  0.01210  0.38170  Biso   1.000  H
  C74      1.0000 0.80850  0.06730  0.82670  Biso   1.000  C
  H41      1.0000 0.79510  0.10210  0.85790  Biso   1.000  H
  C75      1.0000 0.76080  0.97690  0.75960  Biso   1.000  C
  H42      1.0000 0.71440  0.95160  0.74560  Biso   1.000  H
  C76      1.0000 0.74160  0.02430  0.80640  Biso   1.000  C
  C77      1.0000 0.53810  0.90850  0.34440  Biso   1.000  C
  H43      1.0000 0.59400  0.93090  0.34510  Biso   1.000  H
  C78      1.0000 0.13920  0.07280  0.98080  Biso   1.000  C
  H44      1.0000 0.10510  0.05270  0.01480  Biso   1.000  H
  O28      1.0000 0.65640  0.03550  0.83920  Biso   1.000  O
  O29      1.0000 0.68880  0.81590  0.29620  Biso   1.000  O
  C79      1.0000 0.61390  0.78160  0.29610  Biso   1.000  C
  O30      1.0000 0.29950  0.96950  0.38460  Biso   1.000  O
  C80      1.0000 0.45090  0.98150  0.78690  Biso   1.000  C
  H45      1.0000 0.40460  0.01070  0.77010  Biso   1.000  H
  C81      1.0000 0.52020  0.02990  0.80030  Biso   1.000  C
  H46      1.0000 0.52140  0.09020  0.79130  Biso   1.000  H
  C82      1.0000 0.58780  0.98540  0.82750  Biso   1.000  C
  C83      1.0000 0.52000  0.84990  0.82540  Biso   1.000  C
  H47      1.0000 0.52060  0.78910  0.83190  Biso   1.000  H
  C84      1.0000 0.58610  0.89560  0.84240  Biso   1.000  C
  H48      1.0000 0.62830  0.86760  0.86330  Biso   1.000  H
  O31      1.0000 0.67140  0.11840  0.25260  Biso   1.000  O
  O32      1.0000 0.14840  0.78010  0.77960  Biso   1.000  O
  O33      1.0000 0.96560  0.08340  0.29530  Biso   1.000  O
  O34      1.0000 0.93100  0.96010  0.26600  Biso   1.000  O
  C85      1.0000 0.98830  0.01280  0.27270  Biso   1.000  C
  C86      1.0000 0.08690  0.99500  0.24800  Biso   1.000  C
  C87      1.0000 0.15220  0.03490  0.26820  Biso   1.000  C
  H49      1.0000 0.13940  0.06900  0.29970  Biso   1.000  H
  C88      1.0000 0.10400  0.94350  0.20110  Biso   1.000  C
  H50      1.0000 0.05740  0.91650  0.18840  Biso   1.000  H
  O35      1.0000 0.31390  0.70510  0.68290  Biso   1.000  O
  C89      1.0000 0.26100  0.74100  0.65050  Biso   1.000  C
  C90      1.0000 0.25530  0.69820  0.59420  Biso   1.000  C
  C91      1.0000 0.21280  0.73820  0.55150  Biso   1.000  C
  H51      1.0000 0.18370  0.79300  0.55670  Biso   1.000  H
  C92      1.0000 0.29680  0.61440  0.58460  Biso   1.000  C
  H52      1.0000 0.32660  0.58510  0.61260  Biso   1.000  H
  C93      1.0000 0.29380  0.57580  0.53430  Biso   1.000  C
  H53      1.0000 0.31900  0.51940  0.52940  Biso   1.000  H
  C94      1.0000 0.21210  0.69880  0.50050  Biso   1.000  C
  H54      1.0000 0.18250  0.72730  0.47210  Biso   1.000  H
  C95      1.0000 0.25420  0.61910  0.49170  Biso   1.000  C
  O36      1.0000 0.39460  0.29180  0.72180  Biso   1.000  O
  C96      1.0000 0.46840  0.16990  0.67790  Biso   1.000  C
  C97      1.0000 0.55040  0.20460  0.67580  Biso   1.000  C
  H55      1.0000 0.55450  0.26060  0.68790  Biso   1.000  H
  C98      1.0000 0.62780  0.15570  0.65550  Biso   1.000  C
  H56      1.0000 0.68410  0.17610  0.65770  Biso   1.000  H
  C99      1.0000 0.02690  0.68310  0.68100  Biso   1.000  C
  H57      1.0000 0.05220  0.71690  0.70510  Biso   1.000  H
  O37      1.0000 0.16970  0.60870  0.73500  Biso   1.000  O
  O38      1.0000 0.16070  0.47920  0.69890  Biso   1.000  O
  C100     1.0000 0.13600  0.55820  0.70490  Biso   1.000  C
  C101     1.0000 0.06110  0.59670  0.67350  Biso   1.000  C
  C102     1.0000 0.02480  0.55120  0.63660  Biso   1.000  C
  H58      1.0000 0.04810  0.49480  0.62970  Biso   1.000  H
  C103     1.0000 0.95920  0.71900  0.65500  Biso   1.000  C
  H59      1.0000 0.93620  0.77570  0.66160  Biso   1.000  H
  O39      1.0000 0.18820  0.68590  0.84760  Biso   1.000  O
  C104     1.0000 0.13310  0.74300  0.82850  Biso   1.000  C
  C105     1.0000 0.04600  0.76010  0.86550  Biso   1.000  C
  C106     1.0000 0.89550  0.82100  0.87840  Biso   1.000  C
  H60      1.0000 0.84810  0.85080  0.86310  Biso   1.000  H
  C107     1.0000 0.03550  0.73270  0.92360  Biso   1.000  C
  H61      1.0000 0.08180  0.70160  0.93920  Biso   1.000  H
  C108     1.0000 0.95480  0.75260  0.95780  Biso   1.000  C
  H62      1.0000 0.94830  0.73540  0.99660  Biso   1.000  H
  O40      1.0000 0.15890  0.30170  0.78350  Biso   1.000  O
  O41      1.0000 0.06610  0.19620  0.81160  Biso   1.000  O
  C109     1.0000 0.08620  0.27490  0.81170  Biso   1.000  C
  C110     1.0000 0.02060  0.33900  0.84390  Biso   1.000  C
  Tb5      1.0000 0.70178  0.36327  0.22651  Biso   1.000  Tb
  Tb6      1.0000 0.72793  0.61094  0.26741  Biso   1.000  Tb
  Tb7      1.0000 0.84181  0.83279  0.28107  Biso   1.000  Tb
  Tb8      1.0000 0.81201  0.09041  0.27215  Biso   1.000  Tb
  C111     1.0000 0.48390  0.55430  0.37310  Biso   1.000  C
  H63      1.0000 0.54040  0.57330  0.37600  Biso   1.000  H
  C112     1.0000 0.55460  0.46110  0.29300  Biso   1.000  C
  C113     1.0000 0.32760  0.55490  0.40600  Biso   1.000  C
  C114     1.0000 0.47490  0.49750  0.33220  Biso   1.000  C
  C115     1.0000 0.41170  0.58330  0.40960  Biso   1.000  C
  H64      1.0000 0.41900  0.62220  0.43690  Biso   1.000  H
  C116     1.0000 0.38920  0.47030  0.32800  Biso   1.000  C
  H65      1.0000 0.38250  0.43280  0.29990  Biso   1.000  H
  C117     1.0000 0.31450  0.49760  0.36440  Biso   1.000  C
  H66      1.0000 0.25780  0.47880  0.36150  Biso   1.000  H
  O42      1.0000 0.54390  0.39770  0.26460  Biso   1.000  O
  O43      1.0000 0.63120  0.49540  0.29040  Biso   1.000  O
  O44      1.0000 0.24940  0.58180  0.43990  Biso   1.000  O
  O45      1.0000 0.77970  0.94270  0.22180  Biso   1.000  O
  O46      1.0000 0.75750  0.50790  0.18820  Biso   1.000  O
  O47      1.0000 0.68330  0.63230  0.16800  Biso   1.000  O
  O48      1.0000 0.69710  0.61870  0.37160  Biso   1.000  O
  O49      1.0000 0.81010  0.69470  0.33150  Biso   1.000  O
  O50      1.0000 0.82940  0.86950  0.37670  Biso   1.000  O
  O51      1.0000 0.76180  0.99140  0.34610  Biso   1.000  O
  O52      1.0000 0.83140  0.52200  0.91570  Biso   1.000  O
  O53      1.0000 0.83920  0.05800  0.17300  Biso   1.000  O
  C118     1.0000 0.72910  0.56570  0.15290  Biso   1.000  C
  C119     1.0000 0.76280  0.66080  0.37630  Biso   1.000  C
  C120     1.0000 0.75590  0.55240  0.08950  Biso   1.000  C
  C121     1.0000 0.78820  0.67040  0.43460  Biso   1.000  C
  C122     1.0000 0.87640  0.68130  0.43950  Biso   1.000  C
  H67      1.0000 0.91960  0.68340  0.40710  Biso   1.000  H
  C123     1.0000 0.70950  0.59670  0.04850  Biso   1.000  C
  H68      1.0000 0.66080  0.63450  0.06000  Biso   1.000  H
  C124     1.0000 0.85450  0.48760  0.01370  Biso   1.000  C
  H69      1.0000 0.90340  0.45020  0.00180  Biso   1.000  H
  C125     1.0000 0.89820  0.46140  0.89410  Biso   1.000  C
  C126     1.0000 0.78510  0.94070  0.38550  Biso   1.000  C
  C127     1.0000 0.72230  0.66790  0.48190  Biso   1.000  C
  H70      1.0000 0.66300  0.65960  0.47790  Biso   1.000  H
  C128     1.0000 0.78760  0.91170  0.49100  Biso   1.000  C
  H71      1.0000 0.82220  0.86080  0.48220  Biso   1.000  H
  C129     1.0000 0.82960  0.49830  0.07180  Biso   1.000  C
  H72      1.0000 0.86220  0.46930  0.09850  Biso   1.000  H
  C130     1.0000 0.90110  0.68930  0.49550  Biso   1.000  C
  H73      1.0000 0.96070  0.69480  0.50000  Biso   1.000  H
  C131     1.0000 0.80960  0.53000  0.97450  Biso   1.000  C
  C132     1.0000 0.75800  0.96540  0.44660  Biso   1.000  C
  C133     1.0000 0.74640  0.67800  0.53620  Biso   1.000  C
  H74      1.0000 0.70240  0.67730  0.56810  Biso   1.000  H
  C134     1.0000 0.83370  0.68880  0.54280  Biso   1.000  C
  C135     1.0000 0.88280  0.37210  0.90340  Biso   1.000  C
  H75      1.0000 0.83090  0.35360  0.92630  Biso   1.000  H
  C136     1.0000 0.70970  0.03970  0.45950  Biso   1.000  C
  H76      1.0000 0.69050  0.07630  0.43010  Biso   1.000  H
  C137     1.0000 0.76710  0.93210  0.54780  Biso   1.000  C
  H77      1.0000 0.78620  0.89510  0.57700  Biso   1.000  H
  C138     1.0000 0.73550  0.58500  0.99030  Biso   1.000  C
  H78      1.0000 0.70380  0.61330  0.96290  Biso   1.000  H
  C139     1.0000 0.96990  0.49000  0.85920  Biso   1.000  C
  H79      1.0000 0.97760  0.54990  0.85190  Biso   1.000  H
  O54      1.0000 0.21860  0.81180  0.65650  Biso   1.000  O
  O55      1.0000 0.62710  0.23910  0.20600  Biso   1.000  O
  O56      1.0000 0.85080  0.70750  0.59600  Biso   1.000  O
  C140     1.0000 0.03360  0.42890  0.83340  Biso   1.000  C
  H80      1.0000 0.08420  0.44830  0.80940  Biso   1.000  H
  C141     1.0000 0.61510  0.15770  0.21880  Biso   1.000  C
  C142     1.0000 0.55050  0.10600  0.20250  Biso   1.000  C
  C143     1.0000 0.92550  0.66920  0.61840  Biso   1.000  C
  C144     1.0000 0.97550  0.80190  0.84280  Biso   1.000  C
  H81      1.0000 0.98090  0.81750  0.80370  Biso   1.000  H
  C145     1.0000 0.81000  0.93800  0.12060  Biso   1.000  C
  C146     1.0000 0.75830  0.86770  0.11880  Biso   1.000  C
  H82      1.0000 0.72290  0.84750  0.15220  Biso   1.000  H
  C147     1.0000 0.75650  0.82540  0.06920  Biso   1.000  C
  H83      1.0000 0.72080  0.77770  0.06920  Biso   1.000  H
  C148     1.0000 0.81140  0.98340  0.17420  Biso   1.000  C
  C149     1.0000 0.80930  0.85630  0.01980  Biso   1.000  C
  C150     1.0000 0.94500  0.31040  0.87840  Biso   1.000  C
  H84      1.0000 0.93560  0.25060  0.88490  Biso   1.000  H
  C151     1.0000 0.86240  0.96990  0.06960  Biso   1.000  C
  H85      1.0000 0.89720  0.01820  0.06940  Biso   1.000  H
  O57      1.0000 0.80540  0.81450  0.96950  Biso   1.000  O
  C152     1.0000 0.88590  0.79590  0.93650  Biso   1.000  C
  C153     1.0000 0.95440  0.58400  0.60830  Biso   1.000  C
  H86      1.0000 0.92860  0.55060  0.58420  Biso   1.000  H
  C154     1.0000 0.71720  0.00900  0.55960  Biso   1.000  C
  C155     1.0000 0.68810  0.06300  0.51570  Biso   1.000  C
  H87      1.0000 0.65420  0.11450  0.52380  Biso   1.000  H
  C156     1.0000 0.62070  0.08170  0.63380  Biso   1.000  C
  C157     1.0000 0.54360  0.04280  0.63280  Biso   1.000  C
  H88      1.0000 0.54230  0.98790  0.61830  Biso   1.000  H
  C158     1.0000 0.19150  0.93270  0.17330  Biso   1.000  C
  H89      1.0000 0.20490  0.89790  0.14210  Biso   1.000  H
  C159     1.0000 0.23920  0.02310  0.24040  Biso   1.000  C
  H90      1.0000 0.28560  0.04840  0.25440  Biso   1.000  H
  C160     1.0000 0.25840  0.97570  0.19360  Biso   1.000  C
  C161     1.0000 0.46190  0.09150  0.65560  Biso   1.000  C
  H91      1.0000 0.40600  0.06910  0.65490  Biso   1.000  H
  C162     1.0000 0.86080  0.92720  0.01920  Biso   1.000  C
  H92      1.0000 0.89490  0.94730  0.98520  Biso   1.000  H
  O58      1.0000 0.34360  0.96450  0.16080  Biso   1.000  O
  O59      1.0000 0.31120  0.18410  0.70380  Biso   1.000  O
  C163     1.0000 0.38610  0.21840  0.70390  Biso   1.000  C
  O60      1.0000 0.70050  0.03050  0.61540  Biso   1.000  O
  C164     1.0000 0.54910  0.01850  0.21310  Biso   1.000  C
  H93      1.0000 0.59540  0.98930  0.22990  Biso   1.000  H
  C165     1.0000 0.47980  0.97010  0.19970  Biso   1.000  C
  H94      1.0000 0.47860  0.90980  0.20870  Biso   1.000  H
  C166     1.0000 0.41220  0.01460  0.17250  Biso   1.000  C
  C167     1.0000 0.48000  0.15010  0.17460  Biso   1.000  C
  H95      1.0000 0.47940  0.21090  0.16810  Biso   1.000  H
  C168     1.0000 0.41390  0.10440  0.15760  Biso   1.000  C
  H96      1.0000 0.37170  0.13240  0.13670  Biso   1.000  H
