data_image0
_cell_length_a       14.589
_cell_length_b       15.285
_cell_length_c       22.758
_cell_angle_alpha    84.679
_cell_angle_beta     84.323
_cell_angle_gamma    86.396

_symmetry_space_group_name_H-M    "P 1"
_symmetry_int_tables_number       1

loop_
  _symmetry_equiv_pos_as_xyz
  'x, y, z'

loop_
  _atom_site_label
  _atom_site_occupancy
  _atom_site_fract_x
  _atom_site_fract_y
  _atom_site_fract_z
  _atom_site_thermal_displace_type
  _atom_site_B_iso_or_equiv
  _atom_site_type_symbol
  C1       1.0000 0.07840  0.68150  0.18690  Biso   1.000  C
  H1       1.0000 0.09490  0.73430  0.19910  Biso   1.000  H
  O1       1.0000 0.09860  0.75000  0.68720  Biso   1.000  O
  O2       1.0000 0.14460  0.62370  0.73990  Biso   1.000  O
  C2       1.0000 0.09250  0.67080  0.70180  Biso   1.000  C
  C3       1.0000 0.02710  0.62090  0.67890  Biso   1.000  C
  C4       1.0000 0.95700  0.66720  0.64800  Biso   1.000  C
  H2       1.0000 0.95800  0.72790  0.64000  Biso   1.000  H
  C5       1.0000 0.02820  0.53110  0.68940  Biso   1.000  C
  H3       1.0000 0.07390  0.50070  0.71010  Biso   1.000  H
  C6       1.0000 0.88790  0.62300  0.63010  Biso   1.000  C
  H4       1.0000 0.84080  0.65310  0.61050  Biso   1.000  H
  C7       1.0000 0.96050  0.48690  0.66880  Biso   1.000  C
  H5       1.0000 0.96350  0.42570  0.67330  Biso   1.000  H
  O3       1.0000 0.82990  0.70490  0.23140  Biso   1.000  O
  O4       1.0000 0.94020  0.79510  0.23670  Biso   1.000  O
  C8       1.0000 0.91360  0.72040  0.22330  Biso   1.000  C
  C9       1.0000 0.98650  0.65970  0.19490  Biso   1.000  C
  C10      1.0000 0.96090  0.58330  0.17640  Biso   1.000  C
  H6       1.0000 0.89960  0.56870  0.18120  Biso   1.000  H
  C11      1.0000 0.03030  0.52660  0.14960  Biso   1.000  C
  H7       1.0000 0.01490  0.47400  0.13660  Biso   1.000  H
  O5       1.0000 0.98420  0.09340  0.24780  Biso   1.000  O
  O6       1.0000 0.89050  0.99910  0.21910  Biso   1.000  O
  C12      1.0000 0.97520  0.03330  0.21630  Biso   1.000  C
  C13      1.0000 0.04960  0.99710  0.17420  Biso   1.000  C
  C14      1.0000 0.03240  0.93930  0.13240  Biso   1.000  C
  H8       1.0000 0.97360  0.91960  0.13140  Biso   1.000  H
  C15      1.0000 0.13850  0.02380  0.17590  Biso   1.000  C
  H9       1.0000 0.15050  0.05990  0.20460  Biso   1.000  H
  C16      1.0000 0.20770  0.99800  0.13630  Biso   1.000  C
  H10      1.0000 0.26650  0.01830  0.13640  Biso   1.000  H
  C17      1.0000 0.10240  0.91280  0.09370  Biso   1.000  C
  H11      1.0000 0.09170  0.87520  0.06550  Biso   1.000  H
  O7       1.0000 0.68350  0.98010  0.20130  Biso   1.000  O
  O8       1.0000 0.68640  0.10120  0.24220  Biso   1.000  O
  C18      1.0000 0.64920  0.05940  0.20820  Biso   1.000  C
  C19      1.0000 0.57130  0.08910  0.17800  Biso   1.000  C
  C20      1.0000 0.53460  0.17680  0.18800  Biso   1.000  C
  H12      1.0000 0.56310  0.21080  0.21190  Biso   1.000  H
  O9       1.0000 0.66830  0.80040  0.29170  Biso   1.000  O
  O10      1.0000 0.57220  0.69720  0.31820  Biso   1.000  O
  C21      1.0000 0.59230  0.77560  0.31710  Biso   1.000  C
  C22      1.0000 0.52310  0.84290  0.34290  Biso   1.000  C
  C23      1.0000 0.43990  0.81610  0.37180  Biso   1.000  C
  H13      1.0000 0.42670  0.75700  0.37760  Biso   1.000  H
  C24      1.0000 0.45950  0.20850  0.16290  Biso   1.000  C
  H14      1.0000 0.43210  0.26290  0.17170  Biso   1.000  H
  O11      1.0000 0.74390  0.54850  0.28630  Biso   1.000  O
  O12      1.0000 0.68030  0.43360  0.33840  Biso   1.000  O
  C25      1.0000 0.70840  0.50900  0.33620  Biso   1.000  C
  Eu1      1.0000 0.17849  0.87216  0.71523  Biso   1.000  Eu
  Eu2      1.0000 0.32717  0.33367  0.77222  Biso   1.000  Eu
  Eu3      1.0000 0.20615  0.12089  0.75749  Biso   1.000  Eu
  Eu4      1.0000 0.28959  0.59951  0.76387  Biso   1.000  Eu
  C26      1.0000 0.22640  0.75940  0.84770  Biso   1.000  C
  C27      1.0000 0.43020  0.75300  0.62750  Biso   1.000  C
  C28      1.0000 0.21420  0.07660  0.63730  Biso   1.000  C
  C29      1.0000 0.24210  0.06650  0.57400  Biso   1.000  C
  C30      1.0000 0.27120  0.17220  0.93440  Biso   1.000  C
  C31      1.0000 0.19660  0.10640  0.52800  Biso   1.000  C
  H15      1.0000 0.14530  0.14380  0.53680  Biso   1.000  H
  C32      1.0000 0.19350  0.88680  0.91530  Biso   1.000  C
  H16      1.0000 0.16050  0.91850  0.88660  Biso   1.000  H
  C33      1.0000 0.33650  0.77290  0.65910  Biso   1.000  C
  C34      1.0000 0.32010  0.18460  0.04540  Biso   1.000  C
  C35      1.0000 0.38940  0.18710  0.99970  Biso   1.000  C
  H17      1.0000 0.45060  0.19270  0.00630  Biso   1.000  H
  C36      1.0000 0.36340  0.18080  0.94390  Biso   1.000  C
  H18      1.0000 0.40810  0.18230  0.91180  Biso   1.000  H
  C37      1.0000 0.22290  0.09390  0.46940  Biso   1.000  C
  H19      1.0000 0.18840  0.12030  0.43980  Biso   1.000  H
  C38      1.0000 0.20360  0.16940  0.98160  Biso   1.000  C
  H20      1.0000 0.14200  0.16340  0.97610  Biso   1.000  H
  C39      1.0000 0.68970  0.65060  0.48960  Biso   1.000  C
  C40      1.0000 0.30020  0.04220  0.45550  Biso   1.000  C
  C41      1.0000 0.70470  0.55640  0.38900  Biso   1.000  C
  C42      1.0000 0.20150  0.92240  0.96590  Biso   1.000  C
  H21      1.0000 0.17390  0.97770  0.97220  Biso   1.000  H
  C43      1.0000 0.64180  0.53600  0.75050  Biso   1.000  C
  H22      1.0000 0.63450  0.56570  0.78470  Biso   1.000  H
  C44      1.0000 0.50370  0.71550  0.65680  Biso   1.000  C
  H23      1.0000 0.49500  0.70150  0.69750  Biso   1.000  H
  C45      1.0000 0.47430  0.52170  0.76620  Biso   1.000  C
  O13      1.0000 0.23640  0.50380  0.84470  Biso   1.000  O
  C46      1.0000 0.31730  0.01290  0.55990  Biso   1.000  C
  H24      1.0000 0.34800  0.98240  0.59010  Biso   1.000  H
  C47      1.0000 0.64610  0.53210  0.43960  Biso   1.000  C
  H25      1.0000 0.61260  0.48220  0.44030  Biso   1.000  H
  C48      1.0000 0.75100  0.67220  0.44360  Biso   1.000  C
  H26      1.0000 0.78930  0.71790  0.44570  Biso   1.000  H
  C49      1.0000 0.75850  0.62720  0.39270  Biso   1.000  C
  H27      1.0000 0.80000  0.64490  0.36080  Biso   1.000  H
  C50      1.0000 0.39300  0.96900  0.38090  Biso   1.000  C
  C51      1.0000 0.47190  0.99450  0.35130  Biso   1.000  C
  H28      1.0000 0.48220  0.05410  0.34370  Biso   1.000  H
  C52      1.0000 0.23140  0.17560  0.03600  Biso   1.000  C
  H29      1.0000 0.18730  0.17350  0.06850  Biso   1.000  H
  C53      1.0000 0.44700  0.77480  0.56610  Biso   1.000  C
  H30      1.0000 0.40060  0.80430  0.54560  Biso   1.000  H
  C54      1.0000 0.23280  0.80410  0.90390  Biso   1.000  C
  C55      1.0000 0.60360  0.71660  0.56630  Biso   1.000  C
  C56      1.0000 0.57820  0.45830  0.68200  Biso   1.000  C
  H31      1.0000 0.52820  0.43180  0.67020  Biso   1.000  H
  C57      1.0000 0.28560  0.76090  0.94580  Biso   1.000  C
  H32      1.0000 0.31520  0.70670  0.93860  Biso   1.000  H
  C58      1.0000 0.24860  0.87880  0.00680  Biso   1.000  C
  C59      1.0000 0.34980  0.00230  0.50040  Biso   1.000  C
  H33      1.0000 0.40400  0.96890  0.49140  Biso   1.000  H
  C60      1.0000 0.56640  0.50020  0.73110  Biso   1.000  C
  C61      1.0000 0.63670  0.58000  0.48870  Biso   1.000  C
  H34      1.0000 0.59460  0.56450  0.52080  Biso   1.000  H
  C62      1.0000 0.58950  0.69810  0.62740  Biso   1.000  C
  H35      1.0000 0.63780  0.67410  0.64850  Biso   1.000  H
  C63      1.0000 0.42290  0.16060  0.12400  Biso   1.000  C
  C64      1.0000 0.29500  0.79650  0.99770  Biso   1.000  C
  H36      1.0000 0.33070  0.76760  0.02600  Biso   1.000  H
  C65      1.0000 0.37750  0.88120  0.39160  Biso   1.000  C
  H37      1.0000 0.32270  0.86470  0.41300  Biso   1.000  H
  O14      1.0000 0.23650  0.02160  0.67630  Biso   1.000  O
  O15      1.0000 0.31670  0.73510  0.71010  Biso   1.000  O
  O16      1.0000 0.16520  0.14650  0.65180  Biso   1.000  O
  O17      1.0000 0.30020  0.19560  0.82780  Biso   1.000  O
  O18      1.0000 0.17220  0.13400  0.86520  Biso   1.000  O
  O19      1.0000 0.26810  0.69290  0.83830  Biso   1.000  O
  O20      1.0000 0.28220  0.82970  0.63420  Biso   1.000  O
  O21      1.0000 0.17000  0.80020  0.81360  Biso   1.000  O
  O22      1.0000 0.29540  0.37550  0.86750  Biso   1.000  O
  C66      1.0000 0.24740  0.16960  0.87470  Biso   1.000  C
  O23      1.0000 0.34160  0.19520  0.10170  Biso   1.000  O
  O24      1.0000 0.68830  0.69700  0.53790  Biso   1.000  O
  O25      1.0000 0.26440  0.91610  0.05890  Biso   1.000  O
  O26      1.0000 0.32550  0.03350  0.39750  Biso   1.000  O
  O27      1.0000 0.41280  0.46680  0.76250  Biso   1.000  O
  C67      1.0000 0.26210  0.44420  0.88290  Biso   1.000  C
  C68      1.0000 0.23620  0.46070  0.94460  Biso   1.000  C
  O28      1.0000 0.45180  0.59340  0.78580  Biso   1.000  O
  C69      1.0000 0.53510  0.04800  0.13900  Biso   1.000  C
  H38      1.0000 0.56230  0.99360  0.13010  Biso   1.000  H
  C70      1.0000 0.46050  0.07900  0.11050  Biso   1.000  C
  H39      1.0000 0.43620  0.04700  0.08350  Biso   1.000  H
  C71      1.0000 0.66080  0.45240  0.64830  Biso   1.000  C
  H40      1.0000 0.66630  0.42330  0.61390  Biso   1.000  H
  C72      1.0000 0.73440  0.48930  0.66530  Biso   1.000  C
  C73      1.0000 0.53990  0.93110  0.33140  Biso   1.000  C
  H41      1.0000 0.59500  0.94850  0.31090  Biso   1.000  H
  C74      1.0000 0.18980  0.94140  0.09580  Biso   1.000  C
  C75      1.0000 0.72980  0.52790  0.71870  Biso   1.000  C
  H42      1.0000 0.78210  0.54730  0.73280  Biso   1.000  H
  C76      1.0000 0.18700  0.53040  0.96310  Biso   1.000  C
  H43      1.0000 0.16240  0.57070  0.93490  Biso   1.000  H
  O29      1.0000 0.81520  0.48450  0.62740  Biso   1.000  O
  C77      1.0000 0.88930  0.52970  0.64210  Biso   1.000  C
  C78      1.0000 0.19940  0.48330  0.06270  Biso   1.000  C
  C79      1.0000 0.25610  0.41500  0.04390  Biso   1.000  C
  H44      1.0000 0.28420  0.37630  0.07160  Biso   1.000  H
  C80      1.0000 0.53250  0.75320  0.53490  Biso   1.000  C
  H45      1.0000 0.54080  0.76340  0.49380  Biso   1.000  H
  C81      1.0000 0.27180  0.40290  0.98700  Biso   1.000  C
  H46      1.0000 0.30800  0.35400  0.97550  Biso   1.000  H
  O30      1.0000 0.18890  0.49200  0.12230  Biso   1.000  O
  C82      1.0000 0.12040  0.54990  0.14300  Biso   1.000  C
  C83      1.0000 0.14560  0.62500  0.16090  Biso   1.000  C
  H47      1.0000 0.20710  0.63920  0.15600  Biso   1.000  H
  C84      1.0000 0.17030  0.54660  0.02180  Biso   1.000  C
  H48      1.0000 0.14030  0.59880  0.03300  Biso   1.000  H
  C85      1.0000 0.92160  0.31850  0.81310  Biso   1.000  C
  H49      1.0000 0.90510  0.26570  0.80090  Biso   1.000  H
  O31      1.0000 0.90140  0.25000  0.31280  Biso   1.000  O
  O32      1.0000 0.85540  0.37630  0.26010  Biso   1.000  O
  C86      1.0000 0.90750  0.32920  0.29820  Biso   1.000  C
  C87      1.0000 0.97290  0.37910  0.32110  Biso   1.000  C
  C88      1.0000 0.04300  0.33280  0.35200  Biso   1.000  C
  H50      1.0000 0.04200  0.27210  0.36000  Biso   1.000  H
  C89      1.0000 0.97180  0.46890  0.31060  Biso   1.000  C
  H51      1.0000 0.92610  0.49930  0.28990  Biso   1.000  H
  C90      1.0000 0.11210  0.37700  0.36990  Biso   1.000  C
  H52      1.0000 0.15920  0.34690  0.38950  Biso   1.000  H
  C91      1.0000 0.03950  0.51310  0.33120  Biso   1.000  C
  H53      1.0000 0.03650  0.57430  0.32670  Biso   1.000  H
  O33      1.0000 0.17010  0.29510  0.76860  Biso   1.000  O
  O34      1.0000 0.05980  0.20490  0.76330  Biso   1.000  O
  C92      1.0000 0.08640  0.27960  0.77670  Biso   1.000  C
  C93      1.0000 0.01350  0.34030  0.80510  Biso   1.000  C
  C94      1.0000 0.03910  0.41670  0.82360  Biso   1.000  C
  H54      1.0000 0.10040  0.43130  0.81880  Biso   1.000  H
  C95      1.0000 0.96970  0.47340  0.85040  Biso   1.000  C
  H55      1.0000 0.98510  0.52600  0.86340  Biso   1.000  H
  O35      1.0000 0.01580  0.90660  0.75220  Biso   1.000  O
  O36      1.0000 0.10950  0.00090  0.78090  Biso   1.000  O
  C96      1.0000 0.02480  0.96670  0.78370  Biso   1.000  C
  C97      1.0000 0.95040  0.00290  0.82580  Biso   1.000  C
  C98      1.0000 0.96760  0.06070  0.86760  Biso   1.000  C
  H56      1.0000 0.02640  0.08040  0.86860  Biso   1.000  H
  C99      1.0000 0.86150  0.97620  0.82410  Biso   1.000  C
  H57      1.0000 0.84950  0.94010  0.79540  Biso   1.000  H
  C100     1.0000 0.79230  0.00200  0.86370  Biso   1.000  C
  H58      1.0000 0.73350  0.98170  0.86360  Biso   1.000  H
  C101     1.0000 0.89760  0.08720  0.90630  Biso   1.000  C
  H59      1.0000 0.90830  0.12480  0.93450  Biso   1.000  H
  O37      1.0000 0.31650  0.01990  0.79870  Biso   1.000  O
  O38      1.0000 0.31360  0.89880  0.75780  Biso   1.000  O
  C102     1.0000 0.35080  0.94060  0.79180  Biso   1.000  C
  C103     1.0000 0.42870  0.91090  0.82200  Biso   1.000  C
  C104     1.0000 0.46540  0.82320  0.81200  Biso   1.000  C
  H60      1.0000 0.43690  0.78920  0.78810  Biso   1.000  H
  O39      1.0000 0.33170  0.19960  0.70830  Biso   1.000  O
  O40      1.0000 0.42780  0.30280  0.68180  Biso   1.000  O
  C105     1.0000 0.40770  0.22440  0.68290  Biso   1.000  C
  C106     1.0000 0.47690  0.15710  0.65710  Biso   1.000  C
  C107     1.0000 0.56010  0.18390  0.62820  Biso   1.000  C
  H61      1.0000 0.57330  0.24300  0.62240  Biso   1.000  H
  C108     1.0000 0.54050  0.79150  0.83710  Biso   1.000  C
  H62      1.0000 0.56790  0.73710  0.82830  Biso   1.000  H
  O41      1.0000 0.25610  0.45150  0.71370  Biso   1.000  O
  O42      1.0000 0.31970  0.56640  0.66160  Biso   1.000  O
  C109     1.0000 0.29160  0.49100  0.66380  Biso   1.000  C
  Eu5      1.0000 0.82151  0.12784  0.28477  Biso   1.000  Eu
  Eu6      1.0000 0.67283  0.66633  0.22778  Biso   1.000  Eu
  Eu7      1.0000 0.79385  0.87911  0.24251  Biso   1.000  Eu
  Eu8      1.0000 0.71041  0.40049  0.23613  Biso   1.000  Eu
  C110     1.0000 0.77360  0.24060  0.15230  Biso   1.000  C
  C111     1.0000 0.56980  0.24700  0.37250  Biso   1.000  C
  C112     1.0000 0.78580  0.92340  0.36270  Biso   1.000  C
  C113     1.0000 0.75790  0.93350  0.42600  Biso   1.000  C
  C114     1.0000 0.72880  0.82780  0.06560  Biso   1.000  C
  C115     1.0000 0.80340  0.89360  0.47200  Biso   1.000  C
  H63      1.0000 0.85470  0.85620  0.46320  Biso   1.000  H
  C116     1.0000 0.80650  0.11320  0.08470  Biso   1.000  C
  H64      1.0000 0.83950  0.08150  0.11340  Biso   1.000  H
  C117     1.0000 0.66350  0.22710  0.34090  Biso   1.000  C
  C118     1.0000 0.67990  0.81540  0.95460  Biso   1.000  C
  C119     1.0000 0.61060  0.81290  0.00030  Biso   1.000  C
  H65      1.0000 0.54940  0.80730  0.99370  Biso   1.000  H
  C120     1.0000 0.63660  0.81920  0.05610  Biso   1.000  C
  H66      1.0000 0.59190  0.81770  0.08820  Biso   1.000  H
  C121     1.0000 0.77710  0.90610  0.53060  Biso   1.000  C
  H67      1.0000 0.81160  0.87970  0.56020  Biso   1.000  H
  C122     1.0000 0.79640  0.83060  0.01840  Biso   1.000  C
  H68      1.0000 0.85800  0.83660  0.02390  Biso   1.000  H
  C123     1.0000 0.31030  0.34940  0.51040  Biso   1.000  C
  C124     1.0000 0.69980  0.95780  0.54450  Biso   1.000  C
  C125     1.0000 0.29530  0.44360  0.61100  Biso   1.000  C
  C126     1.0000 0.79850  0.07760  0.03410  Biso   1.000  C
  H69      1.0000 0.82610  0.02230  0.02780  Biso   1.000  H
  C127     1.0000 0.35820  0.46400  0.24950  Biso   1.000  C
  H70      1.0000 0.36550  0.43430  0.21530  Biso   1.000  H
  C128     1.0000 0.49630  0.28450  0.34320  Biso   1.000  C
  H71      1.0000 0.50500  0.29850  0.30250  Biso   1.000  H
  C129     1.0000 0.52570  0.47830  0.23380  Biso   1.000  C
  O43      1.0000 0.76360  0.49620  0.15530  Biso   1.000  O
  C130     1.0000 0.68270  0.98710  0.44010  Biso   1.000  C
  H72      1.0000 0.65200  0.01760  0.40990  Biso   1.000  H
  C131     1.0000 0.35390  0.46790  0.56040  Biso   1.000  C
  H73      1.0000 0.38740  0.51780  0.55970  Biso   1.000  H
  C132     1.0000 0.24900  0.32780  0.55640  Biso   1.000  C
  H74      1.0000 0.21070  0.28210  0.55430  Biso   1.000  H
  C133     1.0000 0.24150  0.37280  0.60730  Biso   1.000  C
  H75      1.0000 0.20000  0.35510  0.63920  Biso   1.000  H
  C134     1.0000 0.60700  0.03100  0.61910  Biso   1.000  C
  C135     1.0000 0.52810  0.00550  0.64870  Biso   1.000  C
  H76      1.0000 0.51780  0.94590  0.65630  Biso   1.000  H
  C136     1.0000 0.76860  0.82440  0.96400  Biso   1.000  C
  H77      1.0000 0.81270  0.82650  0.93150  Biso   1.000  H
  C137     1.0000 0.55300  0.22520  0.43390  Biso   1.000  C
  H78      1.0000 0.59940  0.19570  0.45440  Biso   1.000  H
  C138     1.0000 0.76720  0.19590  0.09610  Biso   1.000  C
  C139     1.0000 0.39640  0.28340  0.43370  Biso   1.000  C
  C140     1.0000 0.42180  0.54170  0.31800  Biso   1.000  C
  H79      1.0000 0.47180  0.56820  0.32980  Biso   1.000  H
  C141     1.0000 0.71440  0.23910  0.05420  Biso   1.000  C
  H80      1.0000 0.68480  0.29330  0.06140  Biso   1.000  H
  C142     1.0000 0.75140  0.12120  0.99320  Biso   1.000  C
  C143     1.0000 0.65020  0.99770  0.49960  Biso   1.000  C
  H81      1.0000 0.59600  0.03110  0.50860  Biso   1.000  H
  C144     1.0000 0.43360  0.49980  0.26890  Biso   1.000  C
  C145     1.0000 0.36330  0.42000  0.51130  Biso   1.000  C
  H82      1.0000 0.40540  0.43550  0.47920  Biso   1.000  H
  C146     1.0000 0.41050  0.30190  0.37260  Biso   1.000  C
  H83      1.0000 0.36220  0.32590  0.35150  Biso   1.000  H
  C147     1.0000 0.57710  0.83940  0.87600  Biso   1.000  C
  C148     1.0000 0.70500  0.20350  0.00230  Biso   1.000  C
  H84      1.0000 0.66930  0.23240  0.97400  Biso   1.000  H
  C149     1.0000 0.62250  0.11880  0.60840  Biso   1.000  C
  H85      1.0000 0.67730  0.13530  0.58700  Biso   1.000  H
  O44      1.0000 0.76350  0.97840  0.32370  Biso   1.000  O
  O45      1.0000 0.68330  0.26490  0.28990  Biso   1.000  O
  O46      1.0000 0.83480  0.85350  0.34820  Biso   1.000  O
  O47      1.0000 0.69980  0.80440  0.17220  Biso   1.000  O
  O48      1.0000 0.82780  0.86600  0.13480  Biso   1.000  O
  O49      1.0000 0.73190  0.30710  0.16170  Biso   1.000  O
  O50      1.0000 0.71780  0.17030  0.36580  Biso   1.000  O
  O51      1.0000 0.83000  0.19980  0.18640  Biso   1.000  O
  O52      1.0000 0.70460  0.62450  0.13250  Biso   1.000  O
  C150     1.0000 0.75260  0.83040  0.12530  Biso   1.000  C
  O53      1.0000 0.65840  0.80480  0.89830  Biso   1.000  O
  O54      1.0000 0.31170  0.30300  0.46210  Biso   1.000  O
  O55      1.0000 0.73560  0.08390  0.94110  Biso   1.000  O
  O56      1.0000 0.67450  0.96650  0.60250  Biso   1.000  O
  O57      1.0000 0.58720  0.53320  0.23750  Biso   1.000  O
  C151     1.0000 0.73790  0.55580  0.11710  Biso   1.000  C
  C152     1.0000 0.76380  0.53930  0.05540  Biso   1.000  C
  O58      1.0000 0.54820  0.40660  0.21420  Biso   1.000  O
  C153     1.0000 0.46490  0.95200  0.86100  Biso   1.000  C
  H86      1.0000 0.43770  0.00640  0.86990  Biso   1.000  H
  C154     1.0000 0.53950  0.92100  0.88950  Biso   1.000  C
  H87      1.0000 0.56380  0.95300  0.91650  Biso   1.000  H
  C155     1.0000 0.33920  0.54760  0.35170  Biso   1.000  C
  H88      1.0000 0.33370  0.57670  0.38610  Biso   1.000  H
  C156     1.0000 0.26560  0.51070  0.33470  Biso   1.000  C
  C157     1.0000 0.46010  0.06890  0.66860  Biso   1.000  C
  H89      1.0000 0.40500  0.05150  0.68910  Biso   1.000  H
  C158     1.0000 0.81020  0.05860  0.90420  Biso   1.000  C
  C159     1.0000 0.27020  0.47210  0.28130  Biso   1.000  C
  H90      1.0000 0.21790  0.45270  0.26720  Biso   1.000  H
  C160     1.0000 0.81300  0.46960  0.03690  Biso   1.000  C
  H91      1.0000 0.83760  0.42930  0.06510  Biso   1.000  H
  O59      1.0000 0.18480  0.51550  0.37260  Biso   1.000  O
  C161     1.0000 0.11070  0.47030  0.35790  Biso   1.000  C
  C162     1.0000 0.80060  0.51670  0.93730  Biso   1.000  C
  C163     1.0000 0.74390  0.58500  0.95610  Biso   1.000  C
  H92      1.0000 0.71580  0.62370  0.92840  Biso   1.000  H
  C164     1.0000 0.46750  0.24680  0.46510  Biso   1.000  C
  H93      1.0000 0.45920  0.23660  0.50620  Biso   1.000  H
  C165     1.0000 0.72820  0.59710  0.01300  Biso   1.000  C
  H94      1.0000 0.69200  0.64600  0.02450  Biso   1.000  H
  O60      1.0000 0.81110  0.50800  0.87770  Biso   1.000  O
  C166     1.0000 0.87960  0.45010  0.85700  Biso   1.000  C
  C167     1.0000 0.85440  0.37500  0.83910  Biso   1.000  C
  H95      1.0000 0.79290  0.36080  0.84400  Biso   1.000  H
  C168     1.0000 0.82970  0.45340  0.97820  Biso   1.000  C
  H96      1.0000 0.85970  0.40120  0.96700  Biso   1.000  H
