data_image0
_cell_length_a       13.5497
_cell_length_b       10.8567
_cell_length_c       14.6263
_cell_angle_alpha    90
_cell_angle_beta     109.784
_cell_angle_gamma    90

_symmetry_space_group_name_H-M    "P 1"
_symmetry_int_tables_number       1

loop_
  _symmetry_equiv_pos_as_xyz
  'x, y, z'

loop_
  _atom_site_label
  _atom_site_occupancy
  _atom_site_fract_x
  _atom_site_fract_y
  _atom_site_fract_z
  _atom_site_thermal_displace_type
  _atom_site_B_iso_or_equiv
  _atom_site_type_symbol
  Co1      1.0000 0.40360  0.91509  0.45713  Biso   1.000  Co
  Co2      1.0000 0.50478  0.02144  0.29475  Biso   1.000  Co
  O1       1.0000 0.29680  0.03794  0.36946  Biso   1.000  O
  O2       1.0000 0.39120  0.14730  0.29933  Biso   1.000  O
  O3       1.0000 0.37994  0.42022  0.23512  Biso   1.000  O
  O4       1.0000 0.31740  0.28750  0.11241  Biso   1.000  O
  O5       1.0000 0.63307  0.28409  0.15489  Biso   1.000  O
  O6       1.0000 0.62777  0.40562  0.27721  Biso   1.000  O
  O7       1.0000 0.61649  0.16122  0.34814  Biso   1.000  O
  O8       1.0000 0.71499  0.15399  0.50453  Biso   1.000  O
  O9       1.0000 0.53840  0.95638  0.43331  Biso   1.000  O
  C1       1.0000 0.31033  0.12697  0.32111  Biso   1.000  C
  C2       1.0000 0.22212  0.21774  0.28523  Biso   1.000  C
  C3       1.0000 0.13632  0.20416  0.31635  Biso   1.000  C
  H1       1.0000 0.13550  0.13860  0.35700  Biso   1.000  H
  C4       1.0000 0.05165  0.28536  0.28874  Biso   1.000  C
  C5       1.0000 0.05525  0.38263  0.22808  Biso   1.000  C
  H2       1.0000 0.00000  0.43850  0.20870  Biso   1.000  H
  C6       1.0000 0.13960  0.39770  0.19614  Biso   1.000  C
  H3       1.0000 0.14000  0.46340  0.15540  Biso   1.000  H
  C7       1.0000 0.22458  0.31568  0.22406  Biso   1.000  C
  C8       1.0000 0.31566  0.34098  0.18794  Biso   1.000  C
  C9       1.0000 0.96249  0.26643  0.32567  Biso   1.000  C
  C10      1.0000 0.86047  0.30092  0.26957  Biso   1.000  C
  H4       1.0000 0.84840  0.33940  0.21000  Biso   1.000  H
  C11      1.0000 0.77705  0.27824  0.30199  Biso   1.000  C
  C12      1.0000 0.79318  0.21686  0.39036  Biso   1.000  C
  C13      1.0000 0.89514  0.18574  0.44722  Biso   1.000  C
  H5       1.0000 0.90730  0.14800  0.50710  Biso   1.000  H
  C14      1.0000 0.97901  0.21036  0.41574  Biso   1.000  C
  H6       1.0000 0.04670  0.18940  0.45490  Biso   1.000  H
  C15      1.0000 0.66919  0.32407  0.24038  Biso   1.000  C
  C16      1.0000 0.70095  0.17488  0.41692  Biso   1.000  C
  H7       1.0000 0.58520  0.89770  0.44180  Biso   1.000  H
  Co3      1.0000 0.59640  0.41509  0.04287  Biso   1.000  Co
  Co4      1.0000 0.49522  0.52144  0.20525  Biso   1.000  Co
  O10      1.0000 0.70320  0.53794  0.13054  Biso   1.000  O
  O11      1.0000 0.60880  0.64730  0.20067  Biso   1.000  O
  O12      1.0000 0.62006  0.92022  0.26488  Biso   1.000  O
  O13      1.0000 0.68260  0.78750  0.38759  Biso   1.000  O
  O14      1.0000 0.36693  0.78409  0.34511  Biso   1.000  O
  O15      1.0000 0.37223  0.90562  0.22279  Biso   1.000  O
  O16      1.0000 0.38351  0.66122  0.15186  Biso   1.000  O
  O17      1.0000 0.28501  0.65399  0.99547  Biso   1.000  O
  O18      1.0000 0.46160  0.45638  0.06669  Biso   1.000  O
  C17      1.0000 0.68967  0.62697  0.17889  Biso   1.000  C
  C18      1.0000 0.77788  0.71774  0.21477  Biso   1.000  C
  C19      1.0000 0.86368  0.70416  0.18365  Biso   1.000  C
  H8       1.0000 0.86450  0.63860  0.14300  Biso   1.000  H
  C20      1.0000 0.94835  0.78536  0.21126  Biso   1.000  C
  C21      1.0000 0.94475  0.88263  0.27192  Biso   1.000  C
  H9       1.0000 0.00000  0.93850  0.29130  Biso   1.000  H
  C22      1.0000 0.86040  0.89770  0.30386  Biso   1.000  C
  H10      1.0000 0.86000  0.96340  0.34460  Biso   1.000  H
  C23      1.0000 0.77542  0.81568  0.27594  Biso   1.000  C
  C24      1.0000 0.68434  0.84098  0.31206  Biso   1.000  C
  C25      1.0000 0.03751  0.76643  0.17433  Biso   1.000  C
  C26      1.0000 0.13953  0.80092  0.23043  Biso   1.000  C
  H11      1.0000 0.15160  0.83940  0.29000  Biso   1.000  H
  C27      1.0000 0.22295  0.77824  0.19801  Biso   1.000  C
  C28      1.0000 0.20682  0.71686  0.10964  Biso   1.000  C
  C29      1.0000 0.10486  0.68574  0.05278  Biso   1.000  C
  H12      1.0000 0.09270  0.64800  0.99290  Biso   1.000  H
  C30      1.0000 0.02099  0.71036  0.08426  Biso   1.000  C
  H13      1.0000 0.95330  0.68940  0.04510  Biso   1.000  H
  C31      1.0000 0.33081  0.82407  0.25962  Biso   1.000  C
  C32      1.0000 0.29905  0.67488  0.08308  Biso   1.000  C
  H14      1.0000 0.41480  0.39770  0.05820  Biso   1.000  H
  Co5      1.0000 0.59640  0.08491  0.54287  Biso   1.000  Co
  Co6      1.0000 0.49522  0.97856  0.70525  Biso   1.000  Co
  O19      1.0000 0.70320  0.96206  0.63054  Biso   1.000  O
  O20      1.0000 0.60880  0.85270  0.70067  Biso   1.000  O
  O21      1.0000 0.62006  0.57978  0.76488  Biso   1.000  O
  O22      1.0000 0.68260  0.71250  0.88759  Biso   1.000  O
  O23      1.0000 0.36693  0.71591  0.84511  Biso   1.000  O
  O24      1.0000 0.37223  0.59438  0.72279  Biso   1.000  O
  O25      1.0000 0.38351  0.83878  0.65186  Biso   1.000  O
  O26      1.0000 0.28501  0.84601  0.49547  Biso   1.000  O
  O27      1.0000 0.46160  0.04362  0.56669  Biso   1.000  O
  C33      1.0000 0.68967  0.87303  0.67889  Biso   1.000  C
  C34      1.0000 0.77788  0.78226  0.71477  Biso   1.000  C
  C35      1.0000 0.86368  0.79584  0.68365  Biso   1.000  C
  H15      1.0000 0.86450  0.86140  0.64300  Biso   1.000  H
  C36      1.0000 0.94835  0.71464  0.71126  Biso   1.000  C
  C37      1.0000 0.94475  0.61737  0.77192  Biso   1.000  C
  H16      1.0000 0.00000  0.56150  0.79130  Biso   1.000  H
  C38      1.0000 0.86040  0.60230  0.80386  Biso   1.000  C
  H17      1.0000 0.86000  0.53660  0.84460  Biso   1.000  H
  C39      1.0000 0.77542  0.68432  0.77594  Biso   1.000  C
  C40      1.0000 0.68434  0.65902  0.81206  Biso   1.000  C
  C41      1.0000 0.03751  0.73357  0.67433  Biso   1.000  C
  C42      1.0000 0.13953  0.69908  0.73043  Biso   1.000  C
  H18      1.0000 0.15160  0.66060  0.79000  Biso   1.000  H
  C43      1.0000 0.22295  0.72176  0.69801  Biso   1.000  C
  C44      1.0000 0.20682  0.78314  0.60964  Biso   1.000  C
  C45      1.0000 0.10486  0.81426  0.55278  Biso   1.000  C
  H19      1.0000 0.09270  0.85200  0.49290  Biso   1.000  H
  C46      1.0000 0.02099  0.78964  0.58426  Biso   1.000  C
  H20      1.0000 0.95330  0.81060  0.54510  Biso   1.000  H
  C47      1.0000 0.33081  0.67593  0.75962  Biso   1.000  C
  C48      1.0000 0.29905  0.82512  0.58308  Biso   1.000  C
  H21      1.0000 0.41480  0.10230  0.55820  Biso   1.000  H
  Co7      1.0000 0.40360  0.58491  0.95713  Biso   1.000  Co
  Co8      1.0000 0.50478  0.47856  0.79475  Biso   1.000  Co
  O28      1.0000 0.29680  0.46206  0.86946  Biso   1.000  O
  O29      1.0000 0.39120  0.35270  0.79933  Biso   1.000  O
  O30      1.0000 0.37994  0.07978  0.73512  Biso   1.000  O
  O31      1.0000 0.31740  0.21250  0.61241  Biso   1.000  O
  O32      1.0000 0.63307  0.21591  0.65489  Biso   1.000  O
  O33      1.0000 0.62777  0.09438  0.77721  Biso   1.000  O
  O34      1.0000 0.61649  0.33878  0.84814  Biso   1.000  O
  O35      1.0000 0.71499  0.34601  0.00453  Biso   1.000  O
  O36      1.0000 0.53840  0.54362  0.93331  Biso   1.000  O
  C49      1.0000 0.31033  0.37303  0.82111  Biso   1.000  C
  C50      1.0000 0.22212  0.28226  0.78523  Biso   1.000  C
  C51      1.0000 0.13632  0.29584  0.81635  Biso   1.000  C
  H22      1.0000 0.13550  0.36140  0.85700  Biso   1.000  H
  C52      1.0000 0.05165  0.21464  0.78874  Biso   1.000  C
  C53      1.0000 0.05525  0.11737  0.72808  Biso   1.000  C
  H23      1.0000 0.00000  0.06150  0.70870  Biso   1.000  H
  C54      1.0000 0.13960  0.10230  0.69614  Biso   1.000  C
  H24      1.0000 0.14000  0.03660  0.65540  Biso   1.000  H
  C55      1.0000 0.22458  0.18432  0.72406  Biso   1.000  C
  C56      1.0000 0.31566  0.15902  0.68794  Biso   1.000  C
  C57      1.0000 0.96249  0.23357  0.82567  Biso   1.000  C
  C58      1.0000 0.86047  0.19908  0.76957  Biso   1.000  C
  H25      1.0000 0.84840  0.16060  0.71000  Biso   1.000  H
  C59      1.0000 0.77705  0.22176  0.80199  Biso   1.000  C
  C60      1.0000 0.79318  0.28314  0.89036  Biso   1.000  C
  C61      1.0000 0.89514  0.31426  0.94722  Biso   1.000  C
  H26      1.0000 0.90730  0.35200  0.00710  Biso   1.000  H
  C62      1.0000 0.97901  0.28964  0.91574  Biso   1.000  C
  H27      1.0000 0.04670  0.31060  0.95490  Biso   1.000  H
  C63      1.0000 0.66919  0.17593  0.74038  Biso   1.000  C
  C64      1.0000 0.70095  0.32512  0.91692  Biso   1.000  C
  H28      1.0000 0.58520  0.60230  0.94180  Biso   1.000  H
