data_image0
_cell_length_a       13.4701
_cell_length_b       10.8298
_cell_length_c       14.6883
_cell_angle_alpha    90
_cell_angle_beta     109.83
_cell_angle_gamma    90

_symmetry_space_group_name_H-M    "P 1"
_symmetry_int_tables_number       1

loop_
  _symmetry_equiv_pos_as_xyz
  'x, y, z'

loop_
  _atom_site_label
  _atom_site_occupancy
  _atom_site_fract_x
  _atom_site_fract_y
  _atom_site_fract_z
  _atom_site_thermal_displace_type
  _atom_site_B_iso_or_equiv
  _atom_site_type_symbol
  Co1      1.0000 0.40150  0.91712  0.45566  Biso   1.000  Co
  Co2      1.0000 0.50557  0.02088  0.29887  Biso   1.000  Co
  O1       1.0000 0.29650  0.03870  0.36800  Biso   1.000  O
  O2       1.0000 0.39160  0.14680  0.29700  Biso   1.000  O
  O3       1.0000 0.38050  0.42430  0.23450  Biso   1.000  O
  O4       1.0000 0.31550  0.29150  0.11150  Biso   1.000  O
  O5       1.0000 0.63290  0.28390  0.15410  Biso   1.000  O
  O6       1.0000 0.62440  0.40510  0.27540  Biso   1.000  O
  O7       1.0000 0.61480  0.16240  0.35020  Biso   1.000  O
  O8       1.0000 0.71450  0.15590  0.50500  Biso   1.000  O
  O9       1.0000 0.54030  0.95390  0.43640  Biso   1.000  O
  C1       1.0000 0.31060  0.12830  0.31980  Biso   1.000  C
  C2       1.0000 0.22230  0.22020  0.28480  Biso   1.000  C
  C3       1.0000 0.13640  0.20640  0.31630  Biso   1.000  C
  H1       1.0000 0.13570  0.13990  0.35620  Biso   1.000  H
  C4       1.0000 0.05180  0.28750  0.29070  Biso   1.000  C
  C5       1.0000 0.05480  0.38690  0.22980  Biso   1.000  C
  H2       1.0000 0.99900  0.44270  0.21080  Biso   1.000  H
  C6       1.0000 0.13890  0.40290  0.19790  Biso   1.000  C
  H3       1.0000 0.13960  0.46950  0.15810  Biso   1.000  H
  C7       1.0000 0.22450  0.31880  0.22490  Biso   1.000  C
  C8       1.0000 0.31540  0.34420  0.18770  Biso   1.000  C
  C9       1.0000 0.96240  0.26870  0.32710  Biso   1.000  C
  C10      1.0000 0.86030  0.30110  0.27100  Biso   1.000  C
  H4       1.0000 0.84840  0.33870  0.21130  Biso   1.000  H
  C11      1.0000 0.77520  0.27860  0.30230  Biso   1.000  C
  C12      1.0000 0.79190  0.21890  0.39060  Biso   1.000  C
  C13      1.0000 0.89480  0.18930  0.44870  Biso   1.000  C
  H5       1.0000 0.90700  0.15280  0.50890  Biso   1.000  H
  C14      1.0000 0.97880  0.21390  0.41730  Biso   1.000  C
  H6       1.0000 0.04700  0.19380  0.45670  Biso   1.000  H
  C15      1.0000 0.66830  0.32340  0.24000  Biso   1.000  C
  C16      1.0000 0.69970  0.17590  0.41780  Biso   1.000  C
  H7       1.0000 0.57000  0.90600  0.43600  Biso   1.000  H
  H8       1.0000 0.55900  0.03500  0.46500  Biso   1.000  H
  Co3      1.0000 0.59850  0.41712  0.04434  Biso   1.000  Co
  Co4      1.0000 0.49443  0.52088  0.20113  Biso   1.000  Co
  O10      1.0000 0.70350  0.53870  0.13200  Biso   1.000  O
  O11      1.0000 0.60840  0.64680  0.20300  Biso   1.000  O
  O12      1.0000 0.61950  0.92430  0.26550  Biso   1.000  O
  O13      1.0000 0.68450  0.79150  0.38850  Biso   1.000  O
  O14      1.0000 0.36710  0.78390  0.34590  Biso   1.000  O
  O15      1.0000 0.37560  0.90510  0.22460  Biso   1.000  O
  O16      1.0000 0.38520  0.66240  0.14980  Biso   1.000  O
  O17      1.0000 0.28550  0.65590  0.99500  Biso   1.000  O
  O18      1.0000 0.45970  0.45390  0.06360  Biso   1.000  O
  C17      1.0000 0.68940  0.62830  0.18020  Biso   1.000  C
  C18      1.0000 0.77770  0.72020  0.21520  Biso   1.000  C
  C19      1.0000 0.86360  0.70640  0.18370  Biso   1.000  C
  H9       1.0000 0.86430  0.63990  0.14380  Biso   1.000  H
  C20      1.0000 0.94820  0.78750  0.20930  Biso   1.000  C
  C21      1.0000 0.94520  0.88690  0.27020  Biso   1.000  C
  H10      1.0000 0.00100  0.94270  0.28920  Biso   1.000  H
  C22      1.0000 0.86110  0.90290  0.30210  Biso   1.000  C
  H11      1.0000 0.86040  0.96950  0.34190  Biso   1.000  H
  C23      1.0000 0.77550  0.81880  0.27510  Biso   1.000  C
  C24      1.0000 0.68460  0.84420  0.31230  Biso   1.000  C
  C25      1.0000 0.03760  0.76870  0.17290  Biso   1.000  C
  C26      1.0000 0.13970  0.80110  0.22900  Biso   1.000  C
  H12      1.0000 0.15160  0.83870  0.28870  Biso   1.000  H
  C27      1.0000 0.22480  0.77860  0.19770  Biso   1.000  C
  C28      1.0000 0.20810  0.71890  0.10940  Biso   1.000  C
  C29      1.0000 0.10520  0.68930  0.05130  Biso   1.000  C
  H13      1.0000 0.09300  0.65280  0.99110  Biso   1.000  H
  C30      1.0000 0.02120  0.71390  0.08270  Biso   1.000  C
  H14      1.0000 0.95300  0.69380  0.04330  Biso   1.000  H
  C31      1.0000 0.33170  0.82340  0.26000  Biso   1.000  C
  C32      1.0000 0.30030  0.67590  0.08220  Biso   1.000  C
  H15      1.0000 0.43000  0.40600  0.06400  Biso   1.000  H
  H16      1.0000 0.44100  0.53500  0.03500  Biso   1.000  H
  Co5      1.0000 0.59850  0.08288  0.54434  Biso   1.000  Co
  Co6      1.0000 0.49443  0.97912  0.70113  Biso   1.000  Co
  O19      1.0000 0.70350  0.96130  0.63200  Biso   1.000  O
  O20      1.0000 0.60840  0.85320  0.70300  Biso   1.000  O
  O21      1.0000 0.61950  0.57570  0.76550  Biso   1.000  O
  O22      1.0000 0.68450  0.70850  0.88850  Biso   1.000  O
  O23      1.0000 0.36710  0.71610  0.84590  Biso   1.000  O
  O24      1.0000 0.37560  0.59490  0.72460  Biso   1.000  O
  O25      1.0000 0.38520  0.83760  0.64980  Biso   1.000  O
  O26      1.0000 0.28550  0.84410  0.49500  Biso   1.000  O
  O27      1.0000 0.45970  0.04610  0.56360  Biso   1.000  O
  C33      1.0000 0.68940  0.87170  0.68020  Biso   1.000  C
  C34      1.0000 0.77770  0.77980  0.71520  Biso   1.000  C
  C35      1.0000 0.86360  0.79360  0.68370  Biso   1.000  C
  H17      1.0000 0.86430  0.86010  0.64380  Biso   1.000  H
  C36      1.0000 0.94820  0.71250  0.70930  Biso   1.000  C
  C37      1.0000 0.94520  0.61310  0.77020  Biso   1.000  C
  H18      1.0000 0.00100  0.55730  0.78920  Biso   1.000  H
  C38      1.0000 0.86110  0.59710  0.80210  Biso   1.000  C
  H19      1.0000 0.86040  0.53050  0.84190  Biso   1.000  H
  C39      1.0000 0.77550  0.68120  0.77510  Biso   1.000  C
  C40      1.0000 0.68460  0.65580  0.81230  Biso   1.000  C
  C41      1.0000 0.03760  0.73130  0.67290  Biso   1.000  C
  C42      1.0000 0.13970  0.69890  0.72900  Biso   1.000  C
  H20      1.0000 0.15160  0.66130  0.78870  Biso   1.000  H
  C43      1.0000 0.22480  0.72140  0.69770  Biso   1.000  C
  C44      1.0000 0.20810  0.78110  0.60940  Biso   1.000  C
  C45      1.0000 0.10520  0.81070  0.55130  Biso   1.000  C
  H21      1.0000 0.09300  0.84720  0.49110  Biso   1.000  H
  C46      1.0000 0.02120  0.78610  0.58270  Biso   1.000  C
  H22      1.0000 0.95300  0.80620  0.54330  Biso   1.000  H
  C47      1.0000 0.33170  0.67660  0.76000  Biso   1.000  C
  C48      1.0000 0.30030  0.82410  0.58220  Biso   1.000  C
  H23      1.0000 0.43000  0.09400  0.56400  Biso   1.000  H
  H24      1.0000 0.44100  0.96500  0.53500  Biso   1.000  H
  Co7      1.0000 0.40150  0.58288  0.95566  Biso   1.000  Co
  Co8      1.0000 0.50557  0.47912  0.79887  Biso   1.000  Co
  O28      1.0000 0.29650  0.46130  0.86800  Biso   1.000  O
  O29      1.0000 0.39160  0.35320  0.79700  Biso   1.000  O
  O30      1.0000 0.38050  0.07570  0.73450  Biso   1.000  O
  O31      1.0000 0.31550  0.20850  0.61150  Biso   1.000  O
  O32      1.0000 0.63290  0.21610  0.65410  Biso   1.000  O
  O33      1.0000 0.62440  0.09490  0.77540  Biso   1.000  O
  O34      1.0000 0.61480  0.33760  0.85020  Biso   1.000  O
  O35      1.0000 0.71450  0.34410  0.00500  Biso   1.000  O
  O36      1.0000 0.54030  0.54610  0.93640  Biso   1.000  O
  C49      1.0000 0.31060  0.37170  0.81980  Biso   1.000  C
  C50      1.0000 0.22230  0.27980  0.78480  Biso   1.000  C
  C51      1.0000 0.13640  0.29360  0.81630  Biso   1.000  C
  H25      1.0000 0.13570  0.36010  0.85620  Biso   1.000  H
  C52      1.0000 0.05180  0.21250  0.79070  Biso   1.000  C
  C53      1.0000 0.05480  0.11310  0.72980  Biso   1.000  C
  H26      1.0000 0.99900  0.05730  0.71080  Biso   1.000  H
  C54      1.0000 0.13890  0.09710  0.69790  Biso   1.000  C
  H27      1.0000 0.13960  0.03050  0.65810  Biso   1.000  H
  C55      1.0000 0.22450  0.18120  0.72490  Biso   1.000  C
  C56      1.0000 0.31540  0.15580  0.68770  Biso   1.000  C
  C57      1.0000 0.96240  0.23130  0.82710  Biso   1.000  C
  C58      1.0000 0.86030  0.19890  0.77100  Biso   1.000  C
  H28      1.0000 0.84840  0.16130  0.71130  Biso   1.000  H
  C59      1.0000 0.77520  0.22140  0.80230  Biso   1.000  C
  C60      1.0000 0.79190  0.28110  0.89060  Biso   1.000  C
  C61      1.0000 0.89480  0.31070  0.94870  Biso   1.000  C
  H29      1.0000 0.90700  0.34720  0.00890  Biso   1.000  H
  C62      1.0000 0.97880  0.28610  0.91730  Biso   1.000  C
  H30      1.0000 0.04700  0.30620  0.95670  Biso   1.000  H
  C63      1.0000 0.66830  0.17660  0.74000  Biso   1.000  C
  C64      1.0000 0.69970  0.32410  0.91780  Biso   1.000  C
  H31      1.0000 0.57000  0.59400  0.93600  Biso   1.000  H
  H32      1.0000 0.55900  0.46500  0.96500  Biso   1.000  H
