data_VULKIX_clean
_audit_creation_date              2014-07-02
_audit_creation_method            'Materials Studio'
_symmetry_space_group_name_H-M    'P1'
_symmetry_Int_Tables_number       1
_symmetry_cell_setting            triclinic
loop_
_symmetry_equiv_pos_as_xyz
  x,y,z
_cell_length_a                    11.0311
_cell_length_b                    11.5197
_cell_length_c                    14.7821
_cell_angle_alpha                 112.9330
_cell_angle_beta                  101.6980
_cell_angle_gamma                 90.0000
loop_
_atom_site_label
_atom_site_type_symbol
_atom_site_fract_x
_atom_site_fract_y
_atom_site_fract_z
_atom_site_U_iso_or_equiv
_atom_site_adp_type
_atom_site_occupancy
Mn1    Mn    0.08460   0.12920   0.00508   0.01267  Uiso   1.00
Mn2    Mn    0.41540   0.12412   0.99492   0.01267  Uiso   1.00
Mn3    Mn    0.91540   0.87080   0.99492   0.01267  Uiso   1.00
Mn4    Mn    0.58460   0.87588   0.00508   0.01267  Uiso   1.00
H1     H     0.92110   0.13930   0.27920   0.01267  Uiso   1.00
H2     H     0.97970   0.21470   0.73280   0.01267  Uiso   1.00
H3     H     0.57890   0.86010   0.72080   0.01267  Uiso   1.00
H4     H     0.52030   0.48190   0.26720   0.01267  Uiso   1.00
H5     H     0.07890   0.86070   0.72080   0.01267  Uiso   1.00
H6     H     0.02030   0.78530   0.26720   0.01267  Uiso   1.00
H7     H     0.42110   0.13990   0.27920   0.01267  Uiso   1.00
H8     H     0.47970   0.51810   0.73280   0.01267  Uiso   1.00
C1     C     0.11950   0.03910   0.17920   0.01267  Uiso   1.00
C2     C     0.09382   0.07742   0.28044   0.01267  Uiso   1.00
C3     C     0.99282   0.12422   0.31704   0.01267  Uiso   1.00
C4     C     0.12555   0.11755   0.45990   0.01267  Uiso   1.00
C5     C     0.01091   0.14711   0.42082   0.01267  Uiso   1.00
C6     C     0.13975   0.13655   0.56270   0.01267  Uiso   1.00
C7     C     0.03505   0.17705   0.59870   0.01267  Uiso   1.00
C8     C     0.04308   0.18988   0.69816   0.01267  Uiso   1.00
C9     C     0.15555   0.16125   0.73710   0.01267  Uiso   1.00
C10    C     0.19793   0.15893   0.83866   0.01267  Uiso   1.00
C11    C     0.38050   0.85990   0.82080   0.01267  Uiso   1.00
C12    C     0.40618   0.79698   0.71956   0.01267  Uiso   1.00
C13    C     0.50718   0.80718   0.68296   0.01267  Uiso   1.00
C14    C     0.37445   0.65765   0.54010   0.01267  Uiso   1.00
C15    C     0.48909   0.72629   0.57918   0.01267  Uiso   1.00
C16    C     0.36025   0.57385   0.43730   0.01267  Uiso   1.00
C17    C     0.46495   0.57835   0.40130   0.01267  Uiso   1.00
C18    C     0.45692   0.49172   0.30184   0.01267  Uiso   1.00
C19    C     0.34445   0.42415   0.26290   0.01267  Uiso   1.00
C20    C     0.30207   0.32027   0.16134   0.01267  Uiso   1.00
C21    C     0.88050   0.96090   0.82080   0.01267  Uiso   1.00
C22    C     0.90618   0.92258   0.71956   0.01267  Uiso   1.00
C23    C     0.00718   0.87578   0.68296   0.01267  Uiso   1.00
C24    C     0.87445   0.88245   0.54010   0.01267  Uiso   1.00
C25    C     0.98909   0.85289   0.57918   0.01267  Uiso   1.00
C26    C     0.86025   0.86345   0.43730   0.01267  Uiso   1.00
C27    C     0.96495   0.82295   0.40130   0.01267  Uiso   1.00
C28    C     0.95692   0.81012   0.30184   0.01267  Uiso   1.00
C29    C     0.84445   0.83875   0.26290   0.01267  Uiso   1.00
C30    C     0.80207   0.84107   0.16134   0.01267  Uiso   1.00
C31    C     0.61950   0.14010   0.17920   0.01267  Uiso   1.00
C32    C     0.59382   0.20302   0.28044   0.01267  Uiso   1.00
C33    C     0.49282   0.19282   0.31704   0.01267  Uiso   1.00
C34    C     0.62555   0.34235   0.45990   0.01267  Uiso   1.00
C35    C     0.51091   0.27371   0.42082   0.01267  Uiso   1.00
C36    C     0.63975   0.42615   0.56270   0.01267  Uiso   1.00
C37    C     0.53505   0.42165   0.59870   0.01267  Uiso   1.00
C38    C     0.54308   0.50828   0.69816   0.01267  Uiso   1.00
C39    C     0.65555   0.57585   0.73710   0.01267  Uiso   1.00
C40    C     0.69793   0.67973   0.83866   0.01267  Uiso   1.00
S1     S     0.21194   0.05886   0.37066   0.01267  Uiso   1.00
S2     S     0.25334   0.11699   0.65326   0.01267  Uiso   1.00
S3     S     0.91816   0.19900   0.50936   0.01267  Uiso   1.00
S4     S     0.28806   0.68820   0.62934   0.01267  Uiso   1.00
S5     S     0.24666   0.46373   0.34674   0.01267  Uiso   1.00
S6     S     0.58184   0.68964   0.49064   0.01267  Uiso   1.00
S7     S     0.78806   0.94114   0.62934   0.01267  Uiso   1.00
S8     S     0.74666   0.88301   0.34674   0.01267  Uiso   1.00
S9     S     0.08184   0.80100   0.49064   0.01267  Uiso   1.00
S10    S     0.71194   0.31180   0.37066   0.01267  Uiso   1.00
S11    S     0.75334   0.53627   0.65326   0.01267  Uiso   1.00
S12    S     0.41816   0.31036   0.50936   0.01267  Uiso   1.00
O1     O     0.30649   0.13229   0.86074   0.01267  Uiso   1.00
O2     O     0.11979   0.18457   0.89286   0.01267  Uiso   1.00
O3     O     0.22464   0.00606   0.16898   0.01267  Uiso   1.00
O4     O     0.03275   0.04364   0.10810   0.01267  Uiso   1.00
O5     O     0.19351   0.27155   0.13926   0.01267  Uiso   1.00
O6     O     0.38021   0.29171   0.10714   0.01267  Uiso   1.00
O7     O     0.27536   0.83708   0.83102   0.01267  Uiso   1.00
O8     O     0.46725   0.93554   0.89190   0.01267  Uiso   1.00
O9     O     0.69351   0.86771   0.13926   0.01267  Uiso   1.00
O10    O     0.88021   0.81543   0.10714   0.01267  Uiso   1.00
O11    O     0.77536   0.99394   0.83102   0.01267  Uiso   1.00
O12    O     0.96725   0.95636   0.89190   0.01267  Uiso   1.00
O13    O     0.80649   0.72845   0.86074   0.01267  Uiso   1.00
O14    O     0.61979   0.70829   0.89286   0.01267  Uiso   1.00
O15    O     0.72464   0.16292   0.16898   0.01267  Uiso   1.00
O16    O     0.53275   0.06446   0.10810   0.01267  Uiso   1.00
O17    O     0.25000   0.01500   1.00000   0.01267  Uiso   1.00
O18    O     0.75000   0.98500   0.00000   0.01267  Uiso   1.00
