data_image0
_cell_length_a       28.4774
_cell_length_b       9.4694
_cell_length_c       18.8921
_cell_angle_alpha    90
_cell_angle_beta     90
_cell_angle_gamma    90

_symmetry_space_group_name_H-M    "P 1"
_symmetry_int_tables_number       1

loop_
  _symmetry_equiv_pos_as_xyz
  'x, y, z'

loop_
  _atom_site_label
  _atom_site_occupancy
  _atom_site_fract_x
  _atom_site_fract_y
  _atom_site_fract_z
  _atom_site_thermal_displace_type
  _atom_site_B_iso_or_equiv
  _atom_site_type_symbol
  Cu1      1.0000 0.06547  0.10780  0.92551  Biso   1.000  Cu
  P1       1.0000 0.09650  0.04840  0.76000  Biso   1.000  P
  O1       1.0000 0.95550  0.32760  0.52070  Biso   1.000  O
  O2       1.0000 0.08450  0.01450  0.83910  Biso   1.000  O
  O3       1.0000 0.11340  0.90970  0.72070  Biso   1.000  O
  O4       1.0000 0.13500  0.16560  0.74960  Biso   1.000  O
  N1       1.0000 0.13440  0.15270  0.95140  Biso   1.000  N
  C1       1.0000 0.04290  0.11030  0.72420  Biso   1.000  C
  C2       1.0000 0.04260  0.20020  0.66500  Biso   1.000  C
  C3       1.0000 0.22570  0.23150  0.98860  Biso   1.000  C
  C4       1.0000 0.18650  0.29150  0.02280  Biso   1.000  C
  C5       1.0000 0.14150  0.24890  0.00090  Biso   1.000  C
  C6       1.0000 0.17030  0.09200  0.91950  Biso   1.000  C
  C7       1.0000 0.21780  0.13360  0.93620  Biso   1.000  C
  H1       1.0000 0.07110  0.21300  0.63900  Biso   1.000  H
  H2       1.0000 0.18990  0.38100  0.04500  Biso   1.000  H
  H3       1.0000 0.11570  0.30500  0.01500  Biso   1.000  H
  H4       1.0000 0.16570  0.00100  0.90100  Biso   1.000  H
  H5       1.0000 0.24200  0.07600  0.92200  Biso   1.000  H
  Cu2      1.0000 0.56547  0.60780  0.92551  Biso   1.000  Cu
  P2       1.0000 0.59650  0.54840  0.76000  Biso   1.000  P
  O5       1.0000 0.45550  0.82760  0.52070  Biso   1.000  O
  O6       1.0000 0.58450  0.51450  0.83910  Biso   1.000  O
  O7       1.0000 0.61340  0.40970  0.72070  Biso   1.000  O
  O8       1.0000 0.63500  0.66560  0.74960  Biso   1.000  O
  N2       1.0000 0.63440  0.65270  0.95140  Biso   1.000  N
  C8       1.0000 0.54290  0.61030  0.72420  Biso   1.000  C
  C9       1.0000 0.54260  0.70020  0.66500  Biso   1.000  C
  C10      1.0000 0.72570  0.73150  0.98860  Biso   1.000  C
  C11      1.0000 0.68650  0.79150  0.02280  Biso   1.000  C
  C12      1.0000 0.64150  0.74890  0.00090  Biso   1.000  C
  C13      1.0000 0.67030  0.59200  0.91950  Biso   1.000  C
  C14      1.0000 0.71780  0.63360  0.93620  Biso   1.000  C
  H6       1.0000 0.57110  0.71300  0.63900  Biso   1.000  H
  H7       1.0000 0.68990  0.88100  0.04500  Biso   1.000  H
  H8       1.0000 0.61570  0.80500  0.01500  Biso   1.000  H
  H9       1.0000 0.66570  0.50100  0.90100  Biso   1.000  H
  H10      1.0000 0.74200  0.57600  0.92200  Biso   1.000  H
  Cu3      1.0000 0.93453  0.39220  0.42551  Biso   1.000  Cu
  P3       1.0000 0.90350  0.45160  0.26000  Biso   1.000  P
  O9       1.0000 0.04450  0.17240  0.02070  Biso   1.000  O
  O10      1.0000 0.91550  0.48550  0.33910  Biso   1.000  O
  O11      1.0000 0.88660  0.59030  0.22070  Biso   1.000  O
  O12      1.0000 0.86500  0.33440  0.24960  Biso   1.000  O
  N3       1.0000 0.86560  0.34730  0.45140  Biso   1.000  N
  C15      1.0000 0.95710  0.38970  0.22420  Biso   1.000  C
  C16      1.0000 0.95740  0.29980  0.16500  Biso   1.000  C
  C17      1.0000 0.77430  0.26850  0.48860  Biso   1.000  C
  C18      1.0000 0.81350  0.20850  0.52280  Biso   1.000  C
  C19      1.0000 0.85850  0.25110  0.50090  Biso   1.000  C
  C20      1.0000 0.82970  0.40800  0.41950  Biso   1.000  C
  C21      1.0000 0.78220  0.36640  0.43620  Biso   1.000  C
  H11      1.0000 0.92890  0.28700  0.13900  Biso   1.000  H
  H12      1.0000 0.81010  0.11900  0.54500  Biso   1.000  H
  H13      1.0000 0.88430  0.19500  0.51500  Biso   1.000  H
  H14      1.0000 0.83430  0.49900  0.40100  Biso   1.000  H
  H15      1.0000 0.75800  0.42400  0.42200  Biso   1.000  H
  Cu4      1.0000 0.43453  0.89220  0.42551  Biso   1.000  Cu
  P4       1.0000 0.40350  0.95160  0.26000  Biso   1.000  P
  O13      1.0000 0.54450  0.67240  0.02070  Biso   1.000  O
  O14      1.0000 0.41550  0.98550  0.33910  Biso   1.000  O
  O15      1.0000 0.38660  0.09030  0.22070  Biso   1.000  O
  O16      1.0000 0.36500  0.83440  0.24960  Biso   1.000  O
  N4       1.0000 0.36560  0.84730  0.45140  Biso   1.000  N
  C22      1.0000 0.45710  0.88970  0.22420  Biso   1.000  C
  C23      1.0000 0.45740  0.79980  0.16500  Biso   1.000  C
  C24      1.0000 0.27430  0.76850  0.48860  Biso   1.000  C
  C25      1.0000 0.31350  0.70850  0.52280  Biso   1.000  C
  C26      1.0000 0.35850  0.75110  0.50090  Biso   1.000  C
  C27      1.0000 0.32970  0.90800  0.41950  Biso   1.000  C
  C28      1.0000 0.28220  0.86640  0.43620  Biso   1.000  C
  H16      1.0000 0.42890  0.78700  0.13900  Biso   1.000  H
  H17      1.0000 0.31010  0.61900  0.54500  Biso   1.000  H
  H18      1.0000 0.38430  0.69500  0.51500  Biso   1.000  H
  H19      1.0000 0.33430  0.99900  0.40100  Biso   1.000  H
  H20      1.0000 0.25800  0.92400  0.42200  Biso   1.000  H
  Cu5      1.0000 0.93453  0.60780  0.57449  Biso   1.000  Cu
  P5       1.0000 0.90350  0.54840  0.74000  Biso   1.000  P
  O17      1.0000 0.04450  0.82760  0.97930  Biso   1.000  O
  O18      1.0000 0.91550  0.51450  0.66090  Biso   1.000  O
  O19      1.0000 0.88660  0.40970  0.77930  Biso   1.000  O
  O20      1.0000 0.86500  0.66560  0.75040  Biso   1.000  O
  N5       1.0000 0.86560  0.65270  0.54860  Biso   1.000  N
  C29      1.0000 0.95710  0.61030  0.77580  Biso   1.000  C
  C30      1.0000 0.95740  0.70020  0.83500  Biso   1.000  C
  C31      1.0000 0.77430  0.73150  0.51140  Biso   1.000  C
  C32      1.0000 0.81350  0.79150  0.47720  Biso   1.000  C
  C33      1.0000 0.85850  0.74890  0.49910  Biso   1.000  C
  C34      1.0000 0.82970  0.59200  0.58050  Biso   1.000  C
  C35      1.0000 0.78220  0.63360  0.56380  Biso   1.000  C
  H21      1.0000 0.92890  0.71300  0.86100  Biso   1.000  H
  H22      1.0000 0.81010  0.88100  0.45500  Biso   1.000  H
  H23      1.0000 0.88430  0.80500  0.48500  Biso   1.000  H
  H24      1.0000 0.83430  0.50100  0.59900  Biso   1.000  H
  H25      1.0000 0.75800  0.57600  0.57800  Biso   1.000  H
  Cu6      1.0000 0.43453  0.10780  0.57449  Biso   1.000  Cu
  P6       1.0000 0.40350  0.04840  0.74000  Biso   1.000  P
  O21      1.0000 0.54450  0.32760  0.97930  Biso   1.000  O
  O22      1.0000 0.41550  0.01450  0.66090  Biso   1.000  O
  O23      1.0000 0.38660  0.90970  0.77930  Biso   1.000  O
  O24      1.0000 0.36500  0.16560  0.75040  Biso   1.000  O
  N6       1.0000 0.36560  0.15270  0.54860  Biso   1.000  N
  C36      1.0000 0.45710  0.11030  0.77580  Biso   1.000  C
  C37      1.0000 0.45740  0.20020  0.83500  Biso   1.000  C
  C38      1.0000 0.27430  0.23150  0.51140  Biso   1.000  C
  C39      1.0000 0.31350  0.29150  0.47720  Biso   1.000  C
  C40      1.0000 0.35850  0.24890  0.49910  Biso   1.000  C
  C41      1.0000 0.32970  0.09200  0.58050  Biso   1.000  C
  C42      1.0000 0.28220  0.13360  0.56380  Biso   1.000  C
  H26      1.0000 0.42890  0.21300  0.86100  Biso   1.000  H
  H27      1.0000 0.31010  0.38100  0.45500  Biso   1.000  H
  H28      1.0000 0.38430  0.30500  0.48500  Biso   1.000  H
  H29      1.0000 0.33430  0.00100  0.59900  Biso   1.000  H
  H30      1.0000 0.25800  0.07600  0.57800  Biso   1.000  H
  Cu7      1.0000 0.06547  0.89220  0.07449  Biso   1.000  Cu
  P7       1.0000 0.09650  0.95160  0.24000  Biso   1.000  P
  O25      1.0000 0.95550  0.67240  0.47930  Biso   1.000  O
  O26      1.0000 0.08450  0.98550  0.16090  Biso   1.000  O
  O27      1.0000 0.11340  0.09030  0.27930  Biso   1.000  O
  O28      1.0000 0.13500  0.83440  0.25040  Biso   1.000  O
  N7       1.0000 0.13440  0.84730  0.04860  Biso   1.000  N
  C43      1.0000 0.04290  0.88970  0.27580  Biso   1.000  C
  C44      1.0000 0.04260  0.79980  0.33500  Biso   1.000  C
  C45      1.0000 0.22570  0.76850  0.01140  Biso   1.000  C
  C46      1.0000 0.18650  0.70850  0.97720  Biso   1.000  C
  C47      1.0000 0.14150  0.75110  0.99910  Biso   1.000  C
  C48      1.0000 0.17030  0.90800  0.08050  Biso   1.000  C
  C49      1.0000 0.21780  0.86640  0.06380  Biso   1.000  C
  H31      1.0000 0.07110  0.78700  0.36100  Biso   1.000  H
  H32      1.0000 0.18990  0.61900  0.95500  Biso   1.000  H
  H33      1.0000 0.11570  0.69500  0.98500  Biso   1.000  H
  H34      1.0000 0.16570  0.99900  0.09900  Biso   1.000  H
  H35      1.0000 0.24200  0.92400  0.07800  Biso   1.000  H
  Cu8      1.0000 0.56547  0.39220  0.07449  Biso   1.000  Cu
  P8       1.0000 0.59650  0.45160  0.24000  Biso   1.000  P
  O29      1.0000 0.45550  0.17240  0.47930  Biso   1.000  O
  O30      1.0000 0.58450  0.48550  0.16090  Biso   1.000  O
  O31      1.0000 0.61340  0.59030  0.27930  Biso   1.000  O
  O32      1.0000 0.63500  0.33440  0.25040  Biso   1.000  O
  N8       1.0000 0.63440  0.34730  0.04860  Biso   1.000  N
  C50      1.0000 0.54290  0.38970  0.27580  Biso   1.000  C
  C51      1.0000 0.54260  0.29980  0.33500  Biso   1.000  C
  C52      1.0000 0.72570  0.26850  0.01140  Biso   1.000  C
  C53      1.0000 0.68650  0.20850  0.97720  Biso   1.000  C
  C54      1.0000 0.64150  0.25110  0.99910  Biso   1.000  C
  C55      1.0000 0.67030  0.40800  0.08050  Biso   1.000  C
  C56      1.0000 0.71780  0.36640  0.06380  Biso   1.000  C
  H36      1.0000 0.57110  0.28700  0.36100  Biso   1.000  H
  H37      1.0000 0.68990  0.11900  0.95500  Biso   1.000  H
  H38      1.0000 0.61570  0.19500  0.98500  Biso   1.000  H
  H39      1.0000 0.66570  0.49900  0.09900  Biso   1.000  H
  H40      1.0000 0.74200  0.42400  0.07800  Biso   1.000  H
  Cu9      1.0000 0.93453  0.89220  0.07449  Biso   1.000  Cu
  P9       1.0000 0.90350  0.95160  0.24000  Biso   1.000  P
  O33      1.0000 0.04450  0.67240  0.47930  Biso   1.000  O
  O34      1.0000 0.91550  0.98550  0.16090  Biso   1.000  O
  O35      1.0000 0.88660  0.09030  0.27930  Biso   1.000  O
  O36      1.0000 0.86500  0.83440  0.25040  Biso   1.000  O
  N9       1.0000 0.86560  0.84730  0.04860  Biso   1.000  N
  C57      1.0000 0.95710  0.88970  0.27580  Biso   1.000  C
  C58      1.0000 0.95740  0.79980  0.33500  Biso   1.000  C
  C59      1.0000 0.77430  0.76850  0.01140  Biso   1.000  C
  C60      1.0000 0.81350  0.70850  0.97720  Biso   1.000  C
  C61      1.0000 0.85850  0.75110  0.99910  Biso   1.000  C
  C62      1.0000 0.82970  0.90800  0.08050  Biso   1.000  C
  C63      1.0000 0.78220  0.86640  0.06380  Biso   1.000  C
  H41      1.0000 0.92890  0.78700  0.36100  Biso   1.000  H
  H42      1.0000 0.81010  0.61900  0.95500  Biso   1.000  H
  H43      1.0000 0.88430  0.69500  0.98500  Biso   1.000  H
  H44      1.0000 0.83430  0.99900  0.09900  Biso   1.000  H
  H45      1.0000 0.75800  0.92400  0.07800  Biso   1.000  H
  Cu10     1.0000 0.43453  0.39220  0.07449  Biso   1.000  Cu
  P10      1.0000 0.40350  0.45160  0.24000  Biso   1.000  P
  O37      1.0000 0.54450  0.17240  0.47930  Biso   1.000  O
  O38      1.0000 0.41550  0.48550  0.16090  Biso   1.000  O
  O39      1.0000 0.38660  0.59030  0.27930  Biso   1.000  O
  O40      1.0000 0.36500  0.33440  0.25040  Biso   1.000  O
  N10      1.0000 0.36560  0.34730  0.04860  Biso   1.000  N
  C64      1.0000 0.45710  0.38970  0.27580  Biso   1.000  C
  C65      1.0000 0.45740  0.29980  0.33500  Biso   1.000  C
  C66      1.0000 0.27430  0.26850  0.01140  Biso   1.000  C
  C67      1.0000 0.31350  0.20850  0.97720  Biso   1.000  C
  C68      1.0000 0.35850  0.25110  0.99910  Biso   1.000  C
  C69      1.0000 0.32970  0.40800  0.08050  Biso   1.000  C
  C70      1.0000 0.28220  0.36640  0.06380  Biso   1.000  C
  H46      1.0000 0.42890  0.28700  0.36100  Biso   1.000  H
  H47      1.0000 0.31010  0.11900  0.95500  Biso   1.000  H
  H48      1.0000 0.38430  0.19500  0.98500  Biso   1.000  H
  H49      1.0000 0.33430  0.49900  0.09900  Biso   1.000  H
  H50      1.0000 0.25800  0.42400  0.07800  Biso   1.000  H
  Cu11     1.0000 0.06547  0.60780  0.57449  Biso   1.000  Cu
  P11      1.0000 0.09650  0.54840  0.74000  Biso   1.000  P
  O41      1.0000 0.95550  0.82760  0.97930  Biso   1.000  O
  O42      1.0000 0.08450  0.51450  0.66090  Biso   1.000  O
  O43      1.0000 0.11340  0.40970  0.77930  Biso   1.000  O
  O44      1.0000 0.13500  0.66560  0.75040  Biso   1.000  O
  N11      1.0000 0.13440  0.65270  0.54860  Biso   1.000  N
  C71      1.0000 0.04290  0.61030  0.77580  Biso   1.000  C
  C72      1.0000 0.04260  0.70020  0.83500  Biso   1.000  C
  C73      1.0000 0.22570  0.73150  0.51140  Biso   1.000  C
  C74      1.0000 0.18650  0.79150  0.47720  Biso   1.000  C
  C75      1.0000 0.14150  0.74890  0.49910  Biso   1.000  C
  C76      1.0000 0.17030  0.59200  0.58050  Biso   1.000  C
  C77      1.0000 0.21780  0.63360  0.56380  Biso   1.000  C
  H51      1.0000 0.07110  0.71300  0.86100  Biso   1.000  H
  H52      1.0000 0.18990  0.88100  0.45500  Biso   1.000  H
  H53      1.0000 0.11570  0.80500  0.48500  Biso   1.000  H
  H54      1.0000 0.16570  0.50100  0.59900  Biso   1.000  H
  H55      1.0000 0.24200  0.57600  0.57800  Biso   1.000  H
  Cu12     1.0000 0.56547  0.10780  0.57449  Biso   1.000  Cu
  P12      1.0000 0.59650  0.04840  0.74000  Biso   1.000  P
  O45      1.0000 0.45550  0.32760  0.97930  Biso   1.000  O
  O46      1.0000 0.58450  0.01450  0.66090  Biso   1.000  O
  O47      1.0000 0.61340  0.90970  0.77930  Biso   1.000  O
  O48      1.0000 0.63500  0.16560  0.75040  Biso   1.000  O
  N12      1.0000 0.63440  0.15270  0.54860  Biso   1.000  N
  C78      1.0000 0.54290  0.11030  0.77580  Biso   1.000  C
  C79      1.0000 0.54260  0.20020  0.83500  Biso   1.000  C
  C80      1.0000 0.72570  0.23150  0.51140  Biso   1.000  C
  C81      1.0000 0.68650  0.29150  0.47720  Biso   1.000  C
  C82      1.0000 0.64150  0.24890  0.49910  Biso   1.000  C
  C83      1.0000 0.67030  0.09200  0.58050  Biso   1.000  C
  C84      1.0000 0.71780  0.13360  0.56380  Biso   1.000  C
  H56      1.0000 0.57110  0.21300  0.86100  Biso   1.000  H
  H57      1.0000 0.68990  0.38100  0.45500  Biso   1.000  H
  H58      1.0000 0.61570  0.30500  0.48500  Biso   1.000  H
  H59      1.0000 0.66570  0.00100  0.59900  Biso   1.000  H
  H60      1.0000 0.74200  0.07600  0.57800  Biso   1.000  H
  Cu13     1.0000 0.06547  0.39220  0.42551  Biso   1.000  Cu
  P13      1.0000 0.09650  0.45160  0.26000  Biso   1.000  P
  O49      1.0000 0.95550  0.17240  0.02070  Biso   1.000  O
  O50      1.0000 0.08450  0.48550  0.33910  Biso   1.000  O
  O51      1.0000 0.11340  0.59030  0.22070  Biso   1.000  O
  O52      1.0000 0.13500  0.33440  0.24960  Biso   1.000  O
  N13      1.0000 0.13440  0.34730  0.45140  Biso   1.000  N
  C85      1.0000 0.04290  0.38970  0.22420  Biso   1.000  C
  C86      1.0000 0.04260  0.29980  0.16500  Biso   1.000  C
  C87      1.0000 0.22570  0.26850  0.48860  Biso   1.000  C
  C88      1.0000 0.18650  0.20850  0.52280  Biso   1.000  C
  C89      1.0000 0.14150  0.25110  0.50090  Biso   1.000  C
  C90      1.0000 0.17030  0.40800  0.41950  Biso   1.000  C
  C91      1.0000 0.21780  0.36640  0.43620  Biso   1.000  C
  H61      1.0000 0.07110  0.28700  0.13900  Biso   1.000  H
  H62      1.0000 0.18990  0.11900  0.54500  Biso   1.000  H
  H63      1.0000 0.11570  0.19500  0.51500  Biso   1.000  H
  H64      1.0000 0.16570  0.49900  0.40100  Biso   1.000  H
  H65      1.0000 0.24200  0.42400  0.42200  Biso   1.000  H
  Cu14     1.0000 0.56547  0.89220  0.42551  Biso   1.000  Cu
  P14      1.0000 0.59650  0.95160  0.26000  Biso   1.000  P
  O53      1.0000 0.45550  0.67240  0.02070  Biso   1.000  O
  O54      1.0000 0.58450  0.98550  0.33910  Biso   1.000  O
  O55      1.0000 0.61340  0.09030  0.22070  Biso   1.000  O
  O56      1.0000 0.63500  0.83440  0.24960  Biso   1.000  O
  N14      1.0000 0.63440  0.84730  0.45140  Biso   1.000  N
  C92      1.0000 0.54290  0.88970  0.22420  Biso   1.000  C
  C93      1.0000 0.54260  0.79980  0.16500  Biso   1.000  C
  C94      1.0000 0.72570  0.76850  0.48860  Biso   1.000  C
  C95      1.0000 0.68650  0.70850  0.52280  Biso   1.000  C
  C96      1.0000 0.64150  0.75110  0.50090  Biso   1.000  C
  C97      1.0000 0.67030  0.90800  0.41950  Biso   1.000  C
  C98      1.0000 0.71780  0.86640  0.43620  Biso   1.000  C
  H66      1.0000 0.57110  0.78700  0.13900  Biso   1.000  H
  H67      1.0000 0.68990  0.61900  0.54500  Biso   1.000  H
  H68      1.0000 0.61570  0.69500  0.51500  Biso   1.000  H
  H69      1.0000 0.66570  0.99900  0.40100  Biso   1.000  H
  H70      1.0000 0.74200  0.92400  0.42200  Biso   1.000  H
  Cu15     1.0000 0.93453  0.10780  0.92551  Biso   1.000  Cu
  P15      1.0000 0.90350  0.04840  0.76000  Biso   1.000  P
  O57      1.0000 0.04450  0.32760  0.52070  Biso   1.000  O
  O58      1.0000 0.91550  0.01450  0.83910  Biso   1.000  O
  O59      1.0000 0.88660  0.90970  0.72070  Biso   1.000  O
  O60      1.0000 0.86500  0.16560  0.74960  Biso   1.000  O
  N15      1.0000 0.86560  0.15270  0.95140  Biso   1.000  N
  C99      1.0000 0.95710  0.11030  0.72420  Biso   1.000  C
  C100     1.0000 0.95740  0.20020  0.66500  Biso   1.000  C
  C101     1.0000 0.77430  0.23150  0.98860  Biso   1.000  C
  C102     1.0000 0.81350  0.29150  0.02280  Biso   1.000  C
  C103     1.0000 0.85850  0.24890  0.00090  Biso   1.000  C
  C104     1.0000 0.82970  0.09200  0.91950  Biso   1.000  C
  C105     1.0000 0.78220  0.13360  0.93620  Biso   1.000  C
  H71      1.0000 0.92890  0.21300  0.63900  Biso   1.000  H
  H72      1.0000 0.81010  0.38100  0.04500  Biso   1.000  H
  H73      1.0000 0.88430  0.30500  0.01500  Biso   1.000  H
  H74      1.0000 0.83430  0.00100  0.90100  Biso   1.000  H
  H75      1.0000 0.75800  0.07600  0.92200  Biso   1.000  H
  Cu16     1.0000 0.43453  0.60780  0.92551  Biso   1.000  Cu
  P16      1.0000 0.40350  0.54840  0.76000  Biso   1.000  P
  O61      1.0000 0.54450  0.82760  0.52070  Biso   1.000  O
  O62      1.0000 0.41550  0.51450  0.83910  Biso   1.000  O
  O63      1.0000 0.38660  0.40970  0.72070  Biso   1.000  O
  O64      1.0000 0.36500  0.66560  0.74960  Biso   1.000  O
  N16      1.0000 0.36560  0.65270  0.95140  Biso   1.000  N
  C106     1.0000 0.45710  0.61030  0.72420  Biso   1.000  C
  C107     1.0000 0.45740  0.70020  0.66500  Biso   1.000  C
  C108     1.0000 0.27430  0.73150  0.98860  Biso   1.000  C
  C109     1.0000 0.31350  0.79150  0.02280  Biso   1.000  C
  C110     1.0000 0.35850  0.74890  0.00090  Biso   1.000  C
  C111     1.0000 0.32970  0.59200  0.91950  Biso   1.000  C
  C112     1.0000 0.28220  0.63360  0.93620  Biso   1.000  C
  H76      1.0000 0.42890  0.71300  0.63900  Biso   1.000  H
  H77      1.0000 0.31010  0.88100  0.04500  Biso   1.000  H
  H78      1.0000 0.38430  0.80500  0.01500  Biso   1.000  H
  H79      1.0000 0.33430  0.50100  0.90100  Biso   1.000  H
  H80      1.0000 0.25800  0.57600  0.92200  Biso   1.000  H
  P17      1.0000 0.00000  0.36150  0.55910  Biso   1.000  P
  O65      1.0000 0.00000  0.51880  0.58290  Biso   1.000  O
  C113     1.0000 0.00000  0.24410  0.63410  Biso   1.000  C
  C114     1.0000 0.00000  0.06440  0.75240  Biso   1.000  C
  H81      1.0000 0.00000  0.01900  0.79700  Biso   1.000  H
  P18      1.0000 0.50000  0.86150  0.55910  Biso   1.000  P
  O66      1.0000 0.50000  0.01880  0.58290  Biso   1.000  O
  C115     1.0000 0.50000  0.74410  0.63410  Biso   1.000  C
  C116     1.0000 0.50000  0.56440  0.75240  Biso   1.000  C
  H82      1.0000 0.50000  0.51900  0.79700  Biso   1.000  H
  P19      1.0000 0.00000  0.13850  0.05910  Biso   1.000  P
  O67      1.0000 0.00000  0.98120  0.08290  Biso   1.000  O
  C117     1.0000 0.00000  0.25590  0.13410  Biso   1.000  C
  C118     1.0000 0.00000  0.43560  0.25240  Biso   1.000  C
  H83      1.0000 0.00000  0.48100  0.29700  Biso   1.000  H
  P20      1.0000 0.50000  0.63850  0.05910  Biso   1.000  P
  O68      1.0000 0.50000  0.48120  0.08290  Biso   1.000  O
  C119     1.0000 0.50000  0.75590  0.13410  Biso   1.000  C
  C120     1.0000 0.50000  0.93560  0.25240  Biso   1.000  C
  H84      1.0000 0.50000  0.98100  0.29700  Biso   1.000  H
  P21      1.0000 0.00000  0.86150  0.94090  Biso   1.000  P
  O69      1.0000 0.00000  0.01880  0.91710  Biso   1.000  O
  C121     1.0000 0.00000  0.74410  0.86590  Biso   1.000  C
  C122     1.0000 0.00000  0.56440  0.74760  Biso   1.000  C
  H85      1.0000 0.00000  0.51900  0.70300  Biso   1.000  H
  P22      1.0000 0.50000  0.36150  0.94090  Biso   1.000  P
  O70      1.0000 0.50000  0.51880  0.91710  Biso   1.000  O
  C123     1.0000 0.50000  0.24410  0.86590  Biso   1.000  C
  C124     1.0000 0.50000  0.06440  0.74760  Biso   1.000  C
  H86      1.0000 0.50000  0.01900  0.70300  Biso   1.000  H
  P23      1.0000 0.00000  0.63850  0.44090  Biso   1.000  P
  O71      1.0000 0.00000  0.48120  0.41710  Biso   1.000  O
  C125     1.0000 0.00000  0.75590  0.36590  Biso   1.000  C
  C126     1.0000 0.00000  0.93560  0.24760  Biso   1.000  C
  H87      1.0000 0.00000  0.98100  0.20300  Biso   1.000  H
  P24      1.0000 0.50000  0.13850  0.44090  Biso   1.000  P
  O72      1.0000 0.50000  0.98120  0.41710  Biso   1.000  O
  C127     1.0000 0.50000  0.25590  0.36590  Biso   1.000  C
  C128     1.0000 0.50000  0.43560  0.24760  Biso   1.000  C
  H88      1.0000 0.50000  0.48100  0.20300  Biso   1.000  H
