data_image0
_cell_length_a       8.096
_cell_length_b       21.507
_cell_length_c       13.935
_cell_angle_alpha    90
_cell_angle_beta     111.81
_cell_angle_gamma    90

_symmetry_space_group_name_H-M    "P 1"
_symmetry_int_tables_number       1

loop_
  _symmetry_equiv_pos_as_xyz
  'x, y, z'

loop_
  _atom_site_label
  _atom_site_occupancy
  _atom_site_fract_x
  _atom_site_fract_y
  _atom_site_fract_z
  _atom_site_thermal_displace_type
  _atom_site_B_iso_or_equiv
  _atom_site_type_symbol
  N1       1.0000 0.76040  0.54506  0.39994  Biso   1.000  N
  N2       1.0000 0.57320  0.61258  0.29665  Biso   1.000  N
  N3       1.0000 0.94600  0.52862  0.63624  Biso   1.000  N
  N4       1.0000 0.93560  0.53108  0.79280  Biso   1.000  N
  N5       1.0000 0.14860  0.91560  0.01008  Biso   1.000  N
  N6       1.0000 0.30620  0.83074  0.07222  Biso   1.000  N
  C1       1.0000 0.74110  0.60195  0.36350  Biso   1.000  C
  H1       1.0000 0.83170  0.63140  0.38140  Biso   1.000  H
  C2       1.0000 0.59400  0.51780  0.35470  Biso   1.000  C
  H2       1.0000 0.56600  0.47730  0.36670  Biso   1.000  H
  C3       1.0000 0.47880  0.55866  0.29060  Biso   1.000  C
  H3       1.0000 0.35960  0.55170  0.25050  Biso   1.000  H
  C4       1.0000 0.50620  0.66929  0.24200  Biso   1.000  C
  C5       1.0000 0.33480  0.68828  0.22650  Biso   1.000  C
  H4       1.0000 0.26450  0.66490  0.25270  Biso   1.000  H
  C6       1.0000 0.61340  0.70385  0.20450  Biso   1.000  C
  H5       1.0000 0.72800  0.69050  0.21480  Biso   1.000  H
  C7       1.0000 0.54810  0.75850  0.15160  Biso   1.000  C
  H6       1.0000 0.61990  0.78290  0.12780  Biso   1.000  H
  C8       1.0000 0.01160  0.50526  0.73051  Biso   1.000  C
  H7       1.0000 0.09930  0.47480  0.75160  Biso   1.000  H
  C9       1.0000 0.82240  0.57231  0.63890  Biso   1.000  C
  H8       1.0000 0.75380  0.59660  0.58310  Biso   1.000  H
  C10      1.0000 0.81560  0.57469  0.73410  Biso   1.000  C
  H9       1.0000 0.74430  0.60060  0.75580  Biso   1.000  H
  C11      1.0000 0.96900  0.51518  0.89857  Biso   1.000  C
  C12      1.0000 0.02530  0.45564  0.93440  Biso   1.000  C
  H10      1.0000 0.04190  0.42610  0.89010  Biso   1.000  H
  C13      1.0000 0.94310  0.55964  0.96370  Biso   1.000  C
  H11      1.0000 0.90490  0.59940  0.93920  Biso   1.000  H
  C14      1.0000 0.18490  0.87145  0.08060  Biso   1.000  C
  H12      1.0000 0.13340  0.86860  0.13000  Biso   1.000  H
  C15      1.0000 0.25330  0.90206  0.95380  Biso   1.000  C
  H13      1.0000 0.25650  0.92540  0.89830  Biso   1.000  H
  C16      1.0000 0.35030  0.85023  0.99040  Biso   1.000  C
  H14      1.0000 0.43020  0.83150  0.96570  Biso   1.000  H
  C17      1.0000 0.37570  0.77666  0.13420  Biso   1.000  C
  C18      1.0000 0.26870  0.74233  0.17150  Biso   1.000  C
  H15      1.0000 0.15330  0.75530  0.15990  Biso   1.000  H
  N7       1.0000 0.23960  0.04506  0.10006  Biso   1.000  N
  N8       1.0000 0.42680  0.11258  0.20335  Biso   1.000  N
  N9       1.0000 0.05400  0.02862  0.86376  Biso   1.000  N
  N10      1.0000 0.06440  0.03108  0.70720  Biso   1.000  N
  N11      1.0000 0.85140  0.41560  0.48992  Biso   1.000  N
  N12      1.0000 0.69380  0.33074  0.42778  Biso   1.000  N
  C19      1.0000 0.25890  0.10195  0.13650  Biso   1.000  C
  H16      1.0000 0.16830  0.13140  0.11860  Biso   1.000  H
  C20      1.0000 0.40600  0.01780  0.14530  Biso   1.000  C
  H17      1.0000 0.43400  0.97730  0.13330  Biso   1.000  H
  C21      1.0000 0.52120  0.05866  0.20940  Biso   1.000  C
  H18      1.0000 0.64040  0.05170  0.24950  Biso   1.000  H
  C22      1.0000 0.49380  0.16929  0.25800  Biso   1.000  C
  C23      1.0000 0.66520  0.18828  0.27350  Biso   1.000  C
  H19      1.0000 0.73550  0.16490  0.24730  Biso   1.000  H
  C24      1.0000 0.38660  0.20385  0.29550  Biso   1.000  C
  H20      1.0000 0.27200  0.19050  0.28520  Biso   1.000  H
  C25      1.0000 0.45190  0.25850  0.34840  Biso   1.000  C
  H21      1.0000 0.38010  0.28290  0.37220  Biso   1.000  H
  C26      1.0000 0.98840  0.00526  0.76949  Biso   1.000  C
  H22      1.0000 0.90070  0.97480  0.74840  Biso   1.000  H
  C27      1.0000 0.17760  0.07231  0.86110  Biso   1.000  C
  H23      1.0000 0.24620  0.09660  0.91690  Biso   1.000  H
  C28      1.0000 0.18440  0.07469  0.76590  Biso   1.000  C
  H24      1.0000 0.25570  0.10060  0.74420  Biso   1.000  H
  C29      1.0000 0.03100  0.01518  0.60143  Biso   1.000  C
  C30      1.0000 0.97470  0.95564  0.56560  Biso   1.000  C
  H25      1.0000 0.95810  0.92610  0.60990  Biso   1.000  H
  C31      1.0000 0.05690  0.05964  0.53630  Biso   1.000  C
  H26      1.0000 0.09510  0.09940  0.56080  Biso   1.000  H
  C32      1.0000 0.81510  0.37145  0.41940  Biso   1.000  C
  H27      1.0000 0.86660  0.36860  0.37000  Biso   1.000  H
  C33      1.0000 0.74670  0.40206  0.54620  Biso   1.000  C
  H28      1.0000 0.74350  0.42540  0.60170  Biso   1.000  H
  C34      1.0000 0.64970  0.35023  0.50960  Biso   1.000  C
  H29      1.0000 0.56980  0.33150  0.53430  Biso   1.000  H
  C35      1.0000 0.62430  0.27666  0.36580  Biso   1.000  C
  C36      1.0000 0.73130  0.24233  0.32850  Biso   1.000  C
  H30      1.0000 0.84670  0.25530  0.34010  Biso   1.000  H
  N13      1.0000 0.23960  0.45494  0.60006  Biso   1.000  N
  N14      1.0000 0.42680  0.38742  0.70335  Biso   1.000  N
  N15      1.0000 0.05400  0.47138  0.36376  Biso   1.000  N
  N16      1.0000 0.06440  0.46892  0.20720  Biso   1.000  N
  N17      1.0000 0.85140  0.08440  0.98992  Biso   1.000  N
  N18      1.0000 0.69380  0.16926  0.92778  Biso   1.000  N
  C37      1.0000 0.25890  0.39805  0.63650  Biso   1.000  C
  H31      1.0000 0.16830  0.36860  0.61860  Biso   1.000  H
  C38      1.0000 0.40600  0.48220  0.64530  Biso   1.000  C
  H32      1.0000 0.43400  0.52270  0.63330  Biso   1.000  H
  C39      1.0000 0.52120  0.44134  0.70940  Biso   1.000  C
  H33      1.0000 0.64040  0.44830  0.74950  Biso   1.000  H
  C40      1.0000 0.49380  0.33071  0.75800  Biso   1.000  C
  C41      1.0000 0.66520  0.31172  0.77350  Biso   1.000  C
  H34      1.0000 0.73550  0.33510  0.74730  Biso   1.000  H
  C42      1.0000 0.38660  0.29615  0.79550  Biso   1.000  C
  H35      1.0000 0.27200  0.30950  0.78520  Biso   1.000  H
  C43      1.0000 0.45190  0.24150  0.84840  Biso   1.000  C
  H36      1.0000 0.38010  0.21710  0.87220  Biso   1.000  H
  C44      1.0000 0.98840  0.49474  0.26949  Biso   1.000  C
  H37      1.0000 0.90070  0.52520  0.24840  Biso   1.000  H
  C45      1.0000 0.17760  0.42769  0.36110  Biso   1.000  C
  H38      1.0000 0.24620  0.40340  0.41690  Biso   1.000  H
  C46      1.0000 0.18440  0.42531  0.26590  Biso   1.000  C
  H39      1.0000 0.25570  0.39940  0.24420  Biso   1.000  H
  C47      1.0000 0.03100  0.48482  0.10143  Biso   1.000  C
  C48      1.0000 0.97470  0.54436  0.06560  Biso   1.000  C
  H40      1.0000 0.95810  0.57390  0.10990  Biso   1.000  H
  C49      1.0000 0.05690  0.44036  0.03630  Biso   1.000  C
  H41      1.0000 0.09510  0.40060  0.06080  Biso   1.000  H
  C50      1.0000 0.81510  0.12855  0.91940  Biso   1.000  C
  H42      1.0000 0.86660  0.13140  0.87000  Biso   1.000  H
  C51      1.0000 0.74670  0.09794  0.04620  Biso   1.000  C
  H43      1.0000 0.74350  0.07460  0.10170  Biso   1.000  H
  C52      1.0000 0.64970  0.14977  0.00960  Biso   1.000  C
  H44      1.0000 0.56980  0.16850  0.03430  Biso   1.000  H
  C53      1.0000 0.62430  0.22334  0.86580  Biso   1.000  C
  C54      1.0000 0.73130  0.25767  0.82850  Biso   1.000  C
  H45      1.0000 0.84670  0.24470  0.84010  Biso   1.000  H
  N19      1.0000 0.76040  0.95494  0.89994  Biso   1.000  N
  N20      1.0000 0.57320  0.88742  0.79665  Biso   1.000  N
  N21      1.0000 0.94600  0.97138  0.13624  Biso   1.000  N
  N22      1.0000 0.93560  0.96892  0.29280  Biso   1.000  N
  N23      1.0000 0.14860  0.58440  0.51008  Biso   1.000  N
  N24      1.0000 0.30620  0.66926  0.57222  Biso   1.000  N
  C55      1.0000 0.74110  0.89805  0.86350  Biso   1.000  C
  H46      1.0000 0.83170  0.86860  0.88140  Biso   1.000  H
  C56      1.0000 0.59400  0.98220  0.85470  Biso   1.000  C
  H47      1.0000 0.56600  0.02270  0.86670  Biso   1.000  H
  C57      1.0000 0.47880  0.94134  0.79060  Biso   1.000  C
  H48      1.0000 0.35960  0.94830  0.75050  Biso   1.000  H
  C58      1.0000 0.50620  0.83071  0.74200  Biso   1.000  C
  C59      1.0000 0.33480  0.81172  0.72650  Biso   1.000  C
  H49      1.0000 0.26450  0.83510  0.75270  Biso   1.000  H
  C60      1.0000 0.61340  0.79615  0.70450  Biso   1.000  C
  H50      1.0000 0.72800  0.80950  0.71480  Biso   1.000  H
  C61      1.0000 0.54810  0.74150  0.65160  Biso   1.000  C
  H51      1.0000 0.61990  0.71710  0.62780  Biso   1.000  H
  C62      1.0000 0.01160  0.99474  0.23051  Biso   1.000  C
  H52      1.0000 0.09930  0.02520  0.25160  Biso   1.000  H
  C63      1.0000 0.82240  0.92769  0.13890  Biso   1.000  C
  H53      1.0000 0.75380  0.90340  0.08310  Biso   1.000  H
  C64      1.0000 0.81560  0.92531  0.23410  Biso   1.000  C
  H54      1.0000 0.74430  0.89940  0.25580  Biso   1.000  H
  C65      1.0000 0.96900  0.98482  0.39857  Biso   1.000  C
  C66      1.0000 0.02530  0.04436  0.43440  Biso   1.000  C
  H55      1.0000 0.04190  0.07390  0.39010  Biso   1.000  H
  C67      1.0000 0.94310  0.94036  0.46370  Biso   1.000  C
  H56      1.0000 0.90490  0.90060  0.43920  Biso   1.000  H
  C68      1.0000 0.18490  0.62855  0.58060  Biso   1.000  C
  H57      1.0000 0.13340  0.63140  0.63000  Biso   1.000  H
  C69      1.0000 0.25330  0.59794  0.45380  Biso   1.000  C
  H58      1.0000 0.25650  0.57460  0.39830  Biso   1.000  H
  C70      1.0000 0.35030  0.64977  0.49040  Biso   1.000  C
  H59      1.0000 0.43020  0.66850  0.46570  Biso   1.000  H
  C71      1.0000 0.37570  0.72334  0.63420  Biso   1.000  C
  C72      1.0000 0.26870  0.75767  0.67150  Biso   1.000  C
  H60      1.0000 0.15330  0.74470  0.65990  Biso   1.000  H
  Co1      1.0000 0.00000  0.50000  0.50000  Biso   1.000  Co
  Co2      1.0000 0.00000  0.00000  0.00000  Biso   1.000  Co
