data_image0
_cell_length_a       9.681
_cell_length_b       9.657
_cell_length_c       9.762
_cell_angle_alpha    90
_cell_angle_beta     102.9
_cell_angle_gamma    90

_symmetry_space_group_name_H-M    "P 1"
_symmetry_int_tables_number       1

loop_
  _symmetry_equiv_pos_as_xyz
  'x, y, z'

loop_
  _atom_site_label
  _atom_site_occupancy
  _atom_site_fract_x
  _atom_site_fract_y
  _atom_site_fract_z
  _atom_site_thermal_displace_type
  _atom_site_B_iso_or_equiv
  _atom_site_type_symbol
  Ga1      1.0000 0.10186  0.23220  0.31559  Biso   1.000  Ga
  Ga2      1.0000 0.11327  0.45786  0.62937  Biso   1.000  Ga
  P1       1.0000 0.29278  0.18547  0.63295  Biso   1.000  P
  P2       1.0000 0.20267  0.53329  0.35042  Biso   1.000  P
  O1       1.0000 0.99958  0.35847  0.44236  Biso   1.000  O
  O2       1.0000 0.21271  0.38947  0.28371  Biso   1.000  O
  O3       1.0000 0.23821  0.51687  0.51290  Biso   1.000  O
  O4       1.0000 0.31244  0.62912  0.31395  Biso   1.000  O
  O5       1.0000 0.23908  0.16968  0.47523  Biso   1.000  O
  O6       1.0000 0.20487  0.28860  0.69637  Biso   1.000  O
  O7       1.0000 0.44817  0.22894  0.65941  Biso   1.000  O
  O8       1.0000 0.05107  0.59054  0.29929  Biso   1.000  O
  O9       1.0000 0.27983  0.04241  0.70182  Biso   1.000  O
  Ga3      1.0000 0.39814  0.73220  0.18441  Biso   1.000  Ga
  Ga4      1.0000 0.38673  0.95786  0.87063  Biso   1.000  Ga
  P3       1.0000 0.20722  0.68547  0.86705  Biso   1.000  P
  P4       1.0000 0.29733  0.03329  0.14958  Biso   1.000  P
  O10      1.0000 0.50042  0.85847  0.05764  Biso   1.000  O
  O11      1.0000 0.28729  0.88947  0.21629  Biso   1.000  O
  O12      1.0000 0.26179  0.01687  0.98710  Biso   1.000  O
  O13      1.0000 0.18756  0.12912  0.18605  Biso   1.000  O
  O14      1.0000 0.26092  0.66968  0.02477  Biso   1.000  O
  O15      1.0000 0.29513  0.78860  0.80363  Biso   1.000  O
  O16      1.0000 0.05183  0.72894  0.84059  Biso   1.000  O
  O17      1.0000 0.44893  0.09054  0.20071  Biso   1.000  O
  O18      1.0000 0.22017  0.54241  0.79818  Biso   1.000  O
  Ga5      1.0000 0.89814  0.76780  0.68441  Biso   1.000  Ga
  Ga6      1.0000 0.88673  0.54214  0.37063  Biso   1.000  Ga
  P5       1.0000 0.70722  0.81453  0.36705  Biso   1.000  P
  P6       1.0000 0.79733  0.46671  0.64958  Biso   1.000  P
  O19      1.0000 0.00042  0.64153  0.55764  Biso   1.000  O
  O20      1.0000 0.78729  0.61053  0.71629  Biso   1.000  O
  O21      1.0000 0.76179  0.48313  0.48710  Biso   1.000  O
  O22      1.0000 0.68756  0.37088  0.68605  Biso   1.000  O
  O23      1.0000 0.76092  0.83032  0.52477  Biso   1.000  O
  O24      1.0000 0.79513  0.71140  0.30363  Biso   1.000  O
  O25      1.0000 0.55183  0.77106  0.34059  Biso   1.000  O
  O26      1.0000 0.94893  0.40946  0.70071  Biso   1.000  O
  O27      1.0000 0.72017  0.95759  0.29818  Biso   1.000  O
  Ga7      1.0000 0.60186  0.26780  0.81559  Biso   1.000  Ga
  Ga8      1.0000 0.61327  0.04214  0.12937  Biso   1.000  Ga
  P7       1.0000 0.79278  0.31453  0.13295  Biso   1.000  P
  P8       1.0000 0.70267  0.96671  0.85042  Biso   1.000  P
  O28      1.0000 0.49958  0.14153  0.94236  Biso   1.000  O
  O29      1.0000 0.71271  0.11053  0.78371  Biso   1.000  O
  O30      1.0000 0.73821  0.98313  0.01290  Biso   1.000  O
  O31      1.0000 0.81244  0.87088  0.81395  Biso   1.000  O
  O32      1.0000 0.73908  0.33032  0.97523  Biso   1.000  O
  O33      1.0000 0.70487  0.21140  0.19637  Biso   1.000  O
  O34      1.0000 0.94817  0.27106  0.15941  Biso   1.000  O
  O35      1.0000 0.55107  0.90946  0.79929  Biso   1.000  O
  O36      1.0000 0.77983  0.45759  0.20182  Biso   1.000  O
