data_image0
_cell_length_a       9.6814
_cell_length_b       9.6568
_cell_length_c       9.7618
_cell_angle_alpha    90
_cell_angle_beta     102.9
_cell_angle_gamma    90

_symmetry_space_group_name_H-M    "P 1"
_symmetry_int_tables_number       1

loop_
  _symmetry_equiv_pos_as_xyz
  'x, y, z'

loop_
  _atom_site_label
  _atom_site_occupancy
  _atom_site_fract_x
  _atom_site_fract_y
  _atom_site_fract_z
  _atom_site_thermal_displace_type
  _atom_site_B_iso_or_equiv
  _atom_site_type_symbol
  P1       1.0000 0.20723  0.18548  0.86704  Biso   1.000  P
  P2       1.0000 0.29730  0.53330  0.14960  Biso   1.000  P
  Ga1      1.0000 0.39815  0.23219  0.18442  Biso   1.000  Ga
  Ga2      1.0000 0.38674  0.45786  0.87063  Biso   1.000  Ga
  O1       1.0000 0.50020  0.35880  0.05780  Biso   1.000  O
  O2       1.0000 0.28730  0.38950  0.21640  Biso   1.000  O
  O3       1.0000 0.26170  0.51690  0.98720  Biso   1.000  O
  O4       1.0000 0.18760  0.62900  0.18610  Biso   1.000  O
  O5       1.0000 0.26090  0.16960  0.02480  Biso   1.000  O
  O6       1.0000 0.29520  0.28850  0.80360  Biso   1.000  O
  O7       1.0000 0.05170  0.22890  0.84060  Biso   1.000  O
  O8       1.0000 0.44880  0.59050  0.20060  Biso   1.000  O
  O9       1.0000 0.22020  0.04240  0.79820  Biso   1.000  O
  H1       1.0000 0.56850  0.29290  0.02880  Biso   1.000  H
  P3       1.0000 0.29277  0.68548  0.63296  Biso   1.000  P
  P4       1.0000 0.20270  0.03330  0.35040  Biso   1.000  P
  Ga3      1.0000 0.10185  0.73219  0.31558  Biso   1.000  Ga
  Ga4      1.0000 0.11326  0.95786  0.62937  Biso   1.000  Ga
  O10      1.0000 0.99980  0.85880  0.44220  Biso   1.000  O
  O11      1.0000 0.21270  0.88950  0.28360  Biso   1.000  O
  O12      1.0000 0.23830  0.01690  0.51280  Biso   1.000  O
  O13      1.0000 0.31240  0.12900  0.31390  Biso   1.000  O
  O14      1.0000 0.23910  0.66960  0.47520  Biso   1.000  O
  O15      1.0000 0.20480  0.78850  0.69640  Biso   1.000  O
  O16      1.0000 0.44830  0.72890  0.65940  Biso   1.000  O
  O17      1.0000 0.05120  0.09050  0.29940  Biso   1.000  O
  O18      1.0000 0.27980  0.54240  0.70180  Biso   1.000  O
  H2       1.0000 0.93150  0.79290  0.47120  Biso   1.000  H
  P5       1.0000 0.79277  0.81452  0.13296  Biso   1.000  P
  P6       1.0000 0.70270  0.46670  0.85040  Biso   1.000  P
  Ga5      1.0000 0.60185  0.76781  0.81558  Biso   1.000  Ga
  Ga6      1.0000 0.61326  0.54214  0.12937  Biso   1.000  Ga
  O19      1.0000 0.49980  0.64120  0.94220  Biso   1.000  O
  O20      1.0000 0.71270  0.61050  0.78360  Biso   1.000  O
  O21      1.0000 0.73830  0.48310  0.01280  Biso   1.000  O
  O22      1.0000 0.81240  0.37100  0.81390  Biso   1.000  O
  O23      1.0000 0.73910  0.83040  0.97520  Biso   1.000  O
  O24      1.0000 0.70480  0.71150  0.19640  Biso   1.000  O
  O25      1.0000 0.94830  0.77110  0.15940  Biso   1.000  O
  O26      1.0000 0.55120  0.40950  0.79940  Biso   1.000  O
  O27      1.0000 0.77980  0.95760  0.20180  Biso   1.000  O
  H3       1.0000 0.43150  0.70710  0.97120  Biso   1.000  H
  P7       1.0000 0.70723  0.31452  0.36704  Biso   1.000  P
  P8       1.0000 0.79730  0.96670  0.64960  Biso   1.000  P
  Ga7      1.0000 0.89815  0.26781  0.68442  Biso   1.000  Ga
  Ga8      1.0000 0.88674  0.04214  0.37063  Biso   1.000  Ga
  O28      1.0000 0.00020  0.14120  0.55780  Biso   1.000  O
  O29      1.0000 0.78730  0.11050  0.71640  Biso   1.000  O
  O30      1.0000 0.76170  0.98310  0.48720  Biso   1.000  O
  O31      1.0000 0.68760  0.87100  0.68610  Biso   1.000  O
  O32      1.0000 0.76090  0.33040  0.52480  Biso   1.000  O
  O33      1.0000 0.79520  0.21150  0.30360  Biso   1.000  O
  O34      1.0000 0.55170  0.27110  0.34060  Biso   1.000  O
  O35      1.0000 0.94880  0.90950  0.70060  Biso   1.000  O
  O36      1.0000 0.72020  0.45760  0.29820  Biso   1.000  O
  H4       1.0000 0.06850  0.20710  0.52880  Biso   1.000  H
