data_image0
_cell_length_a       13.741
_cell_length_b       12.356
_cell_length_c       20.729
_cell_angle_alpha    90
_cell_angle_beta     101.45
_cell_angle_gamma    90

_symmetry_space_group_name_H-M    "P 1"
_symmetry_int_tables_number       1

loop_
  _symmetry_equiv_pos_as_xyz
  'x, y, z'

loop_
  _atom_site_label
  _atom_site_occupancy
  _atom_site_fract_x
  _atom_site_fract_y
  _atom_site_fract_z
  _atom_site_thermal_displace_type
  _atom_site_B_iso_or_equiv
  _atom_site_type_symbol
  Na1      1.0000 0.27120  0.24050  0.31200  Biso   1.000  Na
  Na2      1.0000 0.09440  0.10300  0.72570  Biso   1.000  Na
  Na3      1.0000 0.05700  0.88880  0.46810  Biso   1.000  Na
  Na4      1.0000 0.18410  0.28560  0.48330  Biso   1.000  Na
  S1       1.0000 0.23330  0.04750  0.39470  Biso   1.000  S
  S2       1.0000 0.16240  0.82870  0.71210  Biso   1.000  S
  S3       1.0000 0.25620  0.23990  0.63980  Biso   1.000  S
  O1       1.0000 0.49860  0.71360  0.53470  Biso   1.000  O
  O2       1.0000 0.13500  0.01350  0.40200  Biso   1.000  O
  O3       1.0000 0.26190  0.15270  0.42140  Biso   1.000  O
  O4       1.0000 0.24050  0.04090  0.32470  Biso   1.000  O
  O5       1.0000 0.55750  0.71290  0.66360  Biso   1.000  O
  O6       1.0000 0.13830  0.93620  0.69040  Biso   1.000  O
  O7       1.0000 0.16050  0.80810  0.78140  Biso   1.000  O
  O8       1.0000 0.09700  0.75210  0.67100  Biso   1.000  O
  O9       1.0000 0.60720  0.51790  0.66550  Biso   1.000  O
  O10      1.0000 0.23760  0.20620  0.70320  Biso   1.000  O
  O11      1.0000 0.17840  0.30820  0.60490  Biso   1.000  O
  O12      1.0000 0.27120  0.14990  0.59880  Biso   1.000  O
  C1       1.0000 0.43930  0.79430  0.50500  Biso   1.000  C
  C2       1.0000 0.38840  0.77360  0.44010  Biso   1.000  C
  C3       1.0000 0.32640  0.85270  0.40770  Biso   1.000  C
  C4       1.0000 0.31580  0.95220  0.43590  Biso   1.000  C
  C5       1.0000 0.36640  0.97000  0.50150  Biso   1.000  C
  C6       1.0000 0.42640  0.89210  0.53530  Biso   1.000  C
  C7       1.0000 0.47410  0.91100  0.60780  Biso   1.000  C
  C8       1.0000 0.46900  0.74360  0.67730  Biso   1.000  C
  C9       1.0000 0.42410  0.83750  0.65280  Biso   1.000  C
  C10      1.0000 0.33110  0.86900  0.66390  Biso   1.000  C
  C11      1.0000 0.28360  0.79850  0.70160  Biso   1.000  C
  C12      1.0000 0.32700  0.70520  0.72620  Biso   1.000  C
  C13      1.0000 0.42060  0.67440  0.71810  Biso   1.000  C
  C14      1.0000 0.46760  0.57230  0.74710  Biso   1.000  C
  C15      1.0000 0.52860  0.45010  0.66320  Biso   1.000  C
  C16      1.0000 0.45480  0.47470  0.70160  Biso   1.000  C
  C17      1.0000 0.37310  0.40660  0.69390  Biso   1.000  C
  C18      1.0000 0.36550  0.31650  0.65460  Biso   1.000  C
  C19      1.0000 0.44220  0.29000  0.62030  Biso   1.000  C
  C20      1.0000 0.52460  0.35720  0.62700  Biso   1.000  C
  C21      1.0000 0.39070  0.66230  0.40900  Biso   1.000  C
  O13      1.0000 0.10210  0.01530  0.55930  Biso   1.000  O
  O14      1.0000 0.08540  0.22460  0.28110  Biso   1.000  O
  O15      1.0000 0.20510  0.41870  0.33410  Biso   1.000  O
  O16      1.0000 0.96570  0.81060  0.55030  Biso   1.000  O
  O17      1.0000 0.99000  0.21000  0.63250  Biso   1.000  O
  Na5      1.0000 0.72880  0.74050  0.18800  Biso   1.000  Na
  Na6      1.0000 0.90560  0.60300  0.77430  Biso   1.000  Na
  Na7      1.0000 0.94300  0.38880  0.03190  Biso   1.000  Na
  Na8      1.0000 0.81590  0.78560  0.01670  Biso   1.000  Na
  S4       1.0000 0.76670  0.54750  0.10530  Biso   1.000  S
  S5       1.0000 0.83760  0.32870  0.78790  Biso   1.000  S
  S6       1.0000 0.74380  0.73990  0.86020  Biso   1.000  S
  O18      1.0000 0.50140  0.21360  0.96530  Biso   1.000  O
  O19      1.0000 0.86500  0.51350  0.09800  Biso   1.000  O
  O20      1.0000 0.73810  0.65270  0.07860  Biso   1.000  O
  O21      1.0000 0.75950  0.54090  0.17530  Biso   1.000  O
  O22      1.0000 0.44250  0.21290  0.83640  Biso   1.000  O
  O23      1.0000 0.86170  0.43620  0.80960  Biso   1.000  O
  O24      1.0000 0.83950  0.30810  0.71860  Biso   1.000  O
  O25      1.0000 0.90300  0.25210  0.82900  Biso   1.000  O
  O26      1.0000 0.39280  0.01790  0.83450  Biso   1.000  O
  O27      1.0000 0.76240  0.70620  0.79680  Biso   1.000  O
  O28      1.0000 0.82160  0.80820  0.89510  Biso   1.000  O
  O29      1.0000 0.72880  0.64990  0.90120  Biso   1.000  O
  C22      1.0000 0.56070  0.29430  0.99500  Biso   1.000  C
  C23      1.0000 0.61160  0.27360  0.05990  Biso   1.000  C
  C24      1.0000 0.67360  0.35270  0.09230  Biso   1.000  C
  C25      1.0000 0.68420  0.45220  0.06410  Biso   1.000  C
  C26      1.0000 0.63360  0.47000  0.99850  Biso   1.000  C
  C27      1.0000 0.57360  0.39210  0.96470  Biso   1.000  C
  C28      1.0000 0.52590  0.41100  0.89220  Biso   1.000  C
  C29      1.0000 0.53100  0.24360  0.82270  Biso   1.000  C
  C30      1.0000 0.57590  0.33750  0.84720  Biso   1.000  C
  C31      1.0000 0.66890  0.36900  0.83610  Biso   1.000  C
  C32      1.0000 0.71640  0.29850  0.79840  Biso   1.000  C
  C33      1.0000 0.67300  0.20520  0.77380  Biso   1.000  C
  C34      1.0000 0.57940  0.17440  0.78190  Biso   1.000  C
  C35      1.0000 0.53240  0.07230  0.75290  Biso   1.000  C
  C36      1.0000 0.47140  0.95010  0.83680  Biso   1.000  C
  C37      1.0000 0.54520  0.97470  0.79840  Biso   1.000  C
  C38      1.0000 0.62690  0.90660  0.80610  Biso   1.000  C
  C39      1.0000 0.63450  0.81650  0.84540  Biso   1.000  C
  C40      1.0000 0.55780  0.79000  0.87970  Biso   1.000  C
  C41      1.0000 0.47540  0.85720  0.87300  Biso   1.000  C
  C42      1.0000 0.60930  0.16230  0.09100  Biso   1.000  C
  O30      1.0000 0.89790  0.51530  0.94070  Biso   1.000  O
  O31      1.0000 0.91460  0.72460  0.21890  Biso   1.000  O
  O32      1.0000 0.79490  0.91870  0.16590  Biso   1.000  O
  O33      1.0000 0.03430  0.31060  0.94970  Biso   1.000  O
  O34      1.0000 0.01000  0.71000  0.86750  Biso   1.000  O
  Na9      1.0000 0.72880  0.75950  0.68800  Biso   1.000  Na
  Na10     1.0000 0.90560  0.89700  0.27430  Biso   1.000  Na
  Na11     1.0000 0.94300  0.11120  0.53190  Biso   1.000  Na
  Na12     1.0000 0.81590  0.71440  0.51670  Biso   1.000  Na
  S7       1.0000 0.76670  0.95250  0.60530  Biso   1.000  S
  S8       1.0000 0.83760  0.17130  0.28790  Biso   1.000  S
  S9       1.0000 0.74380  0.76010  0.36020  Biso   1.000  S
  O35      1.0000 0.50140  0.28640  0.46530  Biso   1.000  O
  O36      1.0000 0.86500  0.98650  0.59800  Biso   1.000  O
  O37      1.0000 0.73810  0.84730  0.57860  Biso   1.000  O
  O38      1.0000 0.75950  0.95910  0.67530  Biso   1.000  O
  O39      1.0000 0.44250  0.28710  0.33640  Biso   1.000  O
  O40      1.0000 0.86170  0.06380  0.30960  Biso   1.000  O
  O41      1.0000 0.83950  0.19190  0.21860  Biso   1.000  O
  O42      1.0000 0.90300  0.24790  0.32900  Biso   1.000  O
  O43      1.0000 0.39280  0.48210  0.33450  Biso   1.000  O
  O44      1.0000 0.76240  0.79380  0.29680  Biso   1.000  O
  O45      1.0000 0.82160  0.69180  0.39510  Biso   1.000  O
  O46      1.0000 0.72880  0.85010  0.40120  Biso   1.000  O
  C43      1.0000 0.56070  0.20570  0.49500  Biso   1.000  C
  C44      1.0000 0.61160  0.22640  0.55990  Biso   1.000  C
  C45      1.0000 0.67360  0.14730  0.59230  Biso   1.000  C
  C46      1.0000 0.68420  0.04780  0.56410  Biso   1.000  C
  C47      1.0000 0.63360  0.03000  0.49850  Biso   1.000  C
  C48      1.0000 0.57360  0.10790  0.46470  Biso   1.000  C
  C49      1.0000 0.52590  0.08900  0.39220  Biso   1.000  C
  C50      1.0000 0.53100  0.25640  0.32270  Biso   1.000  C
  C51      1.0000 0.57590  0.16250  0.34720  Biso   1.000  C
  C52      1.0000 0.66890  0.13100  0.33610  Biso   1.000  C
  C53      1.0000 0.71640  0.20150  0.29840  Biso   1.000  C
  C54      1.0000 0.67300  0.29480  0.27380  Biso   1.000  C
  C55      1.0000 0.57940  0.32560  0.28190  Biso   1.000  C
  C56      1.0000 0.53240  0.42770  0.25290  Biso   1.000  C
  C57      1.0000 0.47140  0.54990  0.33680  Biso   1.000  C
  C58      1.0000 0.54520  0.52530  0.29840  Biso   1.000  C
  C59      1.0000 0.62690  0.59340  0.30610  Biso   1.000  C
  C60      1.0000 0.63450  0.68350  0.34540  Biso   1.000  C
  C61      1.0000 0.55780  0.71000  0.37970  Biso   1.000  C
  C62      1.0000 0.47540  0.64280  0.37300  Biso   1.000  C
  C63      1.0000 0.60930  0.33770  0.59100  Biso   1.000  C
  O47      1.0000 0.89790  0.98470  0.44070  Biso   1.000  O
  O48      1.0000 0.91460  0.77540  0.71890  Biso   1.000  O
  O49      1.0000 0.79490  0.58130  0.66590  Biso   1.000  O
  O50      1.0000 0.03430  0.18940  0.44970  Biso   1.000  O
  O51      1.0000 0.01000  0.79000  0.36750  Biso   1.000  O
  Na13     1.0000 0.27120  0.25950  0.81200  Biso   1.000  Na
  Na14     1.0000 0.09440  0.39700  0.22570  Biso   1.000  Na
  Na15     1.0000 0.05700  0.61120  0.96810  Biso   1.000  Na
  Na16     1.0000 0.18410  0.21440  0.98330  Biso   1.000  Na
  S10      1.0000 0.23330  0.45250  0.89470  Biso   1.000  S
  S11      1.0000 0.16240  0.67130  0.21210  Biso   1.000  S
  S12      1.0000 0.25620  0.26010  0.13980  Biso   1.000  S
  O52      1.0000 0.49860  0.78640  0.03470  Biso   1.000  O
  O53      1.0000 0.13500  0.48650  0.90200  Biso   1.000  O
  O54      1.0000 0.26190  0.34730  0.92140  Biso   1.000  O
  O55      1.0000 0.24050  0.45910  0.82470  Biso   1.000  O
  O56      1.0000 0.55750  0.78710  0.16360  Biso   1.000  O
  O57      1.0000 0.13830  0.56380  0.19040  Biso   1.000  O
  O58      1.0000 0.16050  0.69190  0.28140  Biso   1.000  O
  O59      1.0000 0.09700  0.74790  0.17100  Biso   1.000  O
  O60      1.0000 0.60720  0.98210  0.16550  Biso   1.000  O
  O61      1.0000 0.23760  0.29380  0.20320  Biso   1.000  O
  O62      1.0000 0.17840  0.19180  0.10490  Biso   1.000  O
  O63      1.0000 0.27120  0.35010  0.09880  Biso   1.000  O
  C64      1.0000 0.43930  0.70570  0.00500  Biso   1.000  C
  C65      1.0000 0.38840  0.72640  0.94010  Biso   1.000  C
  C66      1.0000 0.32640  0.64730  0.90770  Biso   1.000  C
  C67      1.0000 0.31580  0.54780  0.93590  Biso   1.000  C
  C68      1.0000 0.36640  0.53000  0.00150  Biso   1.000  C
  C69      1.0000 0.42640  0.60790  0.03530  Biso   1.000  C
  C70      1.0000 0.47410  0.58900  0.10780  Biso   1.000  C
  C71      1.0000 0.46900  0.75640  0.17730  Biso   1.000  C
  C72      1.0000 0.42410  0.66250  0.15280  Biso   1.000  C
  C73      1.0000 0.33110  0.63100  0.16390  Biso   1.000  C
  C74      1.0000 0.28360  0.70150  0.20160  Biso   1.000  C
  C75      1.0000 0.32700  0.79480  0.22620  Biso   1.000  C
  C76      1.0000 0.42060  0.82560  0.21810  Biso   1.000  C
  C77      1.0000 0.46760  0.92770  0.24710  Biso   1.000  C
  C78      1.0000 0.52860  0.04990  0.16320  Biso   1.000  C
  C79      1.0000 0.45480  0.02530  0.20160  Biso   1.000  C
  C80      1.0000 0.37310  0.09340  0.19390  Biso   1.000  C
  C81      1.0000 0.36550  0.18350  0.15460  Biso   1.000  C
  C82      1.0000 0.44220  0.21000  0.12030  Biso   1.000  C
  C83      1.0000 0.52460  0.14280  0.12700  Biso   1.000  C
  C84      1.0000 0.39070  0.83770  0.90900  Biso   1.000  C
  O64      1.0000 0.10210  0.48470  0.05930  Biso   1.000  O
  O65      1.0000 0.08540  0.27540  0.78110  Biso   1.000  O
  O66      1.0000 0.20510  0.08130  0.83410  Biso   1.000  O
  O67      1.0000 0.96570  0.68940  0.05030  Biso   1.000  O
  O68      1.0000 0.99000  0.29000  0.13250  Biso   1.000  O
