data_image0
_cell_length_a       29.846
_cell_length_b       21.31
_cell_length_c       12.09
_cell_angle_alpha    90
_cell_angle_beta     90
_cell_angle_gamma    90

_symmetry_space_group_name_H-M    "P 1"
_symmetry_int_tables_number       1

loop_
  _symmetry_equiv_pos_as_xyz
  'x, y, z'

loop_
  _atom_site_label
  _atom_site_occupancy
  _atom_site_fract_x
  _atom_site_fract_y
  _atom_site_fract_z
  _atom_site_thermal_displace_type
  _atom_site_B_iso_or_equiv
  _atom_site_type_symbol
  Fe1      1.0000 0.47485  0.24062  0.15566  Biso   1.000  Fe
  Fe2      1.0000 0.64892  0.11245  0.66380  Biso   1.000  Fe
  Fe3      1.0000 0.65784  0.54653  0.16011  Biso   1.000  Fe
  N1       1.0000 0.51750  0.17970  0.25600  Biso   1.000  N
  C1       1.0000 0.53720  0.14660  0.30980  Biso   1.000  C
  N2       1.0000 0.55650  0.10490  0.37020  Biso   1.000  N
  C2       1.0000 0.58440  0.11390  0.44530  Biso   1.000  C
  N3       1.0000 0.60870  0.11400  0.51280  Biso   1.000  N
  N4       1.0000 0.53040  0.30250  0.12070  Biso   1.000  N
  C3       1.0000 0.55220  0.34160  0.08260  Biso   1.000  C
  N5       1.0000 0.57580  0.38020  0.02880  Biso   1.000  N
  C4       1.0000 0.59860  0.42490  0.08930  Biso   1.000  C
  N6       1.0000 0.61790  0.46540  0.12110  Biso   1.000  N
  N7       1.0000 0.43210  0.30070  0.06340  Biso   1.000  N
  C5       1.0000 0.42640  0.34540  0.00780  Biso   1.000  C
  N8       1.0000 0.42780  0.40160  0.96260  Biso   1.000  N
  C6       1.0000 0.39990  0.41030  0.88290  Biso   1.000  C
  N9       1.0000 0.38110  0.42940  0.80960  Biso   1.000  N
  N10      1.0000 0.49060  0.19170  0.01030  Biso   1.000  N
  C7       1.0000 0.50340  0.17340  0.92770  Biso   1.000  C
  N11      1.0000 0.51260  0.15160  0.82330  Biso   1.000  N
  C8       1.0000 0.55540  0.14730  0.79030  Biso   1.000  C
  N12      1.0000 0.58970  0.14310  0.75080  Biso   1.000  N
  N13      1.0000 0.42140  0.17560  0.19270  Biso   1.000  N
  C9       1.0000 0.40610  0.13010  0.23060  Biso   1.000  C
  N14      1.0000 0.38780  0.08160  0.28270  Biso   1.000  N
  C10      1.0000 0.37690  0.03020  0.23400  Biso   1.000  C
  N15      1.0000 0.36660  0.98360  0.19160  Biso   1.000  N
  N16      1.0000 0.45770  0.29540  0.30460  Biso   1.000  N
  C11      1.0000 0.45080  0.31460  0.38950  Biso   1.000  C
  N17      1.0000 0.44970  0.34140  0.48470  Biso   1.000  N
  C12      1.0000 0.41290  0.36920  0.51830  Biso   1.000  C
  N18      1.0000 0.38350  0.39720  0.56700  Biso   1.000  N
  N19      1.0000 0.68990  0.11160  0.81180  Biso   1.000  N
  C13      1.0000 0.70630  0.09280  0.88980  Biso   1.000  C
  N20      1.0000 0.72500  0.06500  0.97140  Biso   1.000  N
  C14      1.0000 0.76120  0.08280  0.02060  Biso   1.000  C
  N21      1.0000 0.79360  0.09160  0.07100  Biso   1.000  N
  N22      1.0000 0.70220  0.49470  0.26150  Biso   1.000  N
  C15      1.0000 0.73490  0.48710  0.30830  Biso   1.000  C
  N23      1.0000 0.77260  0.46600  0.35910  Biso   1.000  N
  C16      1.0000 0.78770  0.49630  0.45220  Biso   1.000  C
  N24      1.0000 0.80010  0.52450  0.52080  Biso   1.000  N
  Fe4      1.0000 0.52515  0.75938  0.65566  Biso   1.000  Fe
  Fe5      1.0000 0.35108  0.88755  0.16380  Biso   1.000  Fe
  Fe6      1.0000 0.34216  0.45347  0.66011  Biso   1.000  Fe
  N25      1.0000 0.48250  0.82030  0.75600  Biso   1.000  N
  C17      1.0000 0.46280  0.85340  0.80980  Biso   1.000  C
  N26      1.0000 0.44350  0.89510  0.87020  Biso   1.000  N
  C18      1.0000 0.41560  0.88610  0.94530  Biso   1.000  C
  N27      1.0000 0.39130  0.88600  0.01280  Biso   1.000  N
  N28      1.0000 0.46960  0.69750  0.62070  Biso   1.000  N
  C19      1.0000 0.44780  0.65840  0.58260  Biso   1.000  C
  N29      1.0000 0.42420  0.61980  0.52880  Biso   1.000  N
  C20      1.0000 0.40140  0.57510  0.58930  Biso   1.000  C
  N30      1.0000 0.38210  0.53460  0.62110  Biso   1.000  N
  N31      1.0000 0.56790  0.69930  0.56340  Biso   1.000  N
  C21      1.0000 0.57360  0.65460  0.50780  Biso   1.000  C
  N32      1.0000 0.57220  0.59840  0.46260  Biso   1.000  N
  C22      1.0000 0.60010  0.58970  0.38290  Biso   1.000  C
  N33      1.0000 0.61890  0.57060  0.30960  Biso   1.000  N
  N34      1.0000 0.50940  0.80830  0.51030  Biso   1.000  N
  C23      1.0000 0.49660  0.82660  0.42770  Biso   1.000  C
  N35      1.0000 0.48740  0.84840  0.32330  Biso   1.000  N
  C24      1.0000 0.44460  0.85270  0.29030  Biso   1.000  C
  N36      1.0000 0.41030  0.85690  0.25080  Biso   1.000  N
  N37      1.0000 0.57860  0.82440  0.69270  Biso   1.000  N
  C25      1.0000 0.59390  0.86990  0.73060  Biso   1.000  C
  N38      1.0000 0.61220  0.91840  0.78270  Biso   1.000  N
  C26      1.0000 0.62310  0.96980  0.73400  Biso   1.000  C
  N39      1.0000 0.63340  0.01640  0.69160  Biso   1.000  N
  N40      1.0000 0.54230  0.70460  0.80460  Biso   1.000  N
  C27      1.0000 0.54920  0.68540  0.88950  Biso   1.000  C
  N41      1.0000 0.55030  0.65860  0.98470  Biso   1.000  N
  C28      1.0000 0.58710  0.63080  0.01830  Biso   1.000  C
  N42      1.0000 0.61650  0.60280  0.06700  Biso   1.000  N
  N43      1.0000 0.31010  0.88840  0.31180  Biso   1.000  N
  C29      1.0000 0.29370  0.90720  0.38980  Biso   1.000  C
  N44      1.0000 0.27500  0.93500  0.47140  Biso   1.000  N
  C30      1.0000 0.23880  0.91720  0.52060  Biso   1.000  C
  N45      1.0000 0.20640  0.90840  0.57100  Biso   1.000  N
  N46      1.0000 0.29780  0.50530  0.76150  Biso   1.000  N
  C31      1.0000 0.26510  0.51290  0.80830  Biso   1.000  C
  N47      1.0000 0.22740  0.53400  0.85910  Biso   1.000  N
  C32      1.0000 0.21230  0.50370  0.95220  Biso   1.000  C
  N48      1.0000 0.19990  0.47550  0.02080  Biso   1.000  N
  Fe7      1.0000 0.97485  0.75938  0.15566  Biso   1.000  Fe
  Fe8      1.0000 0.14892  0.88755  0.66380  Biso   1.000  Fe
  Fe9      1.0000 0.15784  0.45347  0.16011  Biso   1.000  Fe
  N49      1.0000 0.01750  0.82030  0.25600  Biso   1.000  N
  C33      1.0000 0.03720  0.85340  0.30980  Biso   1.000  C
  N50      1.0000 0.05650  0.89510  0.37020  Biso   1.000  N
  C34      1.0000 0.08440  0.88610  0.44530  Biso   1.000  C
  N51      1.0000 0.10870  0.88600  0.51280  Biso   1.000  N
  N52      1.0000 0.03040  0.69750  0.12070  Biso   1.000  N
  C35      1.0000 0.05220  0.65840  0.08260  Biso   1.000  C
  N53      1.0000 0.07580  0.61980  0.02880  Biso   1.000  N
  C36      1.0000 0.09860  0.57510  0.08930  Biso   1.000  C
  N54      1.0000 0.11790  0.53460  0.12110  Biso   1.000  N
  N55      1.0000 0.93210  0.69930  0.06340  Biso   1.000  N
  C37      1.0000 0.92640  0.65460  0.00780  Biso   1.000  C
  N56      1.0000 0.92780  0.59840  0.96260  Biso   1.000  N
  C38      1.0000 0.89990  0.58970  0.88290  Biso   1.000  C
  N57      1.0000 0.88110  0.57060  0.80960  Biso   1.000  N
  N58      1.0000 0.99060  0.80830  0.01030  Biso   1.000  N
  C39      1.0000 0.00340  0.82660  0.92770  Biso   1.000  C
  N59      1.0000 0.01260  0.84840  0.82330  Biso   1.000  N
  C40      1.0000 0.05540  0.85270  0.79030  Biso   1.000  C
  N60      1.0000 0.08970  0.85690  0.75080  Biso   1.000  N
  N61      1.0000 0.92140  0.82440  0.19270  Biso   1.000  N
  C41      1.0000 0.90610  0.86990  0.23060  Biso   1.000  C
  N62      1.0000 0.88780  0.91840  0.28270  Biso   1.000  N
  C42      1.0000 0.87690  0.96980  0.23400  Biso   1.000  C
  N63      1.0000 0.86660  0.01640  0.19160  Biso   1.000  N
  N64      1.0000 0.95770  0.70460  0.30460  Biso   1.000  N
  C43      1.0000 0.95080  0.68540  0.38950  Biso   1.000  C
  N65      1.0000 0.94970  0.65860  0.48470  Biso   1.000  N
  C44      1.0000 0.91290  0.63080  0.51830  Biso   1.000  C
  N66      1.0000 0.88350  0.60280  0.56700  Biso   1.000  N
  N67      1.0000 0.18990  0.88840  0.81180  Biso   1.000  N
  C45      1.0000 0.20630  0.90720  0.88980  Biso   1.000  C
  N68      1.0000 0.22500  0.93500  0.97140  Biso   1.000  N
  C46      1.0000 0.26120  0.91720  0.02060  Biso   1.000  C
  N69      1.0000 0.29360  0.90840  0.07100  Biso   1.000  N
  N70      1.0000 0.20220  0.50530  0.26150  Biso   1.000  N
  C47      1.0000 0.23490  0.51290  0.30830  Biso   1.000  C
  N71      1.0000 0.27260  0.53400  0.35910  Biso   1.000  N
  C48      1.0000 0.28770  0.50370  0.45220  Biso   1.000  C
  N72      1.0000 0.30010  0.47550  0.52080  Biso   1.000  N
  Fe10     1.0000 0.02515  0.24062  0.65566  Biso   1.000  Fe
  Fe11     1.0000 0.85108  0.11245  0.16380  Biso   1.000  Fe
  Fe12     1.0000 0.84216  0.54653  0.66011  Biso   1.000  Fe
  N73      1.0000 0.98250  0.17970  0.75600  Biso   1.000  N
  C49      1.0000 0.96280  0.14660  0.80980  Biso   1.000  C
  N74      1.0000 0.94350  0.10490  0.87020  Biso   1.000  N
  C50      1.0000 0.91560  0.11390  0.94530  Biso   1.000  C
  N75      1.0000 0.89130  0.11400  0.01280  Biso   1.000  N
  N76      1.0000 0.96960  0.30250  0.62070  Biso   1.000  N
  C51      1.0000 0.94780  0.34160  0.58260  Biso   1.000  C
  N77      1.0000 0.92420  0.38020  0.52880  Biso   1.000  N
  C52      1.0000 0.90140  0.42490  0.58930  Biso   1.000  C
  N78      1.0000 0.88210  0.46540  0.62110  Biso   1.000  N
  N79      1.0000 0.06790  0.30070  0.56340  Biso   1.000  N
  C53      1.0000 0.07360  0.34540  0.50780  Biso   1.000  C
  N80      1.0000 0.07220  0.40160  0.46260  Biso   1.000  N
  C54      1.0000 0.10010  0.41030  0.38290  Biso   1.000  C
  N81      1.0000 0.11890  0.42940  0.30960  Biso   1.000  N
  N82      1.0000 0.00940  0.19170  0.51030  Biso   1.000  N
  C55      1.0000 0.99660  0.17340  0.42770  Biso   1.000  C
  N83      1.0000 0.98740  0.15160  0.32330  Biso   1.000  N
  C56      1.0000 0.94460  0.14730  0.29030  Biso   1.000  C
  N84      1.0000 0.91030  0.14310  0.25080  Biso   1.000  N
  N85      1.0000 0.07860  0.17560  0.69270  Biso   1.000  N
  C57      1.0000 0.09390  0.13010  0.73060  Biso   1.000  C
  N86      1.0000 0.11220  0.08160  0.78270  Biso   1.000  N
  C58      1.0000 0.12310  0.03020  0.73400  Biso   1.000  C
  N87      1.0000 0.13340  0.98360  0.69160  Biso   1.000  N
  N88      1.0000 0.04230  0.29540  0.80460  Biso   1.000  N
  C59      1.0000 0.04920  0.31460  0.88950  Biso   1.000  C
  N89      1.0000 0.05030  0.34140  0.98470  Biso   1.000  N
  C60      1.0000 0.08710  0.36920  0.01830  Biso   1.000  C
  N90      1.0000 0.11650  0.39720  0.06700  Biso   1.000  N
  N91      1.0000 0.81010  0.11160  0.31180  Biso   1.000  N
  C61      1.0000 0.79370  0.09280  0.38980  Biso   1.000  C
  N92      1.0000 0.77500  0.06500  0.47140  Biso   1.000  N
  C62      1.0000 0.73880  0.08280  0.52060  Biso   1.000  C
  N93      1.0000 0.70640  0.09160  0.57100  Biso   1.000  N
  N94      1.0000 0.79780  0.49470  0.76150  Biso   1.000  N
  C63      1.0000 0.76510  0.48710  0.80830  Biso   1.000  C
  N95      1.0000 0.72740  0.46600  0.85910  Biso   1.000  N
  C64      1.0000 0.71230  0.49630  0.95220  Biso   1.000  C
  N96      1.0000 0.69990  0.52450  0.02080  Biso   1.000  N
