data_image0
_cell_length_a       18.6107
_cell_length_b       18.6107
_cell_length_c       4.8022
_cell_angle_alpha    90
_cell_angle_beta     90
_cell_angle_gamma    90

_symmetry_space_group_name_H-M    "P 1"
_symmetry_int_tables_number       1

loop_
  _symmetry_equiv_pos_as_xyz
  'x, y, z'

loop_
  _atom_site_label
  _atom_site_occupancy
  _atom_site_fract_x
  _atom_site_fract_y
  _atom_site_fract_z
  _atom_site_thermal_displace_type
  _atom_site_B_iso_or_equiv
  _atom_site_type_symbol
  C1       1.0000 0.98349  0.69415  0.39900  Biso   1.000  C
  H1       1.0000 0.97910  0.67920  0.59400  Biso   1.000  H
  C2       1.0000 0.96973  0.63145  0.20740  Biso   1.000  C
  O1       1.0000 0.92162  0.63191  0.02670  Biso   1.000  O
  O2       1.0000 0.01337  0.57973  0.24360  Biso   1.000  O
  C3       1.0000 0.48349  0.19415  0.89900  Biso   1.000  C
  H2       1.0000 0.47910  0.17920  0.09400  Biso   1.000  H
  C4       1.0000 0.46973  0.13145  0.70740  Biso   1.000  C
  O3       1.0000 0.42162  0.13191  0.52670  Biso   1.000  O
  O4       1.0000 0.51337  0.07973  0.74360  Biso   1.000  O
  C5       1.0000 0.51651  0.30585  0.89900  Biso   1.000  C
  H3       1.0000 0.52090  0.32080  0.09400  Biso   1.000  H
  C6       1.0000 0.53027  0.36855  0.70740  Biso   1.000  C
  O5       1.0000 0.57838  0.36809  0.52670  Biso   1.000  O
  O6       1.0000 0.48663  0.42027  0.74360  Biso   1.000  O
  C7       1.0000 0.01651  0.80585  0.39900  Biso   1.000  C
  H4       1.0000 0.02090  0.82080  0.59400  Biso   1.000  H
  C8       1.0000 0.03027  0.86855  0.20740  Biso   1.000  C
  O7       1.0000 0.07838  0.86809  0.02670  Biso   1.000  O
  O8       1.0000 0.98663  0.92027  0.24360  Biso   1.000  O
  C9       1.0000 0.05585  0.23349  0.64900  Biso   1.000  C
  H5       1.0000 0.07080  0.22910  0.84400  Biso   1.000  H
  C10      1.0000 0.11855  0.21973  0.45740  Biso   1.000  C
  O9       1.0000 0.11809  0.17162  0.27670  Biso   1.000  O
  O10      1.0000 0.17027  0.26337  0.49360  Biso   1.000  O
  C11      1.0000 0.55585  0.73349  0.14900  Biso   1.000  C
  H6       1.0000 0.57080  0.72910  0.34400  Biso   1.000  H
  C12      1.0000 0.61855  0.71973  0.95740  Biso   1.000  C
  O11      1.0000 0.61809  0.67162  0.77670  Biso   1.000  O
  O12      1.0000 0.67027  0.76337  0.99360  Biso   1.000  O
  C13      1.0000 0.44415  0.76651  0.14900  Biso   1.000  C
  H7       1.0000 0.42920  0.77090  0.34400  Biso   1.000  H
  C14      1.0000 0.38145  0.78027  0.95740  Biso   1.000  C
  O13      1.0000 0.38191  0.82838  0.77670  Biso   1.000  O
  O14      1.0000 0.32973  0.73663  0.99360  Biso   1.000  O
  C15      1.0000 0.94415  0.26651  0.64900  Biso   1.000  C
  H8       1.0000 0.92920  0.27090  0.84400  Biso   1.000  H
  C16      1.0000 0.88145  0.28027  0.45740  Biso   1.000  C
  O15      1.0000 0.88191  0.32838  0.27670  Biso   1.000  O
  O16      1.0000 0.82973  0.23663  0.49360  Biso   1.000  O
  C17      1.0000 0.01651  0.30585  0.60100  Biso   1.000  C
  H9       1.0000 0.02090  0.32080  0.40600  Biso   1.000  H
  C18      1.0000 0.03027  0.36855  0.79260  Biso   1.000  C
  O17      1.0000 0.07838  0.36809  0.97330  Biso   1.000  O
  O18      1.0000 0.98663  0.42027  0.75640  Biso   1.000  O
  C19      1.0000 0.51651  0.80585  0.10100  Biso   1.000  C
  H10      1.0000 0.52090  0.82080  0.90600  Biso   1.000  H
  C20      1.0000 0.53027  0.86855  0.29260  Biso   1.000  C
  O19      1.0000 0.57838  0.86809  0.47330  Biso   1.000  O
  O20      1.0000 0.48663  0.92027  0.25640  Biso   1.000  O
  C21      1.0000 0.48349  0.69415  0.10100  Biso   1.000  C
  H11      1.0000 0.47910  0.67920  0.90600  Biso   1.000  H
  C22      1.0000 0.46973  0.63145  0.29260  Biso   1.000  C
  O21      1.0000 0.42162  0.63191  0.47330  Biso   1.000  O
  O22      1.0000 0.51337  0.57973  0.25640  Biso   1.000  O
  C23      1.0000 0.98349  0.19415  0.60100  Biso   1.000  C
  H12      1.0000 0.97910  0.17920  0.40600  Biso   1.000  H
  C24      1.0000 0.96973  0.13145  0.79260  Biso   1.000  C
  O23      1.0000 0.92162  0.13191  0.97330  Biso   1.000  O
  O24      1.0000 0.01337  0.07973  0.75640  Biso   1.000  O
  C25      1.0000 0.94415  0.76651  0.35100  Biso   1.000  C
  H13      1.0000 0.92920  0.77090  0.15600  Biso   1.000  H
  C26      1.0000 0.88145  0.78027  0.54260  Biso   1.000  C
  O25      1.0000 0.88191  0.82838  0.72330  Biso   1.000  O
  O26      1.0000 0.82973  0.73663  0.50640  Biso   1.000  O
  C27      1.0000 0.44415  0.26651  0.85100  Biso   1.000  C
  H14      1.0000 0.42920  0.27090  0.65600  Biso   1.000  H
  C28      1.0000 0.38145  0.28027  0.04260  Biso   1.000  C
  O27      1.0000 0.38191  0.32838  0.22330  Biso   1.000  O
  O28      1.0000 0.32973  0.23663  0.00640  Biso   1.000  O
  C29      1.0000 0.55585  0.23349  0.85100  Biso   1.000  C
  H15      1.0000 0.57080  0.22910  0.65600  Biso   1.000  H
  C30      1.0000 0.61855  0.21973  0.04260  Biso   1.000  C
  O29      1.0000 0.61809  0.17162  0.22330  Biso   1.000  O
  O30      1.0000 0.67027  0.26337  0.00640  Biso   1.000  O
  C31      1.0000 0.05585  0.73349  0.35100  Biso   1.000  C
  H16      1.0000 0.07080  0.72910  0.15600  Biso   1.000  H
  C32      1.0000 0.11855  0.71973  0.54260  Biso   1.000  C
  O31      1.0000 0.11809  0.67162  0.72330  Biso   1.000  O
  O32      1.0000 0.17027  0.76337  0.50640  Biso   1.000  O
  Cu1      1.0000 0.00000  0.50000  0.00000  Biso   1.000  Cu
  Cu2      1.0000 0.50000  0.00000  0.50000  Biso   1.000  Cu
  Cu3      1.0000 0.50000  0.50000  0.50000  Biso   1.000  Cu
  Cu4      1.0000 0.00000  0.00000  0.00000  Biso   1.000  Cu
  Cu5      1.0000 0.25000  0.25000  0.25000  Biso   1.000  Cu
  Cu6      1.0000 0.75000  0.75000  0.75000  Biso   1.000  Cu
  Cu7      1.0000 0.25000  0.75000  0.75000  Biso   1.000  Cu
  Cu8      1.0000 0.75000  0.25000  0.25000  Biso   1.000  Cu
