data_image0
_cell_length_a       20.276
_cell_length_b       20.276
_cell_length_c       20.276
_cell_angle_alpha    90
_cell_angle_beta     90
_cell_angle_gamma    90

_symmetry_space_group_name_H-M    "P 1"
_symmetry_int_tables_number       1

loop_
  _symmetry_equiv_pos_as_xyz
  'x, y, z'

loop_
  _atom_site_label
  _atom_site_occupancy
  _atom_site_fract_x
  _atom_site_fract_y
  _atom_site_fract_z
  _atom_site_thermal_displace_type
  _atom_site_B_iso_or_equiv
  _atom_site_type_symbol
  Cu1      1.0000 0.84507  0.60641  0.86090  Biso   1.000  Cu
  Cu2      1.0000 0.72956  0.50424  0.94778  Biso   1.000  Cu
  C1       1.0000 0.69050  0.70620  0.96870  Biso   1.000  C
  H1       1.0000 0.66700  0.69170  0.00840  Biso   1.000  H
  C2       1.0000 0.64210  0.73190  0.91670  Biso   1.000  C
  H2       1.0000 0.62950  0.69500  0.88810  Biso   1.000  H
  C3       1.0000 0.73170  0.80660  0.91820  Biso   1.000  C
  H3       1.0000 0.77410  0.80160  0.89540  Biso   1.000  H
  C4       1.0000 0.73360  0.76760  0.98340  Biso   1.000  C
  H4       1.0000 0.71060  0.79400  0.01680  Biso   1.000  H
  C5       1.0000 0.72830  0.64870  0.93730  Biso   1.000  C
  C6       1.0000 0.57920  0.76310  0.94410  Biso   1.000  C
  C7       1.0000 0.71820  0.87920  0.92950  Biso   1.000  C
  C8       1.0000 0.80230  0.75120  0.01060  Biso   1.000  C
  O1       1.0000 0.77926  0.66140  0.90547  Biso   1.000  O
  O2       1.0000 0.70156  0.59384  0.94550  Biso   1.000  O
  O3       1.0000 0.76250  0.90990  0.95970  Biso   1.000  O
  O4       1.0000 0.66534  0.90474  0.90972  Biso   1.000  O
  O5       1.0000 0.56065  0.81743  0.92112  Biso   1.000  O
  O6       1.0000 0.54763  0.73030  0.98590  Biso   1.000  O
  O7       1.0000 0.80064  0.71100  0.05842  Biso   1.000  O
  O8       1.0000 0.85143  0.77806  0.98717  Biso   1.000  O
  O9       1.0000 0.68027  0.77780  0.87839  Biso   1.000  O
  Cu3      1.0000 0.65493  0.39359  0.36090  Biso   1.000  Cu
  Cu4      1.0000 0.77044  0.49576  0.44778  Biso   1.000  Cu
  C9       1.0000 0.80950  0.29380  0.46870  Biso   1.000  C
  H5       1.0000 0.83300  0.30830  0.50840  Biso   1.000  H
  C10      1.0000 0.85790  0.26810  0.41670  Biso   1.000  C
  H6       1.0000 0.87050  0.30500  0.38810  Biso   1.000  H
  C11      1.0000 0.76830  0.19340  0.41820  Biso   1.000  C
  H7       1.0000 0.72590  0.19840  0.39540  Biso   1.000  H
  C12      1.0000 0.76640  0.23240  0.48340  Biso   1.000  C
  H8       1.0000 0.78940  0.20600  0.51680  Biso   1.000  H
  C13      1.0000 0.77170  0.35130  0.43730  Biso   1.000  C
  C14      1.0000 0.92080  0.23690  0.44410  Biso   1.000  C
  C15      1.0000 0.78180  0.12080  0.42950  Biso   1.000  C
  C16      1.0000 0.69770  0.24880  0.51060  Biso   1.000  C
  O10      1.0000 0.72074  0.33860  0.40547  Biso   1.000  O
  O11      1.0000 0.79844  0.40616  0.44550  Biso   1.000  O
  O12      1.0000 0.73750  0.09010  0.45970  Biso   1.000  O
  O13      1.0000 0.83466  0.09526  0.40972  Biso   1.000  O
  O14      1.0000 0.93935  0.18257  0.42112  Biso   1.000  O
  O15      1.0000 0.95237  0.26970  0.48590  Biso   1.000  O
  O16      1.0000 0.69936  0.28900  0.55842  Biso   1.000  O
  O17      1.0000 0.64857  0.22194  0.48717  Biso   1.000  O
  O18      1.0000 0.81973  0.22220  0.37839  Biso   1.000  O
  Cu5      1.0000 0.15493  0.10641  0.63910  Biso   1.000  Cu
  Cu6      1.0000 0.27044  0.00424  0.55222  Biso   1.000  Cu
  C17      1.0000 0.30950  0.20620  0.53130  Biso   1.000  C
  H9       1.0000 0.33300  0.19170  0.49160  Biso   1.000  H
  C18      1.0000 0.35790  0.23190  0.58330  Biso   1.000  C
  H10      1.0000 0.37050  0.19500  0.61190  Biso   1.000  H
  C19      1.0000 0.26830  0.30660  0.58180  Biso   1.000  C
  H11      1.0000 0.22590  0.30160  0.60460  Biso   1.000  H
  C20      1.0000 0.26640  0.26760  0.51660  Biso   1.000  C
  H12      1.0000 0.28940  0.29400  0.48320  Biso   1.000  H
  C21      1.0000 0.27170  0.14870  0.56270  Biso   1.000  C
  C22      1.0000 0.42080  0.26310  0.55590  Biso   1.000  C
  C23      1.0000 0.28180  0.37920  0.57050  Biso   1.000  C
  C24      1.0000 0.19770  0.25120  0.48940  Biso   1.000  C
  O19      1.0000 0.22074  0.16140  0.59453  Biso   1.000  O
  O20      1.0000 0.29844  0.09384  0.55450  Biso   1.000  O
  O21      1.0000 0.23750  0.40990  0.54030  Biso   1.000  O
  O22      1.0000 0.33466  0.40474  0.59028  Biso   1.000  O
  O23      1.0000 0.43935  0.31743  0.57888  Biso   1.000  O
  O24      1.0000 0.45237  0.23030  0.51410  Biso   1.000  O
  O25      1.0000 0.19936  0.21100  0.44158  Biso   1.000  O
  O26      1.0000 0.14857  0.27806  0.51283  Biso   1.000  O
  O27      1.0000 0.31973  0.27780  0.62161  Biso   1.000  O
  Cu7      1.0000 0.34507  0.89359  0.13910  Biso   1.000  Cu
  Cu8      1.0000 0.22956  0.99576  0.05222  Biso   1.000  Cu
  C25      1.0000 0.19050  0.79380  0.03130  Biso   1.000  C
  H13      1.0000 0.16700  0.80830  0.99160  Biso   1.000  H
  C26      1.0000 0.14210  0.76810  0.08330  Biso   1.000  C
  H14      1.0000 0.12950  0.80500  0.11190  Biso   1.000  H
  C27      1.0000 0.23170  0.69340  0.08180  Biso   1.000  C
  H15      1.0000 0.27410  0.69840  0.10460  Biso   1.000  H
  C28      1.0000 0.23360  0.73240  0.01660  Biso   1.000  C
  H16      1.0000 0.21060  0.70600  0.98320  Biso   1.000  H
  C29      1.0000 0.22830  0.85130  0.06270  Biso   1.000  C
  C30      1.0000 0.07920  0.73690  0.05590  Biso   1.000  C
  C31      1.0000 0.21820  0.62080  0.07050  Biso   1.000  C
  C32      1.0000 0.30230  0.74880  0.98940  Biso   1.000  C
  O28      1.0000 0.27926  0.83860  0.09453  Biso   1.000  O
  O29      1.0000 0.20156  0.90616  0.05450  Biso   1.000  O
  O30      1.0000 0.26250  0.59010  0.04030  Biso   1.000  O
  O31      1.0000 0.16534  0.59526  0.09028  Biso   1.000  O
  O32      1.0000 0.06065  0.68257  0.07888  Biso   1.000  O
  O33      1.0000 0.04763  0.76970  0.01410  Biso   1.000  O
  O34      1.0000 0.30064  0.78900  0.94158  Biso   1.000  O
  O35      1.0000 0.35143  0.72194  0.01283  Biso   1.000  O
  O36      1.0000 0.18027  0.72220  0.12161  Biso   1.000  O
  Cu9      1.0000 0.86090  0.84507  0.60641  Biso   1.000  Cu
  Cu10     1.0000 0.94778  0.72956  0.50424  Biso   1.000  Cu
  C33      1.0000 0.96870  0.69050  0.70620  Biso   1.000  C
  H17      1.0000 0.00840  0.66700  0.69170  Biso   1.000  H
  C34      1.0000 0.91670  0.64210  0.73190  Biso   1.000  C
  H18      1.0000 0.88810  0.62950  0.69500  Biso   1.000  H
  C35      1.0000 0.91820  0.73170  0.80660  Biso   1.000  C
  H19      1.0000 0.89540  0.77410  0.80160  Biso   1.000  H
  C36      1.0000 0.98340  0.73360  0.76760  Biso   1.000  C
  H20      1.0000 0.01680  0.71060  0.79400  Biso   1.000  H
  C37      1.0000 0.93730  0.72830  0.64870  Biso   1.000  C
  C38      1.0000 0.94410  0.57920  0.76310  Biso   1.000  C
  C39      1.0000 0.92950  0.71820  0.87920  Biso   1.000  C
  C40      1.0000 0.01060  0.80230  0.75120  Biso   1.000  C
  O37      1.0000 0.90547  0.77926  0.66140  Biso   1.000  O
  O38      1.0000 0.94550  0.70156  0.59384  Biso   1.000  O
  O39      1.0000 0.95970  0.76250  0.90990  Biso   1.000  O
  O40      1.0000 0.90972  0.66534  0.90474  Biso   1.000  O
  O41      1.0000 0.92112  0.56065  0.81743  Biso   1.000  O
  O42      1.0000 0.98590  0.54763  0.73030  Biso   1.000  O
  O43      1.0000 0.05842  0.80064  0.71100  Biso   1.000  O
  O44      1.0000 0.98717  0.85143  0.77806  Biso   1.000  O
  O45      1.0000 0.87839  0.68027  0.77780  Biso   1.000  O
  Cu11     1.0000 0.36090  0.65493  0.39359  Biso   1.000  Cu
  Cu12     1.0000 0.44778  0.77044  0.49576  Biso   1.000  Cu
  C41      1.0000 0.46870  0.80950  0.29380  Biso   1.000  C
  H21      1.0000 0.50840  0.83300  0.30830  Biso   1.000  H
  C42      1.0000 0.41670  0.85790  0.26810  Biso   1.000  C
  H22      1.0000 0.38810  0.87050  0.30500  Biso   1.000  H
  C43      1.0000 0.41820  0.76830  0.19340  Biso   1.000  C
  H23      1.0000 0.39540  0.72590  0.19840  Biso   1.000  H
  C44      1.0000 0.48340  0.76640  0.23240  Biso   1.000  C
  H24      1.0000 0.51680  0.78940  0.20600  Biso   1.000  H
  C45      1.0000 0.43730  0.77170  0.35130  Biso   1.000  C
  C46      1.0000 0.44410  0.92080  0.23690  Biso   1.000  C
  C47      1.0000 0.42950  0.78180  0.12080  Biso   1.000  C
  C48      1.0000 0.51060  0.69770  0.24880  Biso   1.000  C
  O46      1.0000 0.40547  0.72074  0.33860  Biso   1.000  O
  O47      1.0000 0.44550  0.79844  0.40616  Biso   1.000  O
  O48      1.0000 0.45970  0.73750  0.09010  Biso   1.000  O
  O49      1.0000 0.40972  0.83466  0.09526  Biso   1.000  O
  O50      1.0000 0.42112  0.93935  0.18257  Biso   1.000  O
  O51      1.0000 0.48590  0.95237  0.26970  Biso   1.000  O
  O52      1.0000 0.55842  0.69936  0.28900  Biso   1.000  O
  O53      1.0000 0.48717  0.64857  0.22194  Biso   1.000  O
  O54      1.0000 0.37839  0.81973  0.22220  Biso   1.000  O
  Cu13     1.0000 0.63910  0.15493  0.10641  Biso   1.000  Cu
  Cu14     1.0000 0.55222  0.27044  0.00424  Biso   1.000  Cu
  C49      1.0000 0.53130  0.30950  0.20620  Biso   1.000  C
  H25      1.0000 0.49160  0.33300  0.19170  Biso   1.000  H
  C50      1.0000 0.58330  0.35790  0.23190  Biso   1.000  C
  H26      1.0000 0.61190  0.37050  0.19500  Biso   1.000  H
  C51      1.0000 0.58180  0.26830  0.30660  Biso   1.000  C
  H27      1.0000 0.60460  0.22590  0.30160  Biso   1.000  H
  C52      1.0000 0.51660  0.26640  0.26760  Biso   1.000  C
  H28      1.0000 0.48320  0.28940  0.29400  Biso   1.000  H
  C53      1.0000 0.56270  0.27170  0.14870  Biso   1.000  C
  C54      1.0000 0.55590  0.42080  0.26310  Biso   1.000  C
  C55      1.0000 0.57050  0.28180  0.37920  Biso   1.000  C
  C56      1.0000 0.48940  0.19770  0.25120  Biso   1.000  C
  O55      1.0000 0.59453  0.22074  0.16140  Biso   1.000  O
  O56      1.0000 0.55450  0.29844  0.09384  Biso   1.000  O
  O57      1.0000 0.54030  0.23750  0.40990  Biso   1.000  O
  O58      1.0000 0.59028  0.33466  0.40474  Biso   1.000  O
  O59      1.0000 0.57888  0.43935  0.31743  Biso   1.000  O
  O60      1.0000 0.51410  0.45237  0.23030  Biso   1.000  O
  O61      1.0000 0.44158  0.19936  0.21100  Biso   1.000  O
  O62      1.0000 0.51283  0.14857  0.27806  Biso   1.000  O
  O63      1.0000 0.62161  0.31973  0.27780  Biso   1.000  O
  Cu15     1.0000 0.13910  0.34507  0.89359  Biso   1.000  Cu
  Cu16     1.0000 0.05222  0.22956  0.99576  Biso   1.000  Cu
  C57      1.0000 0.03130  0.19050  0.79380  Biso   1.000  C
  H29      1.0000 0.99160  0.16700  0.80830  Biso   1.000  H
  C58      1.0000 0.08330  0.14210  0.76810  Biso   1.000  C
  H30      1.0000 0.11190  0.12950  0.80500  Biso   1.000  H
  C59      1.0000 0.08180  0.23170  0.69340  Biso   1.000  C
  H31      1.0000 0.10460  0.27410  0.69840  Biso   1.000  H
  C60      1.0000 0.01660  0.23360  0.73240  Biso   1.000  C
  H32      1.0000 0.98320  0.21060  0.70600  Biso   1.000  H
  C61      1.0000 0.06270  0.22830  0.85130  Biso   1.000  C
  C62      1.0000 0.05590  0.07920  0.73690  Biso   1.000  C
  C63      1.0000 0.07050  0.21820  0.62080  Biso   1.000  C
  C64      1.0000 0.98940  0.30230  0.74880  Biso   1.000  C
  O64      1.0000 0.09453  0.27926  0.83860  Biso   1.000  O
  O65      1.0000 0.05450  0.20156  0.90616  Biso   1.000  O
  O66      1.0000 0.04030  0.26250  0.59010  Biso   1.000  O
  O67      1.0000 0.09028  0.16534  0.59526  Biso   1.000  O
  O68      1.0000 0.07888  0.06065  0.68257  Biso   1.000  O
  O69      1.0000 0.01410  0.04763  0.76970  Biso   1.000  O
  O70      1.0000 0.94158  0.30064  0.78900  Biso   1.000  O
  O71      1.0000 0.01283  0.35143  0.72194  Biso   1.000  O
  O72      1.0000 0.12161  0.18027  0.72220  Biso   1.000  O
  Cu17     1.0000 0.60641  0.86090  0.84507  Biso   1.000  Cu
  Cu18     1.0000 0.50424  0.94778  0.72956  Biso   1.000  Cu
  C65      1.0000 0.70620  0.96870  0.69050  Biso   1.000  C
  H33      1.0000 0.69170  0.00840  0.66700  Biso   1.000  H
  C66      1.0000 0.73190  0.91670  0.64210  Biso   1.000  C
  H34      1.0000 0.69500  0.88810  0.62950  Biso   1.000  H
  C67      1.0000 0.80660  0.91820  0.73170  Biso   1.000  C
  H35      1.0000 0.80160  0.89540  0.77410  Biso   1.000  H
  C68      1.0000 0.76760  0.98340  0.73360  Biso   1.000  C
  H36      1.0000 0.79400  0.01680  0.71060  Biso   1.000  H
  C69      1.0000 0.64870  0.93730  0.72830  Biso   1.000  C
  C70      1.0000 0.76310  0.94410  0.57920  Biso   1.000  C
  C71      1.0000 0.87920  0.92950  0.71820  Biso   1.000  C
  C72      1.0000 0.75120  0.01060  0.80230  Biso   1.000  C
  O73      1.0000 0.66140  0.90547  0.77926  Biso   1.000  O
  O74      1.0000 0.59384  0.94550  0.70156  Biso   1.000  O
  O75      1.0000 0.90990  0.95970  0.76250  Biso   1.000  O
  O76      1.0000 0.90474  0.90972  0.66534  Biso   1.000  O
  O77      1.0000 0.81743  0.92112  0.56065  Biso   1.000  O
  O78      1.0000 0.73030  0.98590  0.54763  Biso   1.000  O
  O79      1.0000 0.71100  0.05842  0.80064  Biso   1.000  O
  O80      1.0000 0.77806  0.98717  0.85143  Biso   1.000  O
  O81      1.0000 0.77780  0.87839  0.68027  Biso   1.000  O
  Cu19     1.0000 0.39359  0.36090  0.65493  Biso   1.000  Cu
  Cu20     1.0000 0.49576  0.44778  0.77044  Biso   1.000  Cu
  C73      1.0000 0.29380  0.46870  0.80950  Biso   1.000  C
  H37      1.0000 0.30830  0.50840  0.83300  Biso   1.000  H
  C74      1.0000 0.26810  0.41670  0.85790  Biso   1.000  C
  H38      1.0000 0.30500  0.38810  0.87050  Biso   1.000  H
  C75      1.0000 0.19340  0.41820  0.76830  Biso   1.000  C
  H39      1.0000 0.19840  0.39540  0.72590  Biso   1.000  H
  C76      1.0000 0.23240  0.48340  0.76640  Biso   1.000  C
  H40      1.0000 0.20600  0.51680  0.78940  Biso   1.000  H
  C77      1.0000 0.35130  0.43730  0.77170  Biso   1.000  C
  C78      1.0000 0.23690  0.44410  0.92080  Biso   1.000  C
  C79      1.0000 0.12080  0.42950  0.78180  Biso   1.000  C
  C80      1.0000 0.24880  0.51060  0.69770  Biso   1.000  C
  O82      1.0000 0.33860  0.40547  0.72074  Biso   1.000  O
  O83      1.0000 0.40616  0.44550  0.79844  Biso   1.000  O
  O84      1.0000 0.09010  0.45970  0.73750  Biso   1.000  O
  O85      1.0000 0.09526  0.40972  0.83466  Biso   1.000  O
  O86      1.0000 0.18257  0.42112  0.93935  Biso   1.000  O
  O87      1.0000 0.26970  0.48590  0.95237  Biso   1.000  O
  O88      1.0000 0.28900  0.55842  0.69936  Biso   1.000  O
  O89      1.0000 0.22194  0.48717  0.64857  Biso   1.000  O
  O90      1.0000 0.22220  0.37839  0.81973  Biso   1.000  O
  Cu21     1.0000 0.10641  0.63910  0.15493  Biso   1.000  Cu
  Cu22     1.0000 0.00424  0.55222  0.27044  Biso   1.000  Cu
  C81      1.0000 0.20620  0.53130  0.30950  Biso   1.000  C
  H41      1.0000 0.19170  0.49160  0.33300  Biso   1.000  H
  C82      1.0000 0.23190  0.58330  0.35790  Biso   1.000  C
  H42      1.0000 0.19500  0.61190  0.37050  Biso   1.000  H
  C83      1.0000 0.30660  0.58180  0.26830  Biso   1.000  C
  H43      1.0000 0.30160  0.60460  0.22590  Biso   1.000  H
  C84      1.0000 0.26760  0.51660  0.26640  Biso   1.000  C
  H44      1.0000 0.29400  0.48320  0.28940  Biso   1.000  H
  C85      1.0000 0.14870  0.56270  0.27170  Biso   1.000  C
  C86      1.0000 0.26310  0.55590  0.42080  Biso   1.000  C
  C87      1.0000 0.37920  0.57050  0.28180  Biso   1.000  C
  C88      1.0000 0.25120  0.48940  0.19770  Biso   1.000  C
  O91      1.0000 0.16140  0.59453  0.22074  Biso   1.000  O
  O92      1.0000 0.09384  0.55450  0.29844  Biso   1.000  O
  O93      1.0000 0.40990  0.54030  0.23750  Biso   1.000  O
  O94      1.0000 0.40474  0.59028  0.33466  Biso   1.000  O
  O95      1.0000 0.31743  0.57888  0.43935  Biso   1.000  O
  O96      1.0000 0.23030  0.51410  0.45237  Biso   1.000  O
  O97      1.0000 0.21100  0.44158  0.19936  Biso   1.000  O
  O98      1.0000 0.27806  0.51283  0.14857  Biso   1.000  O
  O99      1.0000 0.27780  0.62161  0.31973  Biso   1.000  O
  Cu23     1.0000 0.89359  0.13910  0.34507  Biso   1.000  Cu
  Cu24     1.0000 0.99576  0.05222  0.22956  Biso   1.000  Cu
  C89      1.0000 0.79380  0.03130  0.19050  Biso   1.000  C
  H45      1.0000 0.80830  0.99160  0.16700  Biso   1.000  H
  C90      1.0000 0.76810  0.08330  0.14210  Biso   1.000  C
  H46      1.0000 0.80500  0.11190  0.12950  Biso   1.000  H
  C91      1.0000 0.69340  0.08180  0.23170  Biso   1.000  C
  H47      1.0000 0.69840  0.10460  0.27410  Biso   1.000  H
  C92      1.0000 0.73240  0.01660  0.23360  Biso   1.000  C
  H48      1.0000 0.70600  0.98320  0.21060  Biso   1.000  H
  C93      1.0000 0.85130  0.06270  0.22830  Biso   1.000  C
  C94      1.0000 0.73690  0.05590  0.07920  Biso   1.000  C
  C95      1.0000 0.62080  0.07050  0.21820  Biso   1.000  C
  C96      1.0000 0.74880  0.98940  0.30230  Biso   1.000  C
  O100     1.0000 0.83860  0.09453  0.27926  Biso   1.000  O
  O101     1.0000 0.90616  0.05450  0.20156  Biso   1.000  O
  O102     1.0000 0.59010  0.04030  0.26250  Biso   1.000  O
  O103     1.0000 0.59526  0.09028  0.16534  Biso   1.000  O
  O104     1.0000 0.68257  0.07888  0.06065  Biso   1.000  O
  O105     1.0000 0.76970  0.01410  0.04763  Biso   1.000  O
  O106     1.0000 0.78900  0.94158  0.30064  Biso   1.000  O
  O107     1.0000 0.72194  0.01283  0.35143  Biso   1.000  O
  O108     1.0000 0.72220  0.12161  0.18027  Biso   1.000  O
  Cu25     1.0000 0.15493  0.39359  0.13910  Biso   1.000  Cu
  Cu26     1.0000 0.27044  0.49576  0.05222  Biso   1.000  Cu
  C97      1.0000 0.30950  0.29380  0.03130  Biso   1.000  C
  H49      1.0000 0.33300  0.30830  0.99160  Biso   1.000  H
  C98      1.0000 0.35790  0.26810  0.08330  Biso   1.000  C
  H50      1.0000 0.37050  0.30500  0.11190  Biso   1.000  H
  C99      1.0000 0.26830  0.19340  0.08180  Biso   1.000  C
  H51      1.0000 0.22590  0.19840  0.10460  Biso   1.000  H
  C100     1.0000 0.26640  0.23240  0.01660  Biso   1.000  C
  H52      1.0000 0.28940  0.20600  0.98320  Biso   1.000  H
  C101     1.0000 0.27170  0.35130  0.06270  Biso   1.000  C
  C102     1.0000 0.42080  0.23690  0.05590  Biso   1.000  C
  C103     1.0000 0.28180  0.12080  0.07050  Biso   1.000  C
  C104     1.0000 0.19770  0.24880  0.98940  Biso   1.000  C
  O109     1.0000 0.22074  0.33860  0.09453  Biso   1.000  O
  O110     1.0000 0.29844  0.40616  0.05450  Biso   1.000  O
  O111     1.0000 0.23750  0.09010  0.04030  Biso   1.000  O
  O112     1.0000 0.33466  0.09526  0.09028  Biso   1.000  O
  O113     1.0000 0.43935  0.18257  0.07888  Biso   1.000  O
  O114     1.0000 0.45237  0.26970  0.01410  Biso   1.000  O
  O115     1.0000 0.19936  0.28900  0.94158  Biso   1.000  O
  O116     1.0000 0.14857  0.22194  0.01283  Biso   1.000  O
  O117     1.0000 0.31973  0.22220  0.12161  Biso   1.000  O
  Cu27     1.0000 0.34507  0.60641  0.63910  Biso   1.000  Cu
  Cu28     1.0000 0.22956  0.50424  0.55222  Biso   1.000  Cu
  C105     1.0000 0.19050  0.70620  0.53130  Biso   1.000  C
  H53      1.0000 0.16700  0.69170  0.49160  Biso   1.000  H
  C106     1.0000 0.14210  0.73190  0.58330  Biso   1.000  C
  H54      1.0000 0.12950  0.69500  0.61190  Biso   1.000  H
  C107     1.0000 0.23170  0.80660  0.58180  Biso   1.000  C
  H55      1.0000 0.27410  0.80160  0.60460  Biso   1.000  H
  C108     1.0000 0.23360  0.76760  0.51660  Biso   1.000  C
  H56      1.0000 0.21060  0.79400  0.48320  Biso   1.000  H
  C109     1.0000 0.22830  0.64870  0.56270  Biso   1.000  C
  C110     1.0000 0.07920  0.76310  0.55590  Biso   1.000  C
  C111     1.0000 0.21820  0.87920  0.57050  Biso   1.000  C
  C112     1.0000 0.30230  0.75120  0.48940  Biso   1.000  C
  O118     1.0000 0.27926  0.66140  0.59453  Biso   1.000  O
  O119     1.0000 0.20156  0.59384  0.55450  Biso   1.000  O
  O120     1.0000 0.26250  0.90990  0.54030  Biso   1.000  O
  O121     1.0000 0.16534  0.90474  0.59028  Biso   1.000  O
  O122     1.0000 0.06065  0.81743  0.57888  Biso   1.000  O
  O123     1.0000 0.04763  0.73030  0.51410  Biso   1.000  O
  O124     1.0000 0.30064  0.71100  0.44158  Biso   1.000  O
  O125     1.0000 0.35143  0.77806  0.51283  Biso   1.000  O
  O126     1.0000 0.18027  0.77780  0.62161  Biso   1.000  O
  Cu29     1.0000 0.84507  0.89359  0.36090  Biso   1.000  Cu
  Cu30     1.0000 0.72956  0.99576  0.44778  Biso   1.000  Cu
  C113     1.0000 0.69050  0.79380  0.46870  Biso   1.000  C
  H57      1.0000 0.66700  0.80830  0.50840  Biso   1.000  H
  C114     1.0000 0.64210  0.76810  0.41670  Biso   1.000  C
  H58      1.0000 0.62950  0.80500  0.38810  Biso   1.000  H
  C115     1.0000 0.73170  0.69340  0.41820  Biso   1.000  C
  H59      1.0000 0.77410  0.69840  0.39540  Biso   1.000  H
  C116     1.0000 0.73360  0.73240  0.48340  Biso   1.000  C
  H60      1.0000 0.71060  0.70600  0.51680  Biso   1.000  H
  C117     1.0000 0.72830  0.85130  0.43730  Biso   1.000  C
  C118     1.0000 0.57920  0.73690  0.44410  Biso   1.000  C
  C119     1.0000 0.71820  0.62080  0.42950  Biso   1.000  C
  C120     1.0000 0.80230  0.74880  0.51060  Biso   1.000  C
  O127     1.0000 0.77926  0.83860  0.40547  Biso   1.000  O
  O128     1.0000 0.70156  0.90616  0.44550  Biso   1.000  O
  O129     1.0000 0.76250  0.59010  0.45970  Biso   1.000  O
  O130     1.0000 0.66534  0.59526  0.40972  Biso   1.000  O
  O131     1.0000 0.56065  0.68257  0.42112  Biso   1.000  O
  O132     1.0000 0.54763  0.76970  0.48590  Biso   1.000  O
  O133     1.0000 0.80064  0.78900  0.55842  Biso   1.000  O
  O134     1.0000 0.85143  0.72194  0.48717  Biso   1.000  O
  O135     1.0000 0.68027  0.72220  0.37839  Biso   1.000  O
  Cu31     1.0000 0.65493  0.10641  0.86090  Biso   1.000  Cu
  Cu32     1.0000 0.77044  0.00424  0.94778  Biso   1.000  Cu
  C121     1.0000 0.80950  0.20620  0.96870  Biso   1.000  C
  H61      1.0000 0.83300  0.19170  0.00840  Biso   1.000  H
  C122     1.0000 0.85790  0.23190  0.91670  Biso   1.000  C
  H62      1.0000 0.87050  0.19500  0.88810  Biso   1.000  H
  C123     1.0000 0.76830  0.30660  0.91820  Biso   1.000  C
  H63      1.0000 0.72590  0.30160  0.89540  Biso   1.000  H
  C124     1.0000 0.76640  0.26760  0.98340  Biso   1.000  C
  H64      1.0000 0.78940  0.29400  0.01680  Biso   1.000  H
  C125     1.0000 0.77170  0.14870  0.93730  Biso   1.000  C
  C126     1.0000 0.92080  0.26310  0.94410  Biso   1.000  C
  C127     1.0000 0.78180  0.37920  0.92950  Biso   1.000  C
  C128     1.0000 0.69770  0.25120  0.01060  Biso   1.000  C
  O136     1.0000 0.72074  0.16140  0.90547  Biso   1.000  O
  O137     1.0000 0.79844  0.09384  0.94550  Biso   1.000  O
  O138     1.0000 0.73750  0.40990  0.95970  Biso   1.000  O
  O139     1.0000 0.83466  0.40474  0.90972  Biso   1.000  O
  O140     1.0000 0.93935  0.31743  0.92112  Biso   1.000  O
  O141     1.0000 0.95237  0.23030  0.98590  Biso   1.000  O
  O142     1.0000 0.69936  0.21100  0.05842  Biso   1.000  O
  O143     1.0000 0.64857  0.27806  0.98717  Biso   1.000  O
  O144     1.0000 0.81973  0.27780  0.87839  Biso   1.000  O
  Cu33     1.0000 0.13910  0.15493  0.39359  Biso   1.000  Cu
  Cu34     1.0000 0.05222  0.27044  0.49576  Biso   1.000  Cu
  C129     1.0000 0.03130  0.30950  0.29380  Biso   1.000  C
  H65      1.0000 0.99160  0.33300  0.30830  Biso   1.000  H
  C130     1.0000 0.08330  0.35790  0.26810  Biso   1.000  C
  H66      1.0000 0.11190  0.37050  0.30500  Biso   1.000  H
  C131     1.0000 0.08180  0.26830  0.19340  Biso   1.000  C
  H67      1.0000 0.10460  0.22590  0.19840  Biso   1.000  H
  C132     1.0000 0.01660  0.26640  0.23240  Biso   1.000  C
  H68      1.0000 0.98320  0.28940  0.20600  Biso   1.000  H
  C133     1.0000 0.06270  0.27170  0.35130  Biso   1.000  C
  C134     1.0000 0.05590  0.42080  0.23690  Biso   1.000  C
  C135     1.0000 0.07050  0.28180  0.12080  Biso   1.000  C
  C136     1.0000 0.98940  0.19770  0.24880  Biso   1.000  C
  O145     1.0000 0.09453  0.22074  0.33860  Biso   1.000  O
  O146     1.0000 0.05450  0.29844  0.40616  Biso   1.000  O
  O147     1.0000 0.04030  0.23750  0.09010  Biso   1.000  O
  O148     1.0000 0.09028  0.33466  0.09526  Biso   1.000  O
  O149     1.0000 0.07888  0.43935  0.18257  Biso   1.000  O
  O150     1.0000 0.01410  0.45237  0.26970  Biso   1.000  O
  O151     1.0000 0.94158  0.19936  0.28900  Biso   1.000  O
  O152     1.0000 0.01283  0.14857  0.22194  Biso   1.000  O
  O153     1.0000 0.12161  0.31973  0.22220  Biso   1.000  O
  Cu35     1.0000 0.63910  0.34507  0.60641  Biso   1.000  Cu
  Cu36     1.0000 0.55222  0.22956  0.50424  Biso   1.000  Cu
  C137     1.0000 0.53130  0.19050  0.70620  Biso   1.000  C
  H69      1.0000 0.49160  0.16700  0.69170  Biso   1.000  H
  C138     1.0000 0.58330  0.14210  0.73190  Biso   1.000  C
  H70      1.0000 0.61190  0.12950  0.69500  Biso   1.000  H
  C139     1.0000 0.58180  0.23170  0.80660  Biso   1.000  C
  H71      1.0000 0.60460  0.27410  0.80160  Biso   1.000  H
  C140     1.0000 0.51660  0.23360  0.76760  Biso   1.000  C
  H72      1.0000 0.48320  0.21060  0.79400  Biso   1.000  H
  C141     1.0000 0.56270  0.22830  0.64870  Biso   1.000  C
  C142     1.0000 0.55590  0.07920  0.76310  Biso   1.000  C
  C143     1.0000 0.57050  0.21820  0.87920  Biso   1.000  C
  C144     1.0000 0.48940  0.30230  0.75120  Biso   1.000  C
  O154     1.0000 0.59453  0.27926  0.66140  Biso   1.000  O
  O155     1.0000 0.55450  0.20156  0.59384  Biso   1.000  O
  O156     1.0000 0.54030  0.26250  0.90990  Biso   1.000  O
  O157     1.0000 0.59028  0.16534  0.90474  Biso   1.000  O
  O158     1.0000 0.57888  0.06065  0.81743  Biso   1.000  O
  O159     1.0000 0.51410  0.04763  0.73030  Biso   1.000  O
  O160     1.0000 0.44158  0.30064  0.71100  Biso   1.000  O
  O161     1.0000 0.51283  0.35143  0.77806  Biso   1.000  O
  O162     1.0000 0.62161  0.18027  0.77780  Biso   1.000  O
  Cu37     1.0000 0.36090  0.84507  0.89359  Biso   1.000  Cu
  Cu38     1.0000 0.44778  0.72956  0.99576  Biso   1.000  Cu
  C145     1.0000 0.46870  0.69050  0.79380  Biso   1.000  C
  H73      1.0000 0.50840  0.66700  0.80830  Biso   1.000  H
  C146     1.0000 0.41670  0.64210  0.76810  Biso   1.000  C
  H74      1.0000 0.38810  0.62950  0.80500  Biso   1.000  H
  C147     1.0000 0.41820  0.73170  0.69340  Biso   1.000  C
  H75      1.0000 0.39540  0.77410  0.69840  Biso   1.000  H
  C148     1.0000 0.48340  0.73360  0.73240  Biso   1.000  C
  H76      1.0000 0.51680  0.71060  0.70600  Biso   1.000  H
  C149     1.0000 0.43730  0.72830  0.85130  Biso   1.000  C
  C150     1.0000 0.44410  0.57920  0.73690  Biso   1.000  C
  C151     1.0000 0.42950  0.71820  0.62080  Biso   1.000  C
  C152     1.0000 0.51060  0.80230  0.74880  Biso   1.000  C
  O163     1.0000 0.40547  0.77926  0.83860  Biso   1.000  O
  O164     1.0000 0.44550  0.70156  0.90616  Biso   1.000  O
  O165     1.0000 0.45970  0.76250  0.59010  Biso   1.000  O
  O166     1.0000 0.40972  0.66534  0.59526  Biso   1.000  O
  O167     1.0000 0.42112  0.56065  0.68257  Biso   1.000  O
  O168     1.0000 0.48590  0.54763  0.76970  Biso   1.000  O
  O169     1.0000 0.55842  0.80064  0.78900  Biso   1.000  O
  O170     1.0000 0.48717  0.85143  0.72194  Biso   1.000  O
  O171     1.0000 0.37839  0.68027  0.72220  Biso   1.000  O
  Cu39     1.0000 0.86090  0.65493  0.10641  Biso   1.000  Cu
  Cu40     1.0000 0.94778  0.77044  0.00424  Biso   1.000  Cu
  C153     1.0000 0.96870  0.80950  0.20620  Biso   1.000  C
  H77      1.0000 0.00840  0.83300  0.19170  Biso   1.000  H
  C154     1.0000 0.91670  0.85790  0.23190  Biso   1.000  C
  H78      1.0000 0.88810  0.87050  0.19500  Biso   1.000  H
  C155     1.0000 0.91820  0.76830  0.30660  Biso   1.000  C
  H79      1.0000 0.89540  0.72590  0.30160  Biso   1.000  H
  C156     1.0000 0.98340  0.76640  0.26760  Biso   1.000  C
  H80      1.0000 0.01680  0.78940  0.29400  Biso   1.000  H
  C157     1.0000 0.93730  0.77170  0.14870  Biso   1.000  C
  C158     1.0000 0.94410  0.92080  0.26310  Biso   1.000  C
  C159     1.0000 0.92950  0.78180  0.37920  Biso   1.000  C
  C160     1.0000 0.01060  0.69770  0.25120  Biso   1.000  C
  O172     1.0000 0.90547  0.72074  0.16140  Biso   1.000  O
  O173     1.0000 0.94550  0.79844  0.09384  Biso   1.000  O
  O174     1.0000 0.95970  0.73750  0.40990  Biso   1.000  O
  O175     1.0000 0.90972  0.83466  0.40474  Biso   1.000  O
  O176     1.0000 0.92112  0.93935  0.31743  Biso   1.000  O
  O177     1.0000 0.98590  0.95237  0.23030  Biso   1.000  O
  O178     1.0000 0.05842  0.69936  0.21100  Biso   1.000  O
  O179     1.0000 0.98717  0.64857  0.27806  Biso   1.000  O
  O180     1.0000 0.87839  0.81973  0.27780  Biso   1.000  O
  Cu41     1.0000 0.39359  0.13910  0.15493  Biso   1.000  Cu
  Cu42     1.0000 0.49576  0.05222  0.27044  Biso   1.000  Cu
  C161     1.0000 0.29380  0.03130  0.30950  Biso   1.000  C
  H81      1.0000 0.30830  0.99160  0.33300  Biso   1.000  H
  C162     1.0000 0.26810  0.08330  0.35790  Biso   1.000  C
  H82      1.0000 0.30500  0.11190  0.37050  Biso   1.000  H
  C163     1.0000 0.19340  0.08180  0.26830  Biso   1.000  C
  H83      1.0000 0.19840  0.10460  0.22590  Biso   1.000  H
  C164     1.0000 0.23240  0.01660  0.26640  Biso   1.000  C
  H84      1.0000 0.20600  0.98320  0.28940  Biso   1.000  H
  C165     1.0000 0.35130  0.06270  0.27170  Biso   1.000  C
  C166     1.0000 0.23690  0.05590  0.42080  Biso   1.000  C
  C167     1.0000 0.12080  0.07050  0.28180  Biso   1.000  C
  C168     1.0000 0.24880  0.98940  0.19770  Biso   1.000  C
  O181     1.0000 0.33860  0.09453  0.22074  Biso   1.000  O
  O182     1.0000 0.40616  0.05450  0.29844  Biso   1.000  O
  O183     1.0000 0.09010  0.04030  0.23750  Biso   1.000  O
  O184     1.0000 0.09526  0.09028  0.33466  Biso   1.000  O
  O185     1.0000 0.18257  0.07888  0.43935  Biso   1.000  O
  O186     1.0000 0.26970  0.01410  0.45237  Biso   1.000  O
  O187     1.0000 0.28900  0.94158  0.19936  Biso   1.000  O
  O188     1.0000 0.22194  0.01283  0.14857  Biso   1.000  O
  O189     1.0000 0.22220  0.12161  0.31973  Biso   1.000  O
  Cu43     1.0000 0.60641  0.63910  0.34507  Biso   1.000  Cu
  Cu44     1.0000 0.50424  0.55222  0.22956  Biso   1.000  Cu
  C169     1.0000 0.70620  0.53130  0.19050  Biso   1.000  C
  H85      1.0000 0.69170  0.49160  0.16700  Biso   1.000  H
  C170     1.0000 0.73190  0.58330  0.14210  Biso   1.000  C
  H86      1.0000 0.69500  0.61190  0.12950  Biso   1.000  H
  C171     1.0000 0.80660  0.58180  0.23170  Biso   1.000  C
  H87      1.0000 0.80160  0.60460  0.27410  Biso   1.000  H
  C172     1.0000 0.76760  0.51660  0.23360  Biso   1.000  C
  H88      1.0000 0.79400  0.48320  0.21060  Biso   1.000  H
  C173     1.0000 0.64870  0.56270  0.22830  Biso   1.000  C
  C174     1.0000 0.76310  0.55590  0.07920  Biso   1.000  C
  C175     1.0000 0.87920  0.57050  0.21820  Biso   1.000  C
  C176     1.0000 0.75120  0.48940  0.30230  Biso   1.000  C
  O190     1.0000 0.66140  0.59453  0.27926  Biso   1.000  O
  O191     1.0000 0.59384  0.55450  0.20156  Biso   1.000  O
  O192     1.0000 0.90990  0.54030  0.26250  Biso   1.000  O
  O193     1.0000 0.90474  0.59028  0.16534  Biso   1.000  O
  O194     1.0000 0.81743  0.57888  0.06065  Biso   1.000  O
  O195     1.0000 0.73030  0.51410  0.04763  Biso   1.000  O
  O196     1.0000 0.71100  0.44158  0.30064  Biso   1.000  O
  O197     1.0000 0.77806  0.51283  0.35143  Biso   1.000  O
  O198     1.0000 0.77780  0.62161  0.18027  Biso   1.000  O
  Cu45     1.0000 0.89359  0.36090  0.84507  Biso   1.000  Cu
  Cu46     1.0000 0.99576  0.44778  0.72956  Biso   1.000  Cu
  C177     1.0000 0.79380  0.46870  0.69050  Biso   1.000  C
  H89      1.0000 0.80830  0.50840  0.66700  Biso   1.000  H
  C178     1.0000 0.76810  0.41670  0.64210  Biso   1.000  C
  H90      1.0000 0.80500  0.38810  0.62950  Biso   1.000  H
  C179     1.0000 0.69340  0.41820  0.73170  Biso   1.000  C
  H91      1.0000 0.69840  0.39540  0.77410  Biso   1.000  H
  C180     1.0000 0.73240  0.48340  0.73360  Biso   1.000  C
  H92      1.0000 0.70600  0.51680  0.71060  Biso   1.000  H
  C181     1.0000 0.85130  0.43730  0.72830  Biso   1.000  C
  C182     1.0000 0.73690  0.44410  0.57920  Biso   1.000  C
  C183     1.0000 0.62080  0.42950  0.71820  Biso   1.000  C
  C184     1.0000 0.74880  0.51060  0.80230  Biso   1.000  C
  O199     1.0000 0.83860  0.40547  0.77926  Biso   1.000  O
  O200     1.0000 0.90616  0.44550  0.70156  Biso   1.000  O
  O201     1.0000 0.59010  0.45970  0.76250  Biso   1.000  O
  O202     1.0000 0.59526  0.40972  0.66534  Biso   1.000  O
  O203     1.0000 0.68257  0.42112  0.56065  Biso   1.000  O
  O204     1.0000 0.76970  0.48590  0.54763  Biso   1.000  O
  O205     1.0000 0.78900  0.55842  0.80064  Biso   1.000  O
  O206     1.0000 0.72194  0.48717  0.85143  Biso   1.000  O
  O207     1.0000 0.72220  0.37839  0.68027  Biso   1.000  O
  Cu47     1.0000 0.10641  0.86090  0.65493  Biso   1.000  Cu
  Cu48     1.0000 0.00424  0.94778  0.77044  Biso   1.000  Cu
  C185     1.0000 0.20620  0.96870  0.80950  Biso   1.000  C
  H93      1.0000 0.19170  0.00840  0.83300  Biso   1.000  H
  C186     1.0000 0.23190  0.91670  0.85790  Biso   1.000  C
  H94      1.0000 0.19500  0.88810  0.87050  Biso   1.000  H
  C187     1.0000 0.30660  0.91820  0.76830  Biso   1.000  C
  H95      1.0000 0.30160  0.89540  0.72590  Biso   1.000  H
  C188     1.0000 0.26760  0.98340  0.76640  Biso   1.000  C
  H96      1.0000 0.29400  0.01680  0.78940  Biso   1.000  H
  C189     1.0000 0.14870  0.93730  0.77170  Biso   1.000  C
  C190     1.0000 0.26310  0.94410  0.92080  Biso   1.000  C
  C191     1.0000 0.37920  0.92950  0.78180  Biso   1.000  C
  C192     1.0000 0.25120  0.01060  0.69770  Biso   1.000  C
  O208     1.0000 0.16140  0.90547  0.72074  Biso   1.000  O
  O209     1.0000 0.09384  0.94550  0.79844  Biso   1.000  O
  O210     1.0000 0.40990  0.95970  0.73750  Biso   1.000  O
  O211     1.0000 0.40474  0.90972  0.83466  Biso   1.000  O
  O212     1.0000 0.31743  0.92112  0.93935  Biso   1.000  O
  O213     1.0000 0.23030  0.98590  0.95237  Biso   1.000  O
  O214     1.0000 0.21100  0.05842  0.69936  Biso   1.000  O
  O215     1.0000 0.27806  0.98717  0.64857  Biso   1.000  O
  O216     1.0000 0.27780  0.87839  0.81973  Biso   1.000  O
