data_image0
_cell_length_a       7.017
_cell_length_b       26.637
_cell_length_c       18.062
_cell_angle_alpha    90
_cell_angle_beta     98.27
_cell_angle_gamma    90

_symmetry_space_group_name_H-M    "P 1"
_symmetry_int_tables_number       1

loop_
  _symmetry_equiv_pos_as_xyz
  'x, y, z'

loop_
  _atom_site_label
  _atom_site_occupancy
  _atom_site_fract_x
  _atom_site_fract_y
  _atom_site_fract_z
  _atom_site_thermal_displace_type
  _atom_site_B_iso_or_equiv
  _atom_site_type_symbol
  Sm1      1.0000 0.68337  0.42946  0.93295  Biso   1.000  Sm
  O1       1.0000 0.05890  0.00490  0.92070  Biso   1.000  O
  Sm2      1.0000 0.76281  0.06791  0.04918  Biso   1.000  Sm
  O2       1.0000 0.57020  0.03770  0.94470  Biso   1.000  O
  O3       1.0000 0.43660  0.97580  0.87170  Biso   1.000  O
  O4       1.0000 0.69070  0.05150  0.55970  Biso   1.000  O
  O5       1.0000 0.58400  0.97960  0.60270  Biso   1.000  O
  O6       1.0000 0.95460  0.08120  0.94860  Biso   1.000  O
  O7       1.0000 0.15000  0.96310  0.66910  Biso   1.000  O
  O8       1.0000 0.18470  0.01930  0.58190  Biso   1.000  O
  O9       1.0000 0.43740  0.11550  0.04510  Biso   1.000  O
  O10      1.0000 0.70280  0.15710  0.01450  Biso   1.000  O
  O11      1.0000 0.66800  0.34110  0.97410  Biso   1.000  O
  O12      1.0000 0.39060  0.38100  0.95890  Biso   1.000  O
  N1       1.0000 0.58900  0.29040  0.76950  Biso   1.000  N
  N2       1.0000 0.02100  0.29520  0.69150  Biso   1.000  N
  C1       1.0000 0.09600  0.27770  0.75740  Biso   1.000  C
  H1       1.0000 0.13380  0.30080  0.79520  Biso   1.000  H
  C2       1.0000 0.12300  0.22700  0.77450  Biso   1.000  C
  H2       1.0000 0.18210  0.21740  0.82180  Biso   1.000  H
  C3       1.0000 0.06110  0.19040  0.72040  Biso   1.000  C
  C4       1.0000 0.98600  0.20910  0.64910  Biso   1.000  C
  H3       1.0000 0.95100  0.18700  0.60960  Biso   1.000  H
  C5       1.0000 0.96500  0.26130  0.63770  Biso   1.000  C
  H4       1.0000 0.90860  0.27280  0.59090  Biso   1.000  H
  C6       1.0000 0.07400  0.13580  0.73820  Biso   1.000  C
  C7       1.0000 0.04700  0.11980  0.81030  Biso   1.000  C
  H5       1.0000 0.02500  0.14330  0.84620  Biso   1.000  H
  C8       1.0000 0.05330  0.06900  0.82760  Biso   1.000  C
  C9       1.0000 0.08160  0.03300  0.77360  Biso   1.000  C
  H6       1.0000 0.08300  0.99900  0.78540  Biso   1.000  H
  C10      1.0000 0.10830  0.04900  0.70070  Biso   1.000  C
  C11      1.0000 0.10210  0.09980  0.68360  Biso   1.000  C
  H7       1.0000 0.11660  0.11020  0.63560  Biso   1.000  H
  C12      1.0000 0.14650  0.00830  0.64730  Biso   1.000  C
  C13      1.0000 0.02110  0.05000  0.90520  Biso   1.000  C
  C14      1.0000 0.65200  0.26050  0.82890  Biso   1.000  C
  H8       1.0000 0.69970  0.27570  0.87400  Biso   1.000  H
  C15      1.0000 0.64700  0.20840  0.82570  Biso   1.000  C
  H9       1.0000 0.68690  0.18970  0.86870  Biso   1.000  H
  C16      1.0000 0.58440  0.18430  0.75860  Biso   1.000  C
  C17      1.0000 0.52300  0.21530  0.69710  Biso   1.000  C
  H10      1.0000 0.47970  0.20100  0.65090  Biso   1.000  H
  C18      1.0000 0.52700  0.26730  0.70440  Biso   1.000  C
  H11      1.0000 0.48530  0.28680  0.66250  Biso   1.000  H
  C19      1.0000 0.58280  0.12850  0.75320  Biso   1.000  C
  C20      1.0000 0.55660  0.10030  0.81560  Biso   1.000  C
  H12      1.0000 0.54260  0.11660  0.86010  Biso   1.000  H
  C21      1.0000 0.55080  0.04740  0.81280  Biso   1.000  C
  C22      1.0000 0.57180  0.02350  0.74500  Biso   1.000  C
  H13      1.0000 0.56330  0.98870  0.74160  Biso   1.000  H
  C23      1.0000 0.60520  0.05140  0.68290  Biso   1.000  C
  C24      1.0000 0.60680  0.10400  0.68600  Biso   1.000  C
  H14      1.0000 0.62370  0.12270  0.64390  Biso   1.000  H
  C25      1.0000 0.51970  0.01750  0.88090  Biso   1.000  C
  C26      1.0000 0.62840  0.02610  0.61010  Biso   1.000  C
  C27      1.0000 0.52300  0.15500  0.01950  Biso   1.000  C
  C28      1.0000 0.40260  0.20170  0.00100  Biso   1.000  C
  C29      1.0000 0.20080  0.19850  0.98750  Biso   1.000  C
  H15      1.0000 0.13950  0.16770  0.99060  Biso   1.000  H
  C30      1.0000 0.09390  0.24200  0.96960  Biso   1.000  C
  H16      1.0000 0.96030  0.23980  0.96020  Biso   1.000  H
  C31      1.0000 0.18110  0.28880  0.96520  Biso   1.000  C
  H17      1.0000 0.10710  0.31740  0.95340  Biso   1.000  H
  C32      1.0000 0.38330  0.29170  0.97910  Biso   1.000  C
  C33      1.0000 0.48740  0.34090  0.97070  Biso   1.000  C
  C34      1.0000 0.49080  0.24840  0.99520  Biso   1.000  C
  H18      1.0000 0.62450  0.25040  0.00240  Biso   1.000  H
  Sm3      1.0000 0.31663  0.92946  0.56705  Biso   1.000  Sm
  O13      1.0000 0.94110  0.50490  0.57930  Biso   1.000  O
  Sm4      1.0000 0.23719  0.56791  0.45082  Biso   1.000  Sm
  O14      1.0000 0.42980  0.53770  0.55530  Biso   1.000  O
  O15      1.0000 0.56340  0.47580  0.62830  Biso   1.000  O
  O16      1.0000 0.30930  0.55150  0.94030  Biso   1.000  O
  O17      1.0000 0.41600  0.47960  0.89730  Biso   1.000  O
  O18      1.0000 0.04540  0.58120  0.55140  Biso   1.000  O
  O19      1.0000 0.85000  0.46310  0.83090  Biso   1.000  O
  O20      1.0000 0.81530  0.51930  0.91810  Biso   1.000  O
  O21      1.0000 0.56260  0.61550  0.45490  Biso   1.000  O
  O22      1.0000 0.29720  0.65710  0.48550  Biso   1.000  O
  O23      1.0000 0.33200  0.84110  0.52590  Biso   1.000  O
  O24      1.0000 0.60940  0.88100  0.54110  Biso   1.000  O
  N3       1.0000 0.41100  0.79040  0.73050  Biso   1.000  N
  N4       1.0000 0.97900  0.79520  0.80850  Biso   1.000  N
  C35      1.0000 0.90400  0.77770  0.74260  Biso   1.000  C
  H19      1.0000 0.86620  0.80080  0.70480  Biso   1.000  H
  C36      1.0000 0.87700  0.72700  0.72550  Biso   1.000  C
  H20      1.0000 0.81790  0.71740  0.67820  Biso   1.000  H
  C37      1.0000 0.93890  0.69040  0.77960  Biso   1.000  C
  C38      1.0000 0.01400  0.70910  0.85090  Biso   1.000  C
  H21      1.0000 0.04900  0.68700  0.89040  Biso   1.000  H
  C39      1.0000 0.03500  0.76130  0.86230  Biso   1.000  C
  H22      1.0000 0.09140  0.77280  0.90910  Biso   1.000  H
  C40      1.0000 0.92600  0.63580  0.76180  Biso   1.000  C
  C41      1.0000 0.95300  0.61980  0.68970  Biso   1.000  C
  H23      1.0000 0.97500  0.64330  0.65380  Biso   1.000  H
  C42      1.0000 0.94670  0.56900  0.67240  Biso   1.000  C
  C43      1.0000 0.91840  0.53300  0.72640  Biso   1.000  C
  H24      1.0000 0.91700  0.49900  0.71460  Biso   1.000  H
  C44      1.0000 0.89170  0.54900  0.79930  Biso   1.000  C
  C45      1.0000 0.89790  0.59980  0.81640  Biso   1.000  C
  H25      1.0000 0.88340  0.61020  0.86440  Biso   1.000  H
  C46      1.0000 0.85350  0.50830  0.85270  Biso   1.000  C
  C47      1.0000 0.97890  0.55000  0.59480  Biso   1.000  C
  C48      1.0000 0.34800  0.76050  0.67110  Biso   1.000  C
  H26      1.0000 0.30030  0.77570  0.62600  Biso   1.000  H
  C49      1.0000 0.35300  0.70840  0.67430  Biso   1.000  C
  H27      1.0000 0.31310  0.68970  0.63130  Biso   1.000  H
  C50      1.0000 0.41560  0.68430  0.74140  Biso   1.000  C
  C51      1.0000 0.47700  0.71530  0.80290  Biso   1.000  C
  H28      1.0000 0.52030  0.70100  0.84910  Biso   1.000  H
  C52      1.0000 0.47300  0.76730  0.79560  Biso   1.000  C
  H29      1.0000 0.51470  0.78680  0.83750  Biso   1.000  H
  C53      1.0000 0.41720  0.62850  0.74680  Biso   1.000  C
  C54      1.0000 0.44340  0.60030  0.68440  Biso   1.000  C
  H30      1.0000 0.45740  0.61660  0.63990  Biso   1.000  H
  C55      1.0000 0.44920  0.54740  0.68720  Biso   1.000  C
  C56      1.0000 0.42820  0.52350  0.75500  Biso   1.000  C
  H31      1.0000 0.43670  0.48870  0.75840  Biso   1.000  H
  C57      1.0000 0.39480  0.55140  0.81710  Biso   1.000  C
  C58      1.0000 0.39320  0.60400  0.81400  Biso   1.000  C
  H32      1.0000 0.37630  0.62270  0.85610  Biso   1.000  H
  C59      1.0000 0.48030  0.51750  0.61910  Biso   1.000  C
  C60      1.0000 0.37160  0.52610  0.88990  Biso   1.000  C
  C61      1.0000 0.47700  0.65500  0.48050  Biso   1.000  C
  C62      1.0000 0.59740  0.70170  0.49900  Biso   1.000  C
  C63      1.0000 0.79920  0.69850  0.51250  Biso   1.000  C
  H33      1.0000 0.86050  0.66770  0.50940  Biso   1.000  H
  C64      1.0000 0.90610  0.74200  0.53040  Biso   1.000  C
  H34      1.0000 0.03970  0.73980  0.53980  Biso   1.000  H
  C65      1.0000 0.81890  0.78880  0.53480  Biso   1.000  C
  H35      1.0000 0.89290  0.81740  0.54660  Biso   1.000  H
  C66      1.0000 0.61670  0.79170  0.52090  Biso   1.000  C
  C67      1.0000 0.51260  0.84090  0.52930  Biso   1.000  C
  C68      1.0000 0.50920  0.74840  0.50480  Biso   1.000  C
  H36      1.0000 0.37550  0.75040  0.49760  Biso   1.000  H
  Sm5      1.0000 0.31663  0.57054  0.06705  Biso   1.000  Sm
  O25      1.0000 0.94110  0.99510  0.07930  Biso   1.000  O
  Sm6      1.0000 0.23719  0.93209  0.95082  Biso   1.000  Sm
  O26      1.0000 0.42980  0.96230  0.05530  Biso   1.000  O
  O27      1.0000 0.56340  0.02420  0.12830  Biso   1.000  O
  O28      1.0000 0.30930  0.94850  0.44030  Biso   1.000  O
  O29      1.0000 0.41600  0.02040  0.39730  Biso   1.000  O
  O30      1.0000 0.04540  0.91880  0.05140  Biso   1.000  O
  O31      1.0000 0.85000  0.03690  0.33090  Biso   1.000  O
  O32      1.0000 0.81530  0.98070  0.41810  Biso   1.000  O
  O33      1.0000 0.56260  0.88450  0.95490  Biso   1.000  O
  O34      1.0000 0.29720  0.84290  0.98550  Biso   1.000  O
  O35      1.0000 0.33200  0.65890  0.02590  Biso   1.000  O
  O36      1.0000 0.60940  0.61900  0.04110  Biso   1.000  O
  N5       1.0000 0.41100  0.70960  0.23050  Biso   1.000  N
  N6       1.0000 0.97900  0.70480  0.30850  Biso   1.000  N
  C69      1.0000 0.90400  0.72230  0.24260  Biso   1.000  C
  H37      1.0000 0.86620  0.69920  0.20480  Biso   1.000  H
  C70      1.0000 0.87700  0.77300  0.22550  Biso   1.000  C
  H38      1.0000 0.81790  0.78260  0.17820  Biso   1.000  H
  C71      1.0000 0.93890  0.80960  0.27960  Biso   1.000  C
  C72      1.0000 0.01400  0.79090  0.35090  Biso   1.000  C
  H39      1.0000 0.04900  0.81300  0.39040  Biso   1.000  H
  C73      1.0000 0.03500  0.73870  0.36230  Biso   1.000  C
  H40      1.0000 0.09140  0.72720  0.40910  Biso   1.000  H
  C74      1.0000 0.92600  0.86420  0.26180  Biso   1.000  C
  C75      1.0000 0.95300  0.88020  0.18970  Biso   1.000  C
  H41      1.0000 0.97500  0.85670  0.15380  Biso   1.000  H
  C76      1.0000 0.94670  0.93100  0.17240  Biso   1.000  C
  C77      1.0000 0.91840  0.96700  0.22640  Biso   1.000  C
  H42      1.0000 0.91700  0.00100  0.21460  Biso   1.000  H
  C78      1.0000 0.89170  0.95100  0.29930  Biso   1.000  C
  C79      1.0000 0.89790  0.90020  0.31640  Biso   1.000  C
  H43      1.0000 0.88340  0.88980  0.36440  Biso   1.000  H
  C80      1.0000 0.85350  0.99170  0.35270  Biso   1.000  C
  C81      1.0000 0.97890  0.95000  0.09480  Biso   1.000  C
  C82      1.0000 0.34800  0.73950  0.17110  Biso   1.000  C
  H44      1.0000 0.30030  0.72430  0.12600  Biso   1.000  H
  C83      1.0000 0.35300  0.79160  0.17430  Biso   1.000  C
  H45      1.0000 0.31310  0.81030  0.13130  Biso   1.000  H
  C84      1.0000 0.41560  0.81570  0.24140  Biso   1.000  C
  C85      1.0000 0.47700  0.78470  0.30290  Biso   1.000  C
  H46      1.0000 0.52030  0.79900  0.34910  Biso   1.000  H
  C86      1.0000 0.47300  0.73270  0.29560  Biso   1.000  C
  H47      1.0000 0.51470  0.71320  0.33750  Biso   1.000  H
  C87      1.0000 0.41720  0.87150  0.24680  Biso   1.000  C
  C88      1.0000 0.44340  0.89970  0.18440  Biso   1.000  C
  H48      1.0000 0.45740  0.88340  0.13990  Biso   1.000  H
  C89      1.0000 0.44920  0.95260  0.18720  Biso   1.000  C
  C90      1.0000 0.42820  0.97650  0.25500  Biso   1.000  C
  H49      1.0000 0.43670  0.01130  0.25840  Biso   1.000  H
  C91      1.0000 0.39480  0.94860  0.31710  Biso   1.000  C
  C92      1.0000 0.39320  0.89600  0.31400  Biso   1.000  C
  H50      1.0000 0.37630  0.87730  0.35610  Biso   1.000  H
  C93      1.0000 0.48030  0.98250  0.11910  Biso   1.000  C
  C94      1.0000 0.37160  0.97390  0.38990  Biso   1.000  C
  C95      1.0000 0.47700  0.84500  0.98050  Biso   1.000  C
  C96      1.0000 0.59740  0.79830  0.99900  Biso   1.000  C
  C97      1.0000 0.79920  0.80150  0.01250  Biso   1.000  C
  H51      1.0000 0.86050  0.83230  0.00940  Biso   1.000  H
  C98      1.0000 0.90610  0.75800  0.03040  Biso   1.000  C
  H52      1.0000 0.03970  0.76020  0.03980  Biso   1.000  H
  C99      1.0000 0.81890  0.71120  0.03480  Biso   1.000  C
  H53      1.0000 0.89290  0.68260  0.04660  Biso   1.000  H
  C100     1.0000 0.61670  0.70830  0.02090  Biso   1.000  C
  C101     1.0000 0.51260  0.65910  0.02930  Biso   1.000  C
  C102     1.0000 0.50920  0.75160  0.00480  Biso   1.000  C
  H54      1.0000 0.37550  0.74960  0.99760  Biso   1.000  H
  Sm7      1.0000 0.68337  0.07054  0.43295  Biso   1.000  Sm
  O37      1.0000 0.05890  0.49510  0.42070  Biso   1.000  O
  Sm8      1.0000 0.76281  0.43209  0.54918  Biso   1.000  Sm
  O38      1.0000 0.57020  0.46230  0.44470  Biso   1.000  O
  O39      1.0000 0.43660  0.52420  0.37170  Biso   1.000  O
  O40      1.0000 0.69070  0.44850  0.05970  Biso   1.000  O
  O41      1.0000 0.58400  0.52040  0.10270  Biso   1.000  O
  O42      1.0000 0.95460  0.41880  0.44860  Biso   1.000  O
  O43      1.0000 0.15000  0.53690  0.16910  Biso   1.000  O
  O44      1.0000 0.18470  0.48070  0.08190  Biso   1.000  O
  O45      1.0000 0.43740  0.38450  0.54510  Biso   1.000  O
  O46      1.0000 0.70280  0.34290  0.51450  Biso   1.000  O
  O47      1.0000 0.66800  0.15890  0.47410  Biso   1.000  O
  O48      1.0000 0.39060  0.11900  0.45890  Biso   1.000  O
  N7       1.0000 0.58900  0.20960  0.26950  Biso   1.000  N
  N8       1.0000 0.02100  0.20480  0.19150  Biso   1.000  N
  C103     1.0000 0.09600  0.22230  0.25740  Biso   1.000  C
  H55      1.0000 0.13380  0.19920  0.29520  Biso   1.000  H
  C104     1.0000 0.12300  0.27300  0.27450  Biso   1.000  C
  H56      1.0000 0.18210  0.28260  0.32180  Biso   1.000  H
  C105     1.0000 0.06110  0.30960  0.22040  Biso   1.000  C
  C106     1.0000 0.98600  0.29090  0.14910  Biso   1.000  C
  H57      1.0000 0.95100  0.31300  0.10960  Biso   1.000  H
  C107     1.0000 0.96500  0.23870  0.13770  Biso   1.000  C
  H58      1.0000 0.90860  0.22720  0.09090  Biso   1.000  H
  C108     1.0000 0.07400  0.36420  0.23820  Biso   1.000  C
  C109     1.0000 0.04700  0.38020  0.31030  Biso   1.000  C
  H59      1.0000 0.02500  0.35670  0.34620  Biso   1.000  H
  C110     1.0000 0.05330  0.43100  0.32760  Biso   1.000  C
  C111     1.0000 0.08160  0.46700  0.27360  Biso   1.000  C
  H60      1.0000 0.08300  0.50100  0.28540  Biso   1.000  H
  C112     1.0000 0.10830  0.45100  0.20070  Biso   1.000  C
  C113     1.0000 0.10210  0.40020  0.18360  Biso   1.000  C
  H61      1.0000 0.11660  0.38980  0.13560  Biso   1.000  H
  C114     1.0000 0.14650  0.49170  0.14730  Biso   1.000  C
  C115     1.0000 0.02110  0.45000  0.40520  Biso   1.000  C
  C116     1.0000 0.65200  0.23950  0.32890  Biso   1.000  C
  H62      1.0000 0.69970  0.22430  0.37400  Biso   1.000  H
  C117     1.0000 0.64700  0.29160  0.32570  Biso   1.000  C
  H63      1.0000 0.68690  0.31030  0.36870  Biso   1.000  H
  C118     1.0000 0.58440  0.31570  0.25860  Biso   1.000  C
  C119     1.0000 0.52300  0.28470  0.19710  Biso   1.000  C
  H64      1.0000 0.47970  0.29900  0.15090  Biso   1.000  H
  C120     1.0000 0.52700  0.23270  0.20440  Biso   1.000  C
  H65      1.0000 0.48530  0.21320  0.16250  Biso   1.000  H
  C121     1.0000 0.58280  0.37150  0.25320  Biso   1.000  C
  C122     1.0000 0.55660  0.39970  0.31560  Biso   1.000  C
  H66      1.0000 0.54260  0.38340  0.36010  Biso   1.000  H
  C123     1.0000 0.55080  0.45260  0.31280  Biso   1.000  C
  C124     1.0000 0.57180  0.47650  0.24500  Biso   1.000  C
  H67      1.0000 0.56330  0.51130  0.24160  Biso   1.000  H
  C125     1.0000 0.60520  0.44860  0.18290  Biso   1.000  C
  C126     1.0000 0.60680  0.39600  0.18600  Biso   1.000  C
  H68      1.0000 0.62370  0.37730  0.14390  Biso   1.000  H
  C127     1.0000 0.51970  0.48250  0.38090  Biso   1.000  C
  C128     1.0000 0.62840  0.47390  0.11010  Biso   1.000  C
  C129     1.0000 0.52300  0.34500  0.51950  Biso   1.000  C
  C130     1.0000 0.40260  0.29830  0.50100  Biso   1.000  C
  C131     1.0000 0.20080  0.30150  0.48750  Biso   1.000  C
  H69      1.0000 0.13950  0.33230  0.49060  Biso   1.000  H
  C132     1.0000 0.09390  0.25800  0.46960  Biso   1.000  C
  H70      1.0000 0.96030  0.26020  0.46020  Biso   1.000  H
  C133     1.0000 0.18110  0.21120  0.46520  Biso   1.000  C
  H71      1.0000 0.10710  0.18260  0.45340  Biso   1.000  H
  C134     1.0000 0.38330  0.20830  0.47910  Biso   1.000  C
  C135     1.0000 0.48740  0.15910  0.47070  Biso   1.000  C
  C136     1.0000 0.49080  0.25160  0.49520  Biso   1.000  C
  H72      1.0000 0.62450  0.24960  0.50240  Biso   1.000  H
