data_image0
_cell_length_a       6.961
_cell_length_b       26.303
_cell_length_c       17.797
_cell_angle_alpha    90
_cell_angle_beta     97.86
_cell_angle_gamma    90

_symmetry_space_group_name_H-M    "P 1"
_symmetry_int_tables_number       1

loop_
  _symmetry_equiv_pos_as_xyz
  'x, y, z'

loop_
  _atom_site_label
  _atom_site_occupancy
  _atom_site_fract_x
  _atom_site_fract_y
  _atom_site_fract_z
  _atom_site_thermal_displace_type
  _atom_site_B_iso_or_equiv
  _atom_site_type_symbol
  O1       1.0000 0.60530  0.11830  0.53970  Biso   1.000  O
  O2       1.0000 0.32710  0.15710  0.52730  Biso   1.000  O
  C1       1.0000 0.50730  0.15790  0.52840  Biso   1.000  C
  O3       1.0000 0.95490  0.57970  0.45010  Biso   1.000  O
  C2       1.0000 0.02270  0.54880  0.40760  Biso   1.000  C
  O4       1.0000 0.57600  0.53750  0.44630  Biso   1.000  O
  C3       1.0000 0.65600  0.76150  0.32900  Biso   1.000  C
  H1       1.0000 0.70190  0.77700  0.37490  Biso   1.000  H
  N1       1.0000 0.59590  0.79150  0.26960  Biso   1.000  N
  C4       1.0000 0.53200  0.76820  0.20480  Biso   1.000  C
  H2       1.0000 0.49060  0.78790  0.16240  Biso   1.000  H
  O5       1.0000 0.69280  0.55140  0.05910  Biso   1.000  O
  C5       1.0000 0.60970  0.20790  0.52030  Biso   1.000  C
  Dy1      1.0000 0.31803  0.43003  0.06619  Biso   1.000  Dy
  Dy2      1.0000 0.23659  0.43175  0.45085  Biso   1.000  Dy
  O6       1.0000 0.43230  0.47600  0.37530  Biso   1.000  O
  O7       1.0000 0.29410  0.34370  0.48560  Biso   1.000  O
  O8       1.0000 0.18320  0.51760  0.08010  Biso   1.000  O
  O9       1.0000 0.15380  0.46090  0.16800  Biso   1.000  O
  O10      1.0000 0.54930  0.38410  0.45850  Biso   1.000  O
  C6       1.0000 0.57360  0.52350  0.24580  Biso   1.000  C
  H3       1.0000 0.56600  0.48830  0.24280  Biso   1.000  H
  C7       1.0000 0.05280  0.56710  0.32830  Biso   1.000  C
  C8       1.0000 0.60340  0.55090  0.18320  Biso   1.000  C
  C9       1.0000 0.55850  0.59970  0.31610  Biso   1.000  C
  H4       1.0000 0.54470  0.61580  0.36160  Biso   1.000  H
  C10      1.0000 0.50310  0.25150  0.50470  Biso   1.000  C
  H5       1.0000 0.36840  0.24990  0.49710  Biso   1.000  H
  C11      1.0000 0.47120  0.34420  0.48030  Biso   1.000  C
  C12      1.0000 0.14800  0.50780  0.14570  Biso   1.000  C
  C13      1.0000 0.52040  0.51770  0.38360  Biso   1.000  C
  C14      1.0000 0.04980  0.61900  0.31120  Biso   1.000  C
  H6       1.0000 0.03120  0.64260  0.34830  Biso   1.000  H
  C15      1.0000 0.08060  0.53260  0.27330  Biso   1.000  C
  H7       1.0000 0.08230  0.49820  0.28510  Biso   1.000  H
  C16      1.0000 0.58210  0.62920  0.25360  Biso   1.000  C
  C17      1.0000 0.55470  0.54730  0.31330  Biso   1.000  C
  C18      1.0000 0.59600  0.29830  0.50010  Biso   1.000  C
  C19      1.0000 0.10240  0.59950  0.18350  Biso   1.000  C
  H8       1.0000 0.11870  0.60990  0.13490  Biso   1.000  H
  C20      1.0000 0.10600  0.54710  0.20100  Biso   1.000  C
  C21      1.0000 0.60690  0.60430  0.18600  Biso   1.000  C
  H9       1.0000 0.62560  0.62300  0.14320  Biso   1.000  H
  C22      1.0000 0.65410  0.71010  0.32610  Biso   1.000  C
  H10      1.0000 0.69690  0.69120  0.36930  Biso   1.000  H
  C23      1.0000 0.62380  0.52580  0.10870  Biso   1.000  C
  C24      1.0000 0.07490  0.63550  0.23800  Biso   1.000  C
  C25      1.0000 0.58760  0.68560  0.25790  Biso   1.000  C
  C26      1.0000 0.52500  0.71560  0.19760  Biso   1.000  C
  H11      1.0000 0.47750  0.70100  0.15120  Biso   1.000  H
  C27      1.0000 0.81040  0.21120  0.53290  Biso   1.000  C
  H12      1.0000 0.88440  0.18210  0.54390  Biso   1.000  H
  C28      1.0000 0.06400  0.69040  0.21970  Biso   1.000  C
  C29      1.0000 0.79300  0.30150  0.51200  Biso   1.000  C
  H13      1.0000 0.85430  0.33260  0.50880  Biso   1.000  H
  C30      1.0000 0.98280  0.70880  0.14940  Biso   1.000  C
  H14      1.0000 0.93900  0.68650  0.11010  Biso   1.000  H
  C31      1.0000 0.90080  0.25780  0.52910  Biso   1.000  C
  H15      1.0000 0.03540  0.25980  0.53800  Biso   1.000  H
  C32      1.0000 0.12680  0.72710  0.27560  Biso   1.000  C
  H16      1.0000 0.18460  0.71740  0.32360  Biso   1.000  H
  N2       1.0000 0.01900  0.79560  0.19020  Biso   1.000  N
  C33      1.0000 0.10000  0.77850  0.25680  Biso   1.000  C
  H17      1.0000 0.14180  0.80230  0.29400  Biso   1.000  H
  C34      1.0000 0.96800  0.76140  0.13870  Biso   1.000  C
  H18      1.0000 0.91750  0.77290  0.09060  Biso   1.000  H
  O11      1.0000 0.57940  0.47950  0.10130  Biso   1.000  O
  O12      1.0000 0.06080  0.50320  0.42230  Biso   1.000  O
  O13      1.0000 0.39470  0.61830  0.96030  Biso   1.000  O
  O14      1.0000 0.67290  0.65710  0.97270  Biso   1.000  O
  C35      1.0000 0.49270  0.65790  0.97160  Biso   1.000  C
  O15      1.0000 0.04510  0.07970  0.04990  Biso   1.000  O
  C36      1.0000 0.97730  0.04880  0.09240  Biso   1.000  C
  O16      1.0000 0.42400  0.03750  0.05370  Biso   1.000  O
  C37      1.0000 0.34400  0.26150  0.17100  Biso   1.000  C
  H19      1.0000 0.29810  0.27700  0.12510  Biso   1.000  H
  N3       1.0000 0.40410  0.29150  0.23040  Biso   1.000  N
  C38      1.0000 0.46800  0.26820  0.29520  Biso   1.000  C
  H20      1.0000 0.50940  0.28790  0.33760  Biso   1.000  H
  O17      1.0000 0.30720  0.05140  0.44090  Biso   1.000  O
  C39      1.0000 0.39030  0.70790  0.97970  Biso   1.000  C
  Dy3      1.0000 0.68197  0.93003  0.43381  Biso   1.000  Dy
  Dy4      1.0000 0.76341  0.93175  0.04915  Biso   1.000  Dy
  O18      1.0000 0.56770  0.97600  0.12470  Biso   1.000  O
  O19      1.0000 0.70590  0.84370  0.01440  Biso   1.000  O
  O20      1.0000 0.81680  0.01760  0.41990  Biso   1.000  O
  O21      1.0000 0.84620  0.96090  0.33200  Biso   1.000  O
  O22      1.0000 0.45070  0.88410  0.04150  Biso   1.000  O
  C40      1.0000 0.42640  0.02350  0.25420  Biso   1.000  C
  H21      1.0000 0.43400  0.98830  0.25720  Biso   1.000  H
  C41      1.0000 0.94720  0.06710  0.17170  Biso   1.000  C
  C42      1.0000 0.39660  0.05090  0.31680  Biso   1.000  C
  C43      1.0000 0.44150  0.09970  0.18390  Biso   1.000  C
  H22      1.0000 0.45530  0.11580  0.13840  Biso   1.000  H
  C44      1.0000 0.49690  0.75150  0.99530  Biso   1.000  C
  H23      1.0000 0.63160  0.74990  0.00290  Biso   1.000  H
  C45      1.0000 0.52880  0.84420  0.01970  Biso   1.000  C
  C46      1.0000 0.85200  0.00780  0.35430  Biso   1.000  C
  C47      1.0000 0.47960  0.01770  0.11640  Biso   1.000  C
  C48      1.0000 0.95020  0.11900  0.18880  Biso   1.000  C
  H24      1.0000 0.96880  0.14260  0.15170  Biso   1.000  H
  C49      1.0000 0.91940  0.03260  0.22670  Biso   1.000  C
  H25      1.0000 0.91770  0.99820  0.21490  Biso   1.000  H
  C50      1.0000 0.41790  0.12920  0.24640  Biso   1.000  C
  C51      1.0000 0.44530  0.04730  0.18670  Biso   1.000  C
  C52      1.0000 0.40400  0.79830  0.99990  Biso   1.000  C
  C53      1.0000 0.89760  0.09950  0.31650  Biso   1.000  C
  H26      1.0000 0.88130  0.10990  0.36510  Biso   1.000  H
  C54      1.0000 0.89400  0.04710  0.29900  Biso   1.000  C
  C55      1.0000 0.39310  0.10430  0.31400  Biso   1.000  C
  H27      1.0000 0.37440  0.12300  0.35680  Biso   1.000  H
  C56      1.0000 0.34590  0.21010  0.17390  Biso   1.000  C
  H28      1.0000 0.30310  0.19120  0.13070  Biso   1.000  H
  C57      1.0000 0.37620  0.02580  0.39130  Biso   1.000  C
  C58      1.0000 0.92510  0.13550  0.26200  Biso   1.000  C
  C59      1.0000 0.41240  0.18560  0.24210  Biso   1.000  C
  C60      1.0000 0.47500  0.21560  0.30240  Biso   1.000  C
  H29      1.0000 0.52250  0.20100  0.34880  Biso   1.000  H
  C61      1.0000 0.18960  0.71120  0.96710  Biso   1.000  C
  H30      1.0000 0.11560  0.68210  0.95610  Biso   1.000  H
  C62      1.0000 0.93600  0.19040  0.28030  Biso   1.000  C
  C63      1.0000 0.20700  0.80150  0.98800  Biso   1.000  C
  H31      1.0000 0.14570  0.83260  0.99120  Biso   1.000  H
  C64      1.0000 0.01720  0.20880  0.35060  Biso   1.000  C
  H32      1.0000 0.06100  0.18650  0.38990  Biso   1.000  H
  C65      1.0000 0.09920  0.75780  0.97090  Biso   1.000  C
  H33      1.0000 0.96460  0.75980  0.96200  Biso   1.000  H
  C66      1.0000 0.87320  0.22710  0.22440  Biso   1.000  C
  H34      1.0000 0.81540  0.21740  0.17640  Biso   1.000  H
  N4       1.0000 0.98100  0.29560  0.30980  Biso   1.000  N
  C67      1.0000 0.90000  0.27850  0.24320  Biso   1.000  C
  H35      1.0000 0.85820  0.30230  0.20600  Biso   1.000  H
  C68      1.0000 0.03200  0.26140  0.36130  Biso   1.000  C
  H36      1.0000 0.08250  0.27290  0.40940  Biso   1.000  H
  O23      1.0000 0.42060  0.97950  0.39870  Biso   1.000  O
  O24      1.0000 0.93920  0.00320  0.07770  Biso   1.000  O
  O25      1.0000 0.39470  0.88170  0.46030  Biso   1.000  O
  O26      1.0000 0.67290  0.84290  0.47270  Biso   1.000  O
  C69      1.0000 0.49270  0.84210  0.47160  Biso   1.000  C
  O27      1.0000 0.04510  0.42030  0.54990  Biso   1.000  O
  C70      1.0000 0.97730  0.45120  0.59240  Biso   1.000  C
  O28      1.0000 0.42400  0.46250  0.55370  Biso   1.000  O
  C71      1.0000 0.34400  0.23850  0.67100  Biso   1.000  C
  H37      1.0000 0.29810  0.22300  0.62510  Biso   1.000  H
  N5       1.0000 0.40410  0.20850  0.73040  Biso   1.000  N
  C72      1.0000 0.46800  0.23180  0.79520  Biso   1.000  C
  H38      1.0000 0.50940  0.21210  0.83760  Biso   1.000  H
  O29      1.0000 0.30720  0.44860  0.94090  Biso   1.000  O
  C73      1.0000 0.39030  0.79210  0.47970  Biso   1.000  C
  Dy5      1.0000 0.68197  0.56997  0.93381  Biso   1.000  Dy
  Dy6      1.0000 0.76341  0.56825  0.54915  Biso   1.000  Dy
  O30      1.0000 0.56770  0.52400  0.62470  Biso   1.000  O
  O31      1.0000 0.70590  0.65630  0.51440  Biso   1.000  O
  O32      1.0000 0.81680  0.48240  0.91990  Biso   1.000  O
  O33      1.0000 0.84620  0.53910  0.83200  Biso   1.000  O
  O34      1.0000 0.45070  0.61590  0.54150  Biso   1.000  O
  C74      1.0000 0.42640  0.47650  0.75420  Biso   1.000  C
  H39      1.0000 0.43400  0.51170  0.75720  Biso   1.000  H
  C75      1.0000 0.94720  0.43290  0.67170  Biso   1.000  C
  C76      1.0000 0.39660  0.44910  0.81680  Biso   1.000  C
  C77      1.0000 0.44150  0.40030  0.68390  Biso   1.000  C
  H40      1.0000 0.45530  0.38420  0.63840  Biso   1.000  H
  C78      1.0000 0.49690  0.74850  0.49530  Biso   1.000  C
  H41      1.0000 0.63160  0.75010  0.50290  Biso   1.000  H
  C79      1.0000 0.52880  0.65580  0.51970  Biso   1.000  C
  C80      1.0000 0.85200  0.49220  0.85430  Biso   1.000  C
  C81      1.0000 0.47960  0.48230  0.61640  Biso   1.000  C
  C82      1.0000 0.95020  0.38100  0.68880  Biso   1.000  C
  H42      1.0000 0.96880  0.35740  0.65170  Biso   1.000  H
  C83      1.0000 0.91940  0.46740  0.72670  Biso   1.000  C
  H43      1.0000 0.91770  0.50180  0.71490  Biso   1.000  H
  C84      1.0000 0.41790  0.37080  0.74640  Biso   1.000  C
  C85      1.0000 0.44530  0.45270  0.68670  Biso   1.000  C
  C86      1.0000 0.40400  0.70170  0.49990  Biso   1.000  C
  C87      1.0000 0.89760  0.40050  0.81650  Biso   1.000  C
  H44      1.0000 0.88130  0.39010  0.86510  Biso   1.000  H
  C88      1.0000 0.89400  0.45290  0.79900  Biso   1.000  C
  C89      1.0000 0.39310  0.39570  0.81400  Biso   1.000  C
  H45      1.0000 0.37440  0.37700  0.85680  Biso   1.000  H
  C90      1.0000 0.34590  0.28990  0.67390  Biso   1.000  C
  H46      1.0000 0.30310  0.30880  0.63070  Biso   1.000  H
  C91      1.0000 0.37620  0.47420  0.89130  Biso   1.000  C
  C92      1.0000 0.92510  0.36450  0.76200  Biso   1.000  C
  C93      1.0000 0.41240  0.31440  0.74210  Biso   1.000  C
  C94      1.0000 0.47500  0.28440  0.80240  Biso   1.000  C
  H47      1.0000 0.52250  0.29900  0.84880  Biso   1.000  H
  C95      1.0000 0.18960  0.78880  0.46710  Biso   1.000  C
  H48      1.0000 0.11560  0.81790  0.45610  Biso   1.000  H
  C96      1.0000 0.93600  0.30960  0.78030  Biso   1.000  C
  C97      1.0000 0.20700  0.69850  0.48800  Biso   1.000  C
  H49      1.0000 0.14570  0.66740  0.49120  Biso   1.000  H
  C98      1.0000 0.01720  0.29120  0.85060  Biso   1.000  C
  H50      1.0000 0.06100  0.31350  0.88990  Biso   1.000  H
  C99      1.0000 0.09920  0.74220  0.47090  Biso   1.000  C
  H51      1.0000 0.96460  0.74020  0.46200  Biso   1.000  H
  C100     1.0000 0.87320  0.27290  0.72440  Biso   1.000  C
  H52      1.0000 0.81540  0.28260  0.67640  Biso   1.000  H
  N6       1.0000 0.98100  0.20440  0.80980  Biso   1.000  N
  C101     1.0000 0.90000  0.22150  0.74320  Biso   1.000  C
  H53      1.0000 0.85820  0.19770  0.70600  Biso   1.000  H
  C102     1.0000 0.03200  0.23860  0.86130  Biso   1.000  C
  H54      1.0000 0.08250  0.22710  0.90940  Biso   1.000  H
  O35      1.0000 0.42060  0.52050  0.89870  Biso   1.000  O
  O36      1.0000 0.93920  0.49680  0.57770  Biso   1.000  O
  O37      1.0000 0.60530  0.38170  0.03970  Biso   1.000  O
  O38      1.0000 0.32710  0.34290  0.02730  Biso   1.000  O
  C103     1.0000 0.50730  0.34210  0.02840  Biso   1.000  C
  O39      1.0000 0.95490  0.92030  0.95010  Biso   1.000  O
  C104     1.0000 0.02270  0.95120  0.90760  Biso   1.000  C
  O40      1.0000 0.57600  0.96250  0.94630  Biso   1.000  O
  C105     1.0000 0.65600  0.73850  0.82900  Biso   1.000  C
  H55      1.0000 0.70190  0.72300  0.87490  Biso   1.000  H
  N7       1.0000 0.59590  0.70850  0.76960  Biso   1.000  N
  C106     1.0000 0.53200  0.73180  0.70480  Biso   1.000  C
  H56      1.0000 0.49060  0.71210  0.66240  Biso   1.000  H
  O41      1.0000 0.69280  0.94860  0.55910  Biso   1.000  O
  C107     1.0000 0.60970  0.29210  0.02030  Biso   1.000  C
  Dy7      1.0000 0.31803  0.06997  0.56619  Biso   1.000  Dy
  Dy8      1.0000 0.23659  0.06825  0.95085  Biso   1.000  Dy
  O42      1.0000 0.43230  0.02400  0.87530  Biso   1.000  O
  O43      1.0000 0.29410  0.15630  0.98560  Biso   1.000  O
  O44      1.0000 0.18320  0.98240  0.58010  Biso   1.000  O
  O45      1.0000 0.15380  0.03910  0.66800  Biso   1.000  O
  O46      1.0000 0.54930  0.11590  0.95850  Biso   1.000  O
  C108     1.0000 0.57360  0.97650  0.74580  Biso   1.000  C
  H57      1.0000 0.56600  0.01170  0.74280  Biso   1.000  H
  C109     1.0000 0.05280  0.93290  0.82830  Biso   1.000  C
  C110     1.0000 0.60340  0.94910  0.68320  Biso   1.000  C
  C111     1.0000 0.55850  0.90030  0.81610  Biso   1.000  C
  H58      1.0000 0.54470  0.88420  0.86160  Biso   1.000  H
  C112     1.0000 0.50310  0.24850  0.00470  Biso   1.000  C
  H59      1.0000 0.36840  0.25010  0.99710  Biso   1.000  H
  C113     1.0000 0.47120  0.15580  0.98030  Biso   1.000  C
  C114     1.0000 0.14800  0.99220  0.64570  Biso   1.000  C
  C115     1.0000 0.52040  0.98230  0.88360  Biso   1.000  C
  C116     1.0000 0.04980  0.88100  0.81120  Biso   1.000  C
  H60      1.0000 0.03120  0.85740  0.84830  Biso   1.000  H
  C117     1.0000 0.08060  0.96740  0.77330  Biso   1.000  C
  H61      1.0000 0.08230  0.00180  0.78510  Biso   1.000  H
  C118     1.0000 0.58210  0.87080  0.75360  Biso   1.000  C
  C119     1.0000 0.55470  0.95270  0.81330  Biso   1.000  C
  C120     1.0000 0.59600  0.20170  0.00010  Biso   1.000  C
  C121     1.0000 0.10240  0.90050  0.68350  Biso   1.000  C
  H62      1.0000 0.11870  0.89010  0.63490  Biso   1.000  H
  C122     1.0000 0.10600  0.95290  0.70100  Biso   1.000  C
  C123     1.0000 0.60690  0.89570  0.68600  Biso   1.000  C
  H63      1.0000 0.62560  0.87700  0.64320  Biso   1.000  H
  C124     1.0000 0.65410  0.78990  0.82610  Biso   1.000  C
  H64      1.0000 0.69690  0.80880  0.86930  Biso   1.000  H
  C125     1.0000 0.62380  0.97420  0.60870  Biso   1.000  C
  C126     1.0000 0.07490  0.86450  0.73800  Biso   1.000  C
  C127     1.0000 0.58760  0.81440  0.75790  Biso   1.000  C
  C128     1.0000 0.52500  0.78440  0.69760  Biso   1.000  C
  H65      1.0000 0.47750  0.79900  0.65120  Biso   1.000  H
  C129     1.0000 0.81040  0.28880  0.03290  Biso   1.000  C
  H66      1.0000 0.88440  0.31790  0.04390  Biso   1.000  H
  C130     1.0000 0.06400  0.80960  0.71970  Biso   1.000  C
  C131     1.0000 0.79300  0.19850  0.01200  Biso   1.000  C
  H67      1.0000 0.85430  0.16740  0.00880  Biso   1.000  H
  C132     1.0000 0.98280  0.79120  0.64940  Biso   1.000  C
  H68      1.0000 0.93900  0.81350  0.61010  Biso   1.000  H
  C133     1.0000 0.90080  0.24220  0.02910  Biso   1.000  C
  H69      1.0000 0.03540  0.24020  0.03800  Biso   1.000  H
  C134     1.0000 0.12680  0.77290  0.77560  Biso   1.000  C
  H70      1.0000 0.18460  0.78260  0.82360  Biso   1.000  H
  N8       1.0000 0.01900  0.70440  0.69020  Biso   1.000  N
  C135     1.0000 0.10000  0.72150  0.75680  Biso   1.000  C
  H71      1.0000 0.14180  0.69770  0.79400  Biso   1.000  H
  C136     1.0000 0.96800  0.73860  0.63870  Biso   1.000  C
  H72      1.0000 0.91750  0.72710  0.59060  Biso   1.000  H
  O47      1.0000 0.57940  0.02050  0.60130  Biso   1.000  O
  O48      1.0000 0.06080  0.99680  0.92230  Biso   1.000  O
