data_image0
_cell_length_a       6.965
_cell_length_b       26.433
_cell_length_c       17.879
_cell_angle_alpha    90
_cell_angle_beta     97.9
_cell_angle_gamma    90

_symmetry_space_group_name_H-M    "P 1"
_symmetry_int_tables_number       1

loop_
  _symmetry_equiv_pos_as_xyz
  'x, y, z'

loop_
  _atom_site_label
  _atom_site_occupancy
  _atom_site_fract_x
  _atom_site_fract_y
  _atom_site_fract_z
  _atom_site_thermal_displace_type
  _atom_site_B_iso_or_equiv
  _atom_site_type_symbol
  O1       1.0000 0.57990  0.98011  0.10114  Biso   1.000  O
  Tb1      1.0000 0.68186  0.07002  0.93359  Biso   1.000  Tb
  Tb2      1.0000 0.23679  0.93173  0.45074  Biso   1.000  Tb
  O2       1.0000 0.81640  0.98167  0.91948  Biso   1.000  O
  O3       1.0000 0.70690  0.34360  0.01452  Biso   1.000  O
  O4       1.0000 0.69210  0.05160  0.05906  Biso   1.000  O
  C1       1.0000 0.60680  0.10432  0.18640  Biso   1.000  C
  H1       1.0000 0.62700  0.12310  0.14420  Biso   1.000  H
  C2       1.0000 0.94890  0.93236  0.67130  Biso   1.000  C
  C3       1.0000 0.89700  0.90067  0.81680  Biso   1.000  C
  H2       1.0000 0.87880  0.89020  0.86500  Biso   1.000  H
  C4       1.0000 0.51870  0.01812  0.38270  Biso   1.000  C
  C5       1.0000 0.57270  0.02311  0.24560  Biso   1.000  C
  H3       1.0000 0.56630  0.98800  0.24270  Biso   1.000  H
  O5       1.0000 0.39170  0.11827  0.95980  Biso   1.000  O
  C6       1.0000 0.58100  0.12921  0.25350  Biso   1.000  C
  O6       1.0000 0.84670  0.03839  0.83212  Biso   1.000  O
  O7       1.0000 0.45000  0.38381  0.04200  Biso   1.000  O
  C7       1.0000 0.60230  0.05142  0.18220  Biso   1.000  C
  C8       1.0000 0.89460  0.95229  0.79940  Biso   1.000  C
  C9       1.0000 0.85280  0.99258  0.85390  Biso   1.000  C
  O8       1.0000 0.04360  0.92006  0.54993  Biso   1.000  O
  C10      1.0000 0.91910  0.96755  0.72640  Biso   1.000  C
  H4       1.0000 0.91540  0.00180  0.71440  Biso   1.000  H
  C11      1.0000 0.48840  0.15826  0.97140  Biso   1.000  C
  O9       1.0000 0.43390  0.97607  0.37413  Biso   1.000  O
  O10      1.0000 0.93900  0.99638  0.57851  Biso   1.000  O
  C12      1.0000 0.49630  0.25140  0.99590  Biso   1.000  C
  H5       1.0000 0.63090  0.24950  0.00400  Biso   1.000  H
  C13      1.0000 0.92630  0.86474  0.76240  Biso   1.000  C
  C14      1.0000 0.01340  0.79090  0.85060  Biso   1.000  C
  H6       1.0000 0.05180  0.81310  0.89020  Biso   1.000  H
  C15      1.0000 0.18610  0.21111  0.96600  Biso   1.000  C
  H7       1.0000 0.11130  0.18220  0.95480  Biso   1.000  H
  C16      1.0000 0.97800  0.95110  0.59370  Biso   1.000  C
  O11      1.0000 0.57460  0.03769  0.44595  Biso   1.000  O
  C17      1.0000 0.38890  0.20746  0.97900  Biso   1.000  C
  C18      1.0000 0.09690  0.25805  0.96980  Biso   1.000  C
  H8       1.0000 0.96250  0.26040  0.96070  Biso   1.000  H
  C19      1.0000 0.93610  0.80966  0.77960  Biso   1.000  C
  N1       1.0000 0.59250  0.29116  0.26960  Biso   1.000  N
  C20      1.0000 0.65470  0.26176  0.32830  Biso   1.000  C
  H9       1.0000 0.70280  0.27730  0.37370  Biso   1.000  H
  C21      1.0000 0.52970  0.26800  0.20450  Biso   1.000  C
  H10      1.0000 0.48770  0.28780  0.16250  Biso   1.000  H
  C22      1.0000 0.62590  0.02607  0.10870  Biso   1.000  C
  C23      1.0000 0.52710  0.34467  0.02030  Biso   1.000  C
  C24      1.0000 0.40660  0.29812  0.00090  Biso   1.000  C
  C25      1.0000 0.95160  0.88133  0.68920  Biso   1.000  C
  H11      1.0000 0.97040  0.85760  0.65250  Biso   1.000  H
  C26      1.0000 0.65230  0.20955  0.32590  Biso   1.000  C
  H12      1.0000 0.69430  0.19090  0.36910  Biso   1.000  H
  C27      1.0000 0.58630  0.18503  0.25820  Biso   1.000  C
  C28      1.0000 0.52410  0.21573  0.19650  Biso   1.000  C
  H13      1.0000 0.47890  0.20130  0.15000  Biso   1.000  H
  C29      1.0000 0.55700  0.09970  0.31690  Biso   1.000  C
  H14      1.0000 0.54390  0.11570  0.36220  Biso   1.000  H
  C30      1.0000 0.87730  0.77290  0.72470  Biso   1.000  C
  H15      1.0000 0.82260  0.78270  0.67650  Biso   1.000  H
  N2       1.0000 0.97850  0.70442  0.80990  Biso   1.000  N
  C31      1.0000 0.03260  0.73920  0.86180  Biso   1.000  C
  H16      1.0000 0.08750  0.72810  0.90930  Biso   1.000  H
  C32      1.0000 0.90080  0.72160  0.74230  Biso   1.000  C
  H17      1.0000 0.85980  0.69810  0.70480  Biso   1.000  H
  C33      1.0000 0.55260  0.04786  0.31360  Biso   1.000  C
  C34      1.0000 0.20640  0.30139  0.98720  Biso   1.000  C
  H18      1.0000 0.14560  0.33250  0.98950  Biso   1.000  H
  O12      1.0000 0.67210  0.15759  0.97298  Biso   1.000  O
  O13      1.0000 0.42010  0.48011  0.39886  Biso   1.000  O
  Tb3      1.0000 0.31814  0.57002  0.56641  Biso   1.000  Tb
  Tb4      1.0000 0.76321  0.43173  0.04926  Biso   1.000  Tb
  O14      1.0000 0.18360  0.48167  0.58052  Biso   1.000  O
  O15      1.0000 0.29310  0.84360  0.48548  Biso   1.000  O
  O16      1.0000 0.30790  0.55160  0.44094  Biso   1.000  O
  C35      1.0000 0.39320  0.60432  0.31360  Biso   1.000  C
  H19      1.0000 0.37300  0.62310  0.35580  Biso   1.000  H
  C36      1.0000 0.05110  0.43236  0.82870  Biso   1.000  C
  C37      1.0000 0.10300  0.40067  0.68320  Biso   1.000  C
  H20      1.0000 0.12120  0.39020  0.63500  Biso   1.000  H
  C38      1.0000 0.48130  0.51812  0.11730  Biso   1.000  C
  C39      1.0000 0.42730  0.52311  0.25440  Biso   1.000  C
  H21      1.0000 0.43370  0.48800  0.25730  Biso   1.000  H
  O17      1.0000 0.60830  0.61827  0.54020  Biso   1.000  O
  C40      1.0000 0.41900  0.62921  0.24650  Biso   1.000  C
  O18      1.0000 0.15330  0.53839  0.66788  Biso   1.000  O
  O19      1.0000 0.55000  0.88381  0.45800  Biso   1.000  O
  C41      1.0000 0.39770  0.55142  0.31780  Biso   1.000  C
  C42      1.0000 0.10540  0.45229  0.70060  Biso   1.000  C
  C43      1.0000 0.14720  0.49258  0.64610  Biso   1.000  C
  O20      1.0000 0.95640  0.42006  0.95007  Biso   1.000  O
  C44      1.0000 0.08090  0.46755  0.77360  Biso   1.000  C
  H22      1.0000 0.08460  0.50180  0.78560  Biso   1.000  H
  C45      1.0000 0.51160  0.65826  0.52860  Biso   1.000  C
  O21      1.0000 0.56610  0.47607  0.12587  Biso   1.000  O
  O22      1.0000 0.06100  0.49638  0.92149  Biso   1.000  O
  C46      1.0000 0.50370  0.75140  0.50410  Biso   1.000  C
  H23      1.0000 0.36910  0.74950  0.49600  Biso   1.000  H
  C47      1.0000 0.07370  0.36474  0.73760  Biso   1.000  C
  C48      1.0000 0.98660  0.29090  0.64940  Biso   1.000  C
  H24      1.0000 0.94820  0.31310  0.60980  Biso   1.000  H
  C49      1.0000 0.81390  0.71111  0.53400  Biso   1.000  C
  H25      1.0000 0.88870  0.68220  0.54520  Biso   1.000  H
  C50      1.0000 0.02200  0.45110  0.90630  Biso   1.000  C
  O23      1.0000 0.42540  0.53769  0.05405  Biso   1.000  O
  C51      1.0000 0.61110  0.70746  0.52100  Biso   1.000  C
  C52      1.0000 0.90310  0.75805  0.53020  Biso   1.000  C
  H26      1.0000 0.03750  0.76040  0.53930  Biso   1.000  H
  C53      1.0000 0.06390  0.30966  0.72040  Biso   1.000  C
  N3       1.0000 0.40750  0.79116  0.23040  Biso   1.000  N
  C54      1.0000 0.34530  0.76176  0.17170  Biso   1.000  C
  H27      1.0000 0.29720  0.77730  0.12630  Biso   1.000  H
  C55      1.0000 0.47030  0.76800  0.29550  Biso   1.000  C
  H28      1.0000 0.51230  0.78780  0.33750  Biso   1.000  H
  C56      1.0000 0.37410  0.52607  0.39130  Biso   1.000  C
  C57      1.0000 0.47290  0.84467  0.47970  Biso   1.000  C
  C58      1.0000 0.59340  0.79812  0.49910  Biso   1.000  C
  C59      1.0000 0.04840  0.38133  0.81080  Biso   1.000  C
  H29      1.0000 0.02960  0.35760  0.84750  Biso   1.000  H
  C60      1.0000 0.34770  0.70955  0.17410  Biso   1.000  C
  H30      1.0000 0.30570  0.69090  0.13090  Biso   1.000  H
  C61      1.0000 0.41370  0.68503  0.24180  Biso   1.000  C
  C62      1.0000 0.47590  0.71573  0.30350  Biso   1.000  C
  H31      1.0000 0.52110  0.70130  0.35000  Biso   1.000  H
  C63      1.0000 0.44300  0.59970  0.18310  Biso   1.000  C
  H32      1.0000 0.45610  0.61570  0.13780  Biso   1.000  H
  C64      1.0000 0.12270  0.27290  0.77530  Biso   1.000  C
  H33      1.0000 0.17740  0.28270  0.82350  Biso   1.000  H
  N4       1.0000 0.02150  0.20442  0.69010  Biso   1.000  N
  C65      1.0000 0.96740  0.23920  0.63820  Biso   1.000  C
  H34      1.0000 0.91250  0.22810  0.59070  Biso   1.000  H
  C66      1.0000 0.09920  0.22160  0.75770  Biso   1.000  C
  H35      1.0000 0.14020  0.19810  0.79520  Biso   1.000  H
  C67      1.0000 0.44740  0.54786  0.18640  Biso   1.000  C
  C68      1.0000 0.79360  0.80139  0.51280  Biso   1.000  C
  H36      1.0000 0.85440  0.83250  0.51050  Biso   1.000  H
  O24      1.0000 0.32790  0.65759  0.52702  Biso   1.000  O
  O25      1.0000 0.42010  0.01989  0.89886  Biso   1.000  O
  Tb5      1.0000 0.31814  0.92998  0.06641  Biso   1.000  Tb
  Tb6      1.0000 0.76321  0.06827  0.54926  Biso   1.000  Tb
  O26      1.0000 0.18360  0.01833  0.08052  Biso   1.000  O
  O27      1.0000 0.29310  0.65640  0.98548  Biso   1.000  O
  O28      1.0000 0.30790  0.94840  0.94094  Biso   1.000  O
  C69      1.0000 0.39320  0.89568  0.81360  Biso   1.000  C
  H37      1.0000 0.37300  0.87690  0.85580  Biso   1.000  H
  C70      1.0000 0.05110  0.06764  0.32870  Biso   1.000  C
  C71      1.0000 0.10300  0.09933  0.18320  Biso   1.000  C
  H38      1.0000 0.12120  0.10980  0.13500  Biso   1.000  H
  C72      1.0000 0.48130  0.98188  0.61730  Biso   1.000  C
  C73      1.0000 0.42730  0.97689  0.75440  Biso   1.000  C
  H39      1.0000 0.43370  0.01200  0.75730  Biso   1.000  H
  O29      1.0000 0.60830  0.88173  0.04020  Biso   1.000  O
  C74      1.0000 0.41900  0.87079  0.74650  Biso   1.000  C
  O30      1.0000 0.15330  0.96161  0.16788  Biso   1.000  O
  O31      1.0000 0.55000  0.61619  0.95800  Biso   1.000  O
  C75      1.0000 0.39770  0.94858  0.81780  Biso   1.000  C
  C76      1.0000 0.10540  0.04771  0.20060  Biso   1.000  C
  C77      1.0000 0.14720  0.00742  0.14610  Biso   1.000  C
  O32      1.0000 0.95640  0.07994  0.45007  Biso   1.000  O
  C78      1.0000 0.08090  0.03245  0.27360  Biso   1.000  C
  H40      1.0000 0.08460  0.99820  0.28560  Biso   1.000  H
  C79      1.0000 0.51160  0.84174  0.02860  Biso   1.000  C
  O33      1.0000 0.56610  0.02393  0.62587  Biso   1.000  O
  O34      1.0000 0.06100  0.00362  0.42149  Biso   1.000  O
  C80      1.0000 0.50370  0.74860  0.00410  Biso   1.000  C
  H41      1.0000 0.36910  0.75050  0.99600  Biso   1.000  H
  C81      1.0000 0.07370  0.13526  0.23760  Biso   1.000  C
  C82      1.0000 0.98660  0.20910  0.14940  Biso   1.000  C
  H42      1.0000 0.94820  0.18690  0.10980  Biso   1.000  H
  C83      1.0000 0.81390  0.78889  0.03400  Biso   1.000  C
  H43      1.0000 0.88870  0.81780  0.04520  Biso   1.000  H
  C84      1.0000 0.02200  0.04890  0.40630  Biso   1.000  C
  O35      1.0000 0.42540  0.96231  0.55405  Biso   1.000  O
  C85      1.0000 0.61110  0.79254  0.02100  Biso   1.000  C
  C86      1.0000 0.90310  0.74195  0.03020  Biso   1.000  C
  H44      1.0000 0.03750  0.73960  0.03930  Biso   1.000  H
  C87      1.0000 0.06390  0.19034  0.22040  Biso   1.000  C
  N5       1.0000 0.40750  0.70884  0.73040  Biso   1.000  N
  C88      1.0000 0.34530  0.73824  0.67170  Biso   1.000  C
  H45      1.0000 0.29720  0.72270  0.62630  Biso   1.000  H
  C89      1.0000 0.47030  0.73200  0.79550  Biso   1.000  C
  H46      1.0000 0.51230  0.71220  0.83750  Biso   1.000  H
  C90      1.0000 0.37410  0.97393  0.89130  Biso   1.000  C
  C91      1.0000 0.47290  0.65533  0.97970  Biso   1.000  C
  C92      1.0000 0.59340  0.70188  0.99910  Biso   1.000  C
  C93      1.0000 0.04840  0.11867  0.31080  Biso   1.000  C
  H47      1.0000 0.02960  0.14240  0.34750  Biso   1.000  H
  C94      1.0000 0.34770  0.79045  0.67410  Biso   1.000  C
  H48      1.0000 0.30570  0.80910  0.63090  Biso   1.000  H
  C95      1.0000 0.41370  0.81497  0.74180  Biso   1.000  C
  C96      1.0000 0.47590  0.78427  0.80350  Biso   1.000  C
  H49      1.0000 0.52110  0.79870  0.85000  Biso   1.000  H
  C97      1.0000 0.44300  0.90030  0.68310  Biso   1.000  C
  H50      1.0000 0.45610  0.88430  0.63780  Biso   1.000  H
  C98      1.0000 0.12270  0.22710  0.27530  Biso   1.000  C
  H51      1.0000 0.17740  0.21730  0.32350  Biso   1.000  H
  N6       1.0000 0.02150  0.29558  0.19010  Biso   1.000  N
  C99      1.0000 0.96740  0.26080  0.13820  Biso   1.000  C
  H52      1.0000 0.91250  0.27190  0.09070  Biso   1.000  H
  C100     1.0000 0.09920  0.27840  0.25770  Biso   1.000  C
  H53      1.0000 0.14020  0.30190  0.29520  Biso   1.000  H
  C101     1.0000 0.44740  0.95214  0.68640  Biso   1.000  C
  C102     1.0000 0.79360  0.69861  0.01280  Biso   1.000  C
  H54      1.0000 0.85440  0.66750  0.01050  Biso   1.000  H
  O36      1.0000 0.32790  0.84241  0.02702  Biso   1.000  O
  O37      1.0000 0.57990  0.51989  0.60114  Biso   1.000  O
  Tb7      1.0000 0.68186  0.42998  0.43359  Biso   1.000  Tb
  Tb8      1.0000 0.23679  0.56827  0.95074  Biso   1.000  Tb
  O38      1.0000 0.81640  0.51833  0.41948  Biso   1.000  O
  O39      1.0000 0.70690  0.15640  0.51452  Biso   1.000  O
  O40      1.0000 0.69210  0.44840  0.55906  Biso   1.000  O
  C103     1.0000 0.60680  0.39568  0.68640  Biso   1.000  C
  H55      1.0000 0.62700  0.37690  0.64420  Biso   1.000  H
  C104     1.0000 0.94890  0.56764  0.17130  Biso   1.000  C
  C105     1.0000 0.89700  0.59933  0.31680  Biso   1.000  C
  H56      1.0000 0.87880  0.60980  0.36500  Biso   1.000  H
  C106     1.0000 0.51870  0.48188  0.88270  Biso   1.000  C
  C107     1.0000 0.57270  0.47689  0.74560  Biso   1.000  C
  H57      1.0000 0.56630  0.51200  0.74270  Biso   1.000  H
  O41      1.0000 0.39170  0.38173  0.45980  Biso   1.000  O
  C108     1.0000 0.58100  0.37079  0.75350  Biso   1.000  C
  O42      1.0000 0.84670  0.46161  0.33212  Biso   1.000  O
  O43      1.0000 0.45000  0.11619  0.54200  Biso   1.000  O
  C109     1.0000 0.60230  0.44858  0.68220  Biso   1.000  C
  C110     1.0000 0.89460  0.54771  0.29940  Biso   1.000  C
  C111     1.0000 0.85280  0.50742  0.35390  Biso   1.000  C
  O44      1.0000 0.04360  0.57994  0.04993  Biso   1.000  O
  C112     1.0000 0.91910  0.53245  0.22640  Biso   1.000  C
  H58      1.0000 0.91540  0.49820  0.21440  Biso   1.000  H
  C113     1.0000 0.48840  0.34174  0.47140  Biso   1.000  C
  O45      1.0000 0.43390  0.52393  0.87413  Biso   1.000  O
  O46      1.0000 0.93900  0.50362  0.07851  Biso   1.000  O
  C114     1.0000 0.49630  0.24860  0.49590  Biso   1.000  C
  H59      1.0000 0.63090  0.25050  0.50400  Biso   1.000  H
  C115     1.0000 0.92630  0.63526  0.26240  Biso   1.000  C
  C116     1.0000 0.01340  0.70910  0.35060  Biso   1.000  C
  H60      1.0000 0.05180  0.68690  0.39020  Biso   1.000  H
  C117     1.0000 0.18610  0.28889  0.46600  Biso   1.000  C
  H61      1.0000 0.11130  0.31780  0.45480  Biso   1.000  H
  C118     1.0000 0.97800  0.54890  0.09370  Biso   1.000  C
  O47      1.0000 0.57460  0.46231  0.94595  Biso   1.000  O
  C119     1.0000 0.38890  0.29254  0.47900  Biso   1.000  C
  C120     1.0000 0.09690  0.24195  0.46980  Biso   1.000  C
  H62      1.0000 0.96250  0.23960  0.46070  Biso   1.000  H
  C121     1.0000 0.93610  0.69034  0.27960  Biso   1.000  C
  N7       1.0000 0.59250  0.20884  0.76960  Biso   1.000  N
  C122     1.0000 0.65470  0.23824  0.82830  Biso   1.000  C
  H63      1.0000 0.70280  0.22270  0.87370  Biso   1.000  H
  C123     1.0000 0.52970  0.23200  0.70450  Biso   1.000  C
  H64      1.0000 0.48770  0.21220  0.66250  Biso   1.000  H
  C124     1.0000 0.62590  0.47393  0.60870  Biso   1.000  C
  C125     1.0000 0.52710  0.15533  0.52030  Biso   1.000  C
  C126     1.0000 0.40660  0.20188  0.50090  Biso   1.000  C
  C127     1.0000 0.95160  0.61867  0.18920  Biso   1.000  C
  H65      1.0000 0.97040  0.64240  0.15250  Biso   1.000  H
  C128     1.0000 0.65230  0.29045  0.82590  Biso   1.000  C
  H66      1.0000 0.69430  0.30910  0.86910  Biso   1.000  H
  C129     1.0000 0.58630  0.31497  0.75820  Biso   1.000  C
  C130     1.0000 0.52410  0.28427  0.69650  Biso   1.000  C
  H67      1.0000 0.47890  0.29870  0.65000  Biso   1.000  H
  C131     1.0000 0.55700  0.40030  0.81690  Biso   1.000  C
  H68      1.0000 0.54390  0.38430  0.86220  Biso   1.000  H
  C132     1.0000 0.87730  0.72710  0.22470  Biso   1.000  C
  H69      1.0000 0.82260  0.71730  0.17650  Biso   1.000  H
  N8       1.0000 0.97850  0.79558  0.30990  Biso   1.000  N
  C133     1.0000 0.03260  0.76080  0.36180  Biso   1.000  C
  H70      1.0000 0.08750  0.77190  0.40930  Biso   1.000  H
  C134     1.0000 0.90080  0.77840  0.24230  Biso   1.000  C
  H71      1.0000 0.85980  0.80190  0.20480  Biso   1.000  H
  C135     1.0000 0.55260  0.45214  0.81360  Biso   1.000  C
  C136     1.0000 0.20640  0.19861  0.48720  Biso   1.000  C
  H72      1.0000 0.14560  0.16750  0.48950  Biso   1.000  H
  O48      1.0000 0.67210  0.34241  0.47298  Biso   1.000  O
