data_VUQKUO_clean
_audit_creation_date              2014-07-02
_audit_creation_method            'Materials Studio'
_symmetry_space_group_name_H-M    'P1'
_symmetry_Int_Tables_number       1
_symmetry_cell_setting            triclinic
loop_
_symmetry_equiv_pos_as_xyz
  x,y,z
_cell_length_a                    13.9570
_cell_length_b                    15.8270
_cell_length_c                    25.7040
_cell_angle_alpha                 90.0000
_cell_angle_beta                  90.0000
_cell_angle_gamma                 93.3620
loop_
_atom_site_label
_atom_site_type_symbol
_atom_site_fract_x
_atom_site_fract_y
_atom_site_fract_z
_atom_site_U_iso_or_equiv
_atom_site_adp_type
_atom_site_occupancy
Cd1    Cd    0.87279   0.99578   0.03460   0.01267  Uiso   1.00
Cd2    Cd    0.62466   0.99405   0.96860   0.01267  Uiso   1.00
Cd3    Cd    0.12721   0.50422   0.53460   0.01267  Uiso   1.00
Cd4    Cd    0.37534   0.50595   0.46860   0.01267  Uiso   1.00
Cd5    Cd    0.12721   0.00422   0.96540   0.01267  Uiso   1.00
Cd6    Cd    0.37534   0.00595   0.03140   0.01267  Uiso   1.00
Cd7    Cd    0.87279   0.49578   0.46540   0.01267  Uiso   1.00
Cd8    Cd    0.62466   0.49405   0.53140   0.01267  Uiso   1.00
P1     P     0.09078   0.30356   0.24069   0.01267  Uiso   1.00
P2     P     0.66513   0.75460   0.26432   0.01267  Uiso   1.00
P3     P     0.90922   0.19644   0.74069   0.01267  Uiso   1.00
P4     P     0.33487   0.74540   0.76432   0.01267  Uiso   1.00
P5     P     0.90922   0.69644   0.75931   0.01267  Uiso   1.00
P6     P     0.33487   0.24540   0.73568   0.01267  Uiso   1.00
P7     P     0.09078   0.80356   0.25931   0.01267  Uiso   1.00
P8     P     0.66513   0.25460   0.23568   0.01267  Uiso   1.00
H1     H     0.36470   0.90240   0.21870   0.01267  Uiso   1.00
H2     H     0.39300   0.81470   0.24020   0.01267  Uiso   1.00
H3     H     0.45250   0.85850   0.19500   0.01267  Uiso   1.00
H4     H     0.40800   0.01010   0.26870   0.01267  Uiso   1.00
H5     H     0.51810   0.02350   0.28030   0.01267  Uiso   1.00
H6     H     0.44970   0.97840   0.32140   0.01267  Uiso   1.00
H7     H     0.68790   0.89510   0.08010   0.01267  Uiso   1.00
H8     H     0.60340   0.50810   0.30780   0.01267  Uiso   1.00
H9     H     0.26060   0.52070   0.36000   0.01267  Uiso   1.00
H10    H     0.28660   0.31790   0.43840   0.01267  Uiso   1.00
H11    H     0.86980   0.21130   0.19380   0.01267  Uiso   1.00
H12    H     0.54680   0.74370   0.35260   0.01267  Uiso   1.00
H13    H     0.19630   0.24180   0.38090   0.01267  Uiso   1.00
H14    H     0.89190   0.80440   0.20330   0.01267  Uiso   1.00
H15    H     0.50400   0.45680   0.37090   0.01267  Uiso   1.00
H16    H     0.13140   0.13460   0.16720   0.01267  Uiso   1.00
H17    H     0.06980   0.05990   0.09540   0.01267  Uiso   1.00
H18    H     0.81440   0.13640   0.12320   0.01267  Uiso   1.00
H19    H     0.16590   0.44930   0.29870   0.01267  Uiso   1.00
H20    H     0.63370   0.78990   0.13980   0.01267  Uiso   1.00
H21    H     0.93970   0.89740   0.13770   0.01267  Uiso   1.00
H22    H     0.44940   0.68190   0.41480   0.01267  Uiso   1.00
H23    H     0.36590   0.33120   0.10510   0.01267  Uiso   1.00
H24    H     0.28170   0.26710   0.12200   0.01267  Uiso   1.00
H25    H     0.35120   0.30840   0.16400   0.01267  Uiso   1.00
H26    H     0.32150   0.44750   0.07870   0.01267  Uiso   1.00
H27    H     0.27530   0.50820   0.11850   0.01267  Uiso   1.00
H28    H     0.21010   0.45560   0.07910   0.01267  Uiso   1.00
H29    H     0.87220   0.55670   0.22260   0.01267  Uiso   1.00
H30    H     0.92050   0.50660   0.26710   0.01267  Uiso   1.00
H31    H     0.86170   0.45750   0.22350   0.01267  Uiso   1.00
H32    H     0.95140   0.60920   0.16590   0.01267  Uiso   1.00
H33    H     0.99740   0.54640   0.12730   0.01267  Uiso   1.00
H34    H     0.06260   0.59990   0.16630   0.01267  Uiso   1.00
H35    H     0.75850   0.01780   0.41220   0.01267  Uiso   1.00
H36    H     0.65180   0.98600   0.40160   0.01267  Uiso   1.00
H37    H     0.71010   0.03750   0.35880   0.01267  Uiso   1.00
H38    H     0.86170   0.92140   0.40980   0.01267  Uiso   1.00
H39    H     0.87780   0.87830   0.35580   0.01267  Uiso   1.00
H40    H     0.81860   0.82930   0.39930   0.01267  Uiso   1.00
H41    H     0.63530   0.59760   0.71870   0.01267  Uiso   1.00
H42    H     0.60700   0.68530   0.74020   0.01267  Uiso   1.00
H43    H     0.54750   0.64150   0.69500   0.01267  Uiso   1.00
H44    H     0.59200   0.48990   0.76870   0.01267  Uiso   1.00
H45    H     0.48190   0.47650   0.78030   0.01267  Uiso   1.00
H46    H     0.55030   0.52160   0.82140   0.01267  Uiso   1.00
H47    H     0.31210   0.60490   0.58010   0.01267  Uiso   1.00
H48    H     0.39660   0.99190   0.80780   0.01267  Uiso   1.00
H49    H     0.73940   0.97930   0.86000   0.01267  Uiso   1.00
H50    H     0.71340   0.18210   0.93840   0.01267  Uiso   1.00
H51    H     0.13020   0.28870   0.69380   0.01267  Uiso   1.00
H52    H     0.45320   0.75630   0.85260   0.01267  Uiso   1.00
H53    H     0.80370   0.25820   0.88090   0.01267  Uiso   1.00
H54    H     0.10810   0.69560   0.70330   0.01267  Uiso   1.00
H55    H     0.49600   0.04320   0.87090   0.01267  Uiso   1.00
H56    H     0.86860   0.36540   0.66720   0.01267  Uiso   1.00
H57    H     0.93020   0.44010   0.59540   0.01267  Uiso   1.00
H58    H     0.18560   0.36360   0.62320   0.01267  Uiso   1.00
H59    H     0.83410   0.05070   0.79870   0.01267  Uiso   1.00
H60    H     0.36630   0.71010   0.63980   0.01267  Uiso   1.00
H61    H     0.06030   0.60260   0.63770   0.01267  Uiso   1.00
H62    H     0.55060   0.81810   0.91480   0.01267  Uiso   1.00
H63    H     0.63410   0.16880   0.60510   0.01267  Uiso   1.00
H64    H     0.71830   0.23290   0.62200   0.01267  Uiso   1.00
H65    H     0.64880   0.19160   0.66400   0.01267  Uiso   1.00
H66    H     0.67850   0.05250   0.57870   0.01267  Uiso   1.00
H67    H     0.72470   0.99180   0.61850   0.01267  Uiso   1.00
H68    H     0.78990   0.04440   0.57910   0.01267  Uiso   1.00
H69    H     0.12780   0.94330   0.72260   0.01267  Uiso   1.00
H70    H     0.07950   0.99340   0.76710   0.01267  Uiso   1.00
H71    H     0.13830   0.04250   0.72350   0.01267  Uiso   1.00
H72    H     0.04860   0.89080   0.66590   0.01267  Uiso   1.00
H73    H     0.00260   0.95360   0.62730   0.01267  Uiso   1.00
H74    H     0.93740   0.90010   0.66630   0.01267  Uiso   1.00
H75    H     0.24150   0.48220   0.91220   0.01267  Uiso   1.00
H76    H     0.34820   0.51400   0.90160   0.01267  Uiso   1.00
H77    H     0.28990   0.46250   0.85880   0.01267  Uiso   1.00
H78    H     0.13830   0.57860   0.90980   0.01267  Uiso   1.00
H79    H     0.12220   0.62170   0.85580   0.01267  Uiso   1.00
H80    H     0.18140   0.67070   0.89930   0.01267  Uiso   1.00
H81    H     0.63530   0.09760   0.78130   0.01267  Uiso   1.00
H82    H     0.60700   0.18530   0.75980   0.01267  Uiso   1.00
H83    H     0.54750   0.14150   0.80500   0.01267  Uiso   1.00
H84    H     0.59200   0.98990   0.73130   0.01267  Uiso   1.00
H85    H     0.48190   0.97650   0.71970   0.01267  Uiso   1.00
H86    H     0.55030   0.02160   0.67860   0.01267  Uiso   1.00
H87    H     0.31210   0.10490   0.91990   0.01267  Uiso   1.00
H88    H     0.39660   0.49190   0.69220   0.01267  Uiso   1.00
H89    H     0.73940   0.47930   0.64000   0.01267  Uiso   1.00
H90    H     0.71340   0.68210   0.56160   0.01267  Uiso   1.00
H91    H     0.13020   0.78870   0.80620   0.01267  Uiso   1.00
H92    H     0.45320   0.25630   0.64740   0.01267  Uiso   1.00
H93    H     0.80370   0.75820   0.61910   0.01267  Uiso   1.00
H94    H     0.10810   0.19560   0.79670   0.01267  Uiso   1.00
H95    H     0.49600   0.54320   0.62910   0.01267  Uiso   1.00
H96    H     0.86860   0.86540   0.83280   0.01267  Uiso   1.00
H97    H     0.93020   0.94010   0.90460   0.01267  Uiso   1.00
H98    H     0.18560   0.86360   0.87680   0.01267  Uiso   1.00
H99    H     0.83410   0.55070   0.70130   0.01267  Uiso   1.00
H100   H     0.36630   0.21010   0.86020   0.01267  Uiso   1.00
H101   H     0.06030   0.10260   0.86230   0.01267  Uiso   1.00
H102   H     0.55060   0.31810   0.58520   0.01267  Uiso   1.00
H103   H     0.63410   0.66880   0.89490   0.01267  Uiso   1.00
H104   H     0.71830   0.73290   0.87800   0.01267  Uiso   1.00
H105   H     0.64880   0.69160   0.83600   0.01267  Uiso   1.00
H106   H     0.67850   0.55250   0.92130   0.01267  Uiso   1.00
H107   H     0.72470   0.49180   0.88150   0.01267  Uiso   1.00
H108   H     0.78990   0.54440   0.92090   0.01267  Uiso   1.00
H109   H     0.12780   0.44330   0.77740   0.01267  Uiso   1.00
H110   H     0.07950   0.49340   0.73290   0.01267  Uiso   1.00
H111   H     0.13830   0.54250   0.77650   0.01267  Uiso   1.00
H112   H     0.04860   0.39080   0.83410   0.01267  Uiso   1.00
H113   H     0.00260   0.45360   0.87270   0.01267  Uiso   1.00
H114   H     0.93740   0.40010   0.83370   0.01267  Uiso   1.00
H115   H     0.24150   0.98220   0.58780   0.01267  Uiso   1.00
H116   H     0.34820   0.01400   0.59840   0.01267  Uiso   1.00
H117   H     0.28990   0.96250   0.64120   0.01267  Uiso   1.00
H118   H     0.13830   0.07860   0.59020   0.01267  Uiso   1.00
H119   H     0.12220   0.12170   0.64420   0.01267  Uiso   1.00
H120   H     0.18140   0.17070   0.60070   0.01267  Uiso   1.00
H121   H     0.36470   0.40240   0.28130   0.01267  Uiso   1.00
H122   H     0.39300   0.31470   0.25980   0.01267  Uiso   1.00
H123   H     0.45250   0.35850   0.30500   0.01267  Uiso   1.00
H124   H     0.40800   0.51010   0.23130   0.01267  Uiso   1.00
H125   H     0.51810   0.52350   0.21970   0.01267  Uiso   1.00
H126   H     0.44970   0.47840   0.17860   0.01267  Uiso   1.00
H127   H     0.68790   0.39510   0.41990   0.01267  Uiso   1.00
H128   H     0.60340   0.00810   0.19220   0.01267  Uiso   1.00
H129   H     0.26060   0.02070   0.14000   0.01267  Uiso   1.00
H130   H     0.28660   0.81790   0.06160   0.01267  Uiso   1.00
H131   H     0.86980   0.71130   0.30620   0.01267  Uiso   1.00
H132   H     0.54680   0.24370   0.14740   0.01267  Uiso   1.00
H133   H     0.19630   0.74180   0.11910   0.01267  Uiso   1.00
H134   H     0.89190   0.30440   0.29670   0.01267  Uiso   1.00
H135   H     0.50400   0.95680   0.12910   0.01267  Uiso   1.00
H136   H     0.13140   0.63460   0.33280   0.01267  Uiso   1.00
H137   H     0.06980   0.55990   0.40460   0.01267  Uiso   1.00
H138   H     0.81440   0.63640   0.37680   0.01267  Uiso   1.00
H139   H     0.16590   0.94930   0.20130   0.01267  Uiso   1.00
H140   H     0.63370   0.28990   0.36020   0.01267  Uiso   1.00
H141   H     0.93970   0.39740   0.36230   0.01267  Uiso   1.00
H142   H     0.44940   0.18190   0.08520   0.01267  Uiso   1.00
H143   H     0.36590   0.83120   0.39490   0.01267  Uiso   1.00
H144   H     0.28170   0.76710   0.37800   0.01267  Uiso   1.00
H145   H     0.35120   0.80840   0.33600   0.01267  Uiso   1.00
H146   H     0.32150   0.94750   0.42130   0.01267  Uiso   1.00
H147   H     0.27530   0.00820   0.38150   0.01267  Uiso   1.00
H148   H     0.21010   0.95560   0.42090   0.01267  Uiso   1.00
H149   H     0.87220   0.05670   0.27740   0.01267  Uiso   1.00
H150   H     0.92050   0.00660   0.23290   0.01267  Uiso   1.00
H151   H     0.86170   0.95750   0.27650   0.01267  Uiso   1.00
H152   H     0.95140   0.10920   0.33410   0.01267  Uiso   1.00
H153   H     0.99740   0.04640   0.37270   0.01267  Uiso   1.00
H154   H     0.06260   0.09990   0.33370   0.01267  Uiso   1.00
H155   H     0.75850   0.51780   0.08780   0.01267  Uiso   1.00
H156   H     0.65180   0.48600   0.09840   0.01267  Uiso   1.00
H157   H     0.71010   0.53750   0.14120   0.01267  Uiso   1.00
H158   H     0.86170   0.42140   0.09020   0.01267  Uiso   1.00
H159   H     0.87780   0.37830   0.14420   0.01267  Uiso   1.00
H160   H     0.81860   0.32930   0.10070   0.01267  Uiso   1.00
C1     C     0.41730   0.86800   0.22630   0.01267  Uiso   1.00
C2     C     0.46210   0.98610   0.28490   0.01267  Uiso   1.00
C3     C     0.73100   0.87420   0.10380   0.01267  Uiso   1.00
C4     C     0.17380   0.33590   0.33300   0.01267  Uiso   1.00
C5     C     0.57170   0.54490   0.32910   0.01267  Uiso   1.00
C6     C     0.00380   0.17790   0.18780   0.01267  Uiso   1.00
C7     C     0.24800   0.46270   0.36400   0.01267  Uiso   1.00
C8     C     0.26320   0.34510   0.40940   0.01267  Uiso   1.00
C9     C     0.91130   0.17970   0.17450   0.01267  Uiso   1.00
C10    C     0.75550   0.78910   0.17750   0.01267  Uiso   1.00
C11    C     0.53910   0.68510   0.35520   0.01267  Uiso   1.00
C12    C     0.20920   0.29930   0.37520   0.01267  Uiso   1.00
C13    C     0.84890   0.82010   0.17790   0.01267  Uiso   1.00
C14    C     0.51230   0.51510   0.36650   0.01267  Uiso   1.00
C15    C     0.06660   0.13440   0.15880   0.01267  Uiso   1.00
C16    C     0.02850   0.08960   0.11590   0.01267  Uiso   1.00
C17    C     0.18510   0.37960   0.17200   0.01267  Uiso   1.00
C18    C     0.04820   0.44040   0.20200   0.01267  Uiso   1.00
C19    C     0.58560   0.63390   0.32240   0.01267  Uiso   1.00
C20    C     0.87870   0.13460   0.13230   0.01267  Uiso   1.00
C21    C     0.19110   0.42080   0.32670   0.01267  Uiso   1.00
C22    C     0.69660   0.81270   0.14120   0.01267  Uiso   1.00
C23    C     0.87620   0.87610   0.13830   0.01267  Uiso   1.00
C24    C     0.48040   0.64700   0.39200   0.01267  Uiso   1.00
C25    C     0.31910   0.31760   0.13170   0.01267  Uiso   1.00
C26    C     0.26670   0.45530   0.10040   0.01267  Uiso   1.00
C27    C     0.90380   0.50620   0.23090   0.01267  Uiso   1.00
C28    C     0.00110   0.57040   0.16160   0.01267  Uiso   1.00
C29    C     0.69040   0.88110   0.32510   0.01267  Uiso   1.00
C30    C     0.56120   0.87000   0.27570   0.01267  Uiso   1.00
C31    C     0.71400   0.99650   0.38620   0.01267  Uiso   1.00
C32    C     0.83340   0.88380   0.38400   0.01267  Uiso   1.00
C33    C     0.58270   0.63200   0.72630   0.01267  Uiso   1.00
C34    C     0.53790   0.51390   0.78490   0.01267  Uiso   1.00
C35    C     0.26900   0.62580   0.60380   0.01267  Uiso   1.00
C36    C     0.82620   0.16410   0.83300   0.01267  Uiso   1.00
C37    C     0.42830   0.95510   0.82910   0.01267  Uiso   1.00
C38    C     0.99620   0.32210   0.68780   0.01267  Uiso   1.00
C39    C     0.75200   0.03730   0.86400   0.01267  Uiso   1.00
C40    C     0.73680   0.15490   0.90940   0.01267  Uiso   1.00
C41    C     0.08870   0.32030   0.67450   0.01267  Uiso   1.00
C42    C     0.24450   0.71090   0.67750   0.01267  Uiso   1.00
C43    C     0.46090   0.81490   0.85520   0.01267  Uiso   1.00
C44    C     0.79080   0.20070   0.87520   0.01267  Uiso   1.00
C45    C     0.15110   0.67990   0.67790   0.01267  Uiso   1.00
C46    C     0.48770   0.98490   0.86650   0.01267  Uiso   1.00
C47    C     0.93340   0.36560   0.65880   0.01267  Uiso   1.00
C48    C     0.97150   0.41040   0.61590   0.01267  Uiso   1.00
C49    C     0.81490   0.12040   0.67200   0.01267  Uiso   1.00
C50    C     0.95180   0.05960   0.70200   0.01267  Uiso   1.00
C51    C     0.41440   0.86610   0.82240   0.01267  Uiso   1.00
C52    C     0.12130   0.36540   0.63230   0.01267  Uiso   1.00
C53    C     0.80890   0.07920   0.82670   0.01267  Uiso   1.00
C54    C     0.30340   0.68730   0.64120   0.01267  Uiso   1.00
C55    C     0.12380   0.62390   0.63830   0.01267  Uiso   1.00
C56    C     0.51960   0.85300   0.89200   0.01267  Uiso   1.00
C57    C     0.68090   0.18240   0.63170   0.01267  Uiso   1.00
C58    C     0.73330   0.04470   0.60040   0.01267  Uiso   1.00
C59    C     0.09620   0.99380   0.73090   0.01267  Uiso   1.00
C60    C     0.99890   0.92960   0.66160   0.01267  Uiso   1.00
C61    C     0.30960   0.61890   0.82510   0.01267  Uiso   1.00
C62    C     0.43880   0.63000   0.77570   0.01267  Uiso   1.00
C63    C     0.28600   0.50350   0.88620   0.01267  Uiso   1.00
C64    C     0.16660   0.61620   0.88400   0.01267  Uiso   1.00
C65    C     0.58270   0.13200   0.77370   0.01267  Uiso   1.00
C66    C     0.53790   0.01390   0.71510   0.01267  Uiso   1.00
C67    C     0.26900   0.12580   0.89620   0.01267  Uiso   1.00
C68    C     0.82620   0.66410   0.66700   0.01267  Uiso   1.00
C69    C     0.42830   0.45510   0.67090   0.01267  Uiso   1.00
C70    C     0.99620   0.82210   0.81220   0.01267  Uiso   1.00
C71    C     0.75200   0.53730   0.63600   0.01267  Uiso   1.00
C72    C     0.73680   0.65490   0.59060   0.01267  Uiso   1.00
C73    C     0.08870   0.82030   0.82550   0.01267  Uiso   1.00
C74    C     0.24450   0.21090   0.82250   0.01267  Uiso   1.00
C75    C     0.46090   0.31490   0.64480   0.01267  Uiso   1.00
C76    C     0.79080   0.70070   0.62480   0.01267  Uiso   1.00
C77    C     0.15110   0.17990   0.82210   0.01267  Uiso   1.00
C78    C     0.48770   0.48490   0.63350   0.01267  Uiso   1.00
C79    C     0.93340   0.86560   0.84120   0.01267  Uiso   1.00
C80    C     0.97150   0.91040   0.88410   0.01267  Uiso   1.00
C81    C     0.81490   0.62040   0.82800   0.01267  Uiso   1.00
C82    C     0.95180   0.55960   0.79800   0.01267  Uiso   1.00
C83    C     0.41440   0.36610   0.67760   0.01267  Uiso   1.00
C84    C     0.12130   0.86540   0.86770   0.01267  Uiso   1.00
C85    C     0.80890   0.57920   0.67330   0.01267  Uiso   1.00
C86    C     0.30340   0.18730   0.85880   0.01267  Uiso   1.00
C87    C     0.12380   0.12390   0.86170   0.01267  Uiso   1.00
C88    C     0.51960   0.35300   0.60800   0.01267  Uiso   1.00
C89    C     0.68090   0.68240   0.86830   0.01267  Uiso   1.00
C90    C     0.73330   0.54470   0.89960   0.01267  Uiso   1.00
C91    C     0.09620   0.49380   0.76910   0.01267  Uiso   1.00
C92    C     0.99890   0.42960   0.83840   0.01267  Uiso   1.00
C93    C     0.30960   0.11890   0.67490   0.01267  Uiso   1.00
C94    C     0.43880   0.13000   0.72430   0.01267  Uiso   1.00
C95    C     0.28600   0.00350   0.61380   0.01267  Uiso   1.00
C96    C     0.16660   0.11620   0.61600   0.01267  Uiso   1.00
C97    C     0.41730   0.36800   0.27370   0.01267  Uiso   1.00
C98    C     0.46210   0.48610   0.21510   0.01267  Uiso   1.00
C99    C     0.73100   0.37420   0.39620   0.01267  Uiso   1.00
C100   C     0.17380   0.83590   0.16700   0.01267  Uiso   1.00
C101   C     0.57170   0.04490   0.17090   0.01267  Uiso   1.00
C102   C     0.00380   0.67790   0.31220   0.01267  Uiso   1.00
C103   C     0.24800   0.96270   0.13600   0.01267  Uiso   1.00
C104   C     0.26320   0.84510   0.09060   0.01267  Uiso   1.00
C105   C     0.91130   0.67970   0.32550   0.01267  Uiso   1.00
C106   C     0.75550   0.28910   0.32250   0.01267  Uiso   1.00
C107   C     0.53910   0.18510   0.14480   0.01267  Uiso   1.00
C108   C     0.20920   0.79930   0.12480   0.01267  Uiso   1.00
C109   C     0.84890   0.32010   0.32210   0.01267  Uiso   1.00
C110   C     0.51230   0.01510   0.13350   0.01267  Uiso   1.00
C111   C     0.06660   0.63440   0.34120   0.01267  Uiso   1.00
C112   C     0.02850   0.58960   0.38410   0.01267  Uiso   1.00
C113   C     0.18510   0.87960   0.32800   0.01267  Uiso   1.00
C114   C     0.04820   0.94040   0.29800   0.01267  Uiso   1.00
C115   C     0.58560   0.13390   0.17760   0.01267  Uiso   1.00
C116   C     0.87870   0.63460   0.36770   0.01267  Uiso   1.00
C117   C     0.19110   0.92080   0.17330   0.01267  Uiso   1.00
C118   C     0.69660   0.31270   0.35880   0.01267  Uiso   1.00
C119   C     0.87620   0.37610   0.36170   0.01267  Uiso   1.00
C120   C     0.48040   0.14700   0.10800   0.01267  Uiso   1.00
C121   C     0.31910   0.81760   0.36830   0.01267  Uiso   1.00
C122   C     0.26670   0.95530   0.39960   0.01267  Uiso   1.00
C123   C     0.90380   0.00620   0.26910   0.01267  Uiso   1.00
C124   C     0.00110   0.07040   0.33840   0.01267  Uiso   1.00
C125   C     0.69040   0.38110   0.17490   0.01267  Uiso   1.00
C126   C     0.56120   0.37000   0.22430   0.01267  Uiso   1.00
C127   C     0.71400   0.49650   0.11380   0.01267  Uiso   1.00
C128   C     0.83340   0.38380   0.11600   0.01267  Uiso   1.00
N1     N     0.93550   0.08760   0.10310   0.01267  Uiso   1.00
N2     N     0.81890   0.90110   0.10180   0.01267  Uiso   1.00
N3     N     0.46450   0.56490   0.39770   0.01267  Uiso   1.00
N4     N     0.28470   0.42660   0.40380   0.01267  Uiso   1.00
N5     N     0.25630   0.38720   0.13740   0.01267  Uiso   1.00
N6     N     0.98900   0.50280   0.20030   0.01267  Uiso   1.00
N7     N     0.74700   0.91740   0.36460   0.01267  Uiso   1.00
N8     N     0.47720   0.90880   0.26230   0.01267  Uiso   1.00
N9     N     0.02180   0.37880   0.23700   0.01267  Uiso   1.00
N10    N     0.18030   0.31200   0.20420   0.01267  Uiso   1.00
N11    N     0.12630   0.44350   0.17150   0.01267  Uiso   1.00
N12    N     0.72710   0.80750   0.30510   0.01267  Uiso   1.00
N13    N     0.56730   0.79840   0.24890   0.01267  Uiso   1.00
N14    N     0.60650   0.91370   0.31030   0.01267  Uiso   1.00
N15    N     0.06450   0.41240   0.60310   0.01267  Uiso   1.00
N16    N     0.18110   0.59890   0.60180   0.01267  Uiso   1.00
N17    N     0.53550   0.93510   0.89770   0.01267  Uiso   1.00
N18    N     0.71530   0.07340   0.90380   0.01267  Uiso   1.00
N19    N     0.74370   0.11280   0.63740   0.01267  Uiso   1.00
N20    N     0.01100   0.99720   0.70030   0.01267  Uiso   1.00
N21    N     0.25300   0.58260   0.86460   0.01267  Uiso   1.00
N22    N     0.52280   0.59120   0.76230   0.01267  Uiso   1.00
N23    N     0.97820   0.12120   0.73700   0.01267  Uiso   1.00
N24    N     0.81970   0.18800   0.70420   0.01267  Uiso   1.00
N25    N     0.87370   0.05650   0.67150   0.01267  Uiso   1.00
N26    N     0.27290   0.69250   0.80510   0.01267  Uiso   1.00
N27    N     0.43270   0.70160   0.74890   0.01267  Uiso   1.00
N28    N     0.39350   0.58630   0.81030   0.01267  Uiso   1.00
N29    N     0.06450   0.91240   0.89690   0.01267  Uiso   1.00
N30    N     0.18110   0.09890   0.89820   0.01267  Uiso   1.00
N31    N     0.53550   0.43510   0.60230   0.01267  Uiso   1.00
N32    N     0.71530   0.57340   0.59620   0.01267  Uiso   1.00
N33    N     0.74370   0.61280   0.86260   0.01267  Uiso   1.00
N34    N     0.01100   0.49720   0.79970   0.01267  Uiso   1.00
N35    N     0.25300   0.08260   0.63540   0.01267  Uiso   1.00
N36    N     0.52280   0.09120   0.73770   0.01267  Uiso   1.00
N37    N     0.97820   0.62120   0.76300   0.01267  Uiso   1.00
N38    N     0.81970   0.68800   0.79580   0.01267  Uiso   1.00
N39    N     0.87370   0.55650   0.82850   0.01267  Uiso   1.00
N40    N     0.27290   0.19250   0.69490   0.01267  Uiso   1.00
N41    N     0.43270   0.20160   0.75110   0.01267  Uiso   1.00
N42    N     0.39350   0.08630   0.68970   0.01267  Uiso   1.00
N43    N     0.93550   0.58760   0.39690   0.01267  Uiso   1.00
N44    N     0.81890   0.40110   0.39820   0.01267  Uiso   1.00
N45    N     0.46450   0.06490   0.10230   0.01267  Uiso   1.00
N46    N     0.28470   0.92660   0.09620   0.01267  Uiso   1.00
N47    N     0.25630   0.88720   0.36260   0.01267  Uiso   1.00
N48    N     0.98900   0.00280   0.29970   0.01267  Uiso   1.00
N49    N     0.74700   0.41740   0.13540   0.01267  Uiso   1.00
N50    N     0.47720   0.40880   0.23770   0.01267  Uiso   1.00
N51    N     0.02180   0.87880   0.26300   0.01267  Uiso   1.00
N52    N     0.18030   0.81200   0.29580   0.01267  Uiso   1.00
N53    N     0.12630   0.94350   0.32850   0.01267  Uiso   1.00
N54    N     0.72710   0.30750   0.19490   0.01267  Uiso   1.00
N55    N     0.56730   0.29840   0.25110   0.01267  Uiso   1.00
N56    N     0.60650   0.41370   0.18970   0.01267  Uiso   1.00
Cl1    Cl    0.71660   0.07894   0.04026   0.01267  Uiso   1.00
Cl2    Cl    0.76827   0.89433   0.96923   0.01267  Uiso   1.00
Cl3    Cl    0.96497   0.08706   0.96512   0.01267  Uiso   1.00
Cl4    Cl    0.51158   0.89367   0.02768   0.01267  Uiso   1.00
Cl5    Cl    0.28340   0.42106   0.54026   0.01267  Uiso   1.00
Cl6    Cl    0.23173   0.60567   0.46923   0.01267  Uiso   1.00
Cl7    Cl    0.03503   0.41294   0.46512   0.01267  Uiso   1.00
Cl8    Cl    0.48842   0.60633   0.52768   0.01267  Uiso   1.00
Cl9    Cl    0.28340   0.92106   0.95974   0.01267  Uiso   1.00
Cl10   Cl    0.23173   0.10567   0.03077   0.01267  Uiso   1.00
Cl11   Cl    0.03503   0.91294   0.03488   0.01267  Uiso   1.00
Cl12   Cl    0.48842   0.10633   0.97232   0.01267  Uiso   1.00
Cl13   Cl    0.71660   0.57894   0.45974   0.01267  Uiso   1.00
Cl14   Cl    0.76827   0.39433   0.53077   0.01267  Uiso   1.00
Cl15   Cl    0.96497   0.58706   0.53488   0.01267  Uiso   1.00
Cl16   Cl    0.51158   0.39367   0.47232   0.01267  Uiso   1.00
O1     O     0.03570   0.21220   0.23570   0.01267  Uiso   1.00
O2     O     0.11890   0.28390   0.29980   0.01267  Uiso   1.00
O3     O     0.64600   0.65860   0.28200   0.01267  Uiso   1.00
O4     O     0.72390   0.72950   0.21580   0.01267  Uiso   1.00
O5     O     0.96430   0.28780   0.73570   0.01267  Uiso   1.00
O6     O     0.88110   0.21610   0.79980   0.01267  Uiso   1.00
O7     O     0.35400   0.84140   0.78200   0.01267  Uiso   1.00
O8     O     0.27610   0.77050   0.71580   0.01267  Uiso   1.00
O9     O     0.96430   0.78780   0.76430   0.01267  Uiso   1.00
O10    O     0.88110   0.71610   0.70020   0.01267  Uiso   1.00
O11    O     0.35400   0.34140   0.71800   0.01267  Uiso   1.00
O12    O     0.27610   0.27050   0.78420   0.01267  Uiso   1.00
O13    O     0.03570   0.71220   0.26430   0.01267  Uiso   1.00
O14    O     0.11890   0.78390   0.20020   0.01267  Uiso   1.00
O15    O     0.64600   0.15860   0.21800   0.01267  Uiso   1.00
O16    O     0.72390   0.22950   0.28420   0.01267  Uiso   1.00
