data_image0
_cell_length_a       13.9444
_cell_length_b       18.1187
_cell_length_c       12.0758
_cell_angle_alpha    90
_cell_angle_beta     112.894
_cell_angle_gamma    90

_symmetry_space_group_name_H-M    "P 1"
_symmetry_int_tables_number       1

loop_
  _symmetry_equiv_pos_as_xyz
  'x, y, z'

loop_
  _atom_site_label
  _atom_site_occupancy
  _atom_site_fract_x
  _atom_site_fract_y
  _atom_site_fract_z
  _atom_site_thermal_displace_type
  _atom_site_B_iso_or_equiv
  _atom_site_type_symbol
  Mn1      1.0000 0.41865  0.51944  0.17075  Biso   1.000  Mn
  O1       1.0000 0.37305  0.58003  0.42353  Biso   1.000  O
  O2       1.0000 0.33041  0.59542  0.22518  Biso   1.000  O
  O3       1.0000 0.65771  0.92445  0.29888  Biso   1.000  O
  O4       1.0000 0.60740  0.91190  0.09877  Biso   1.000  O
  O5       1.0000 0.55330  0.51625  0.35394  Biso   1.000  O
  O6       1.0000 0.56655  0.46024  0.19775  Biso   1.000  O
  C1       1.0000 0.31791  0.60565  0.32196  Biso   1.000  C
  C2       1.0000 0.22611  0.65361  0.31178  Biso   1.000  C
  C3       1.0000 0.18474  0.65153  0.39991  Biso   1.000  C
  H1       1.0000 0.21670  0.62290  0.46840  Biso   1.000  H
  C4       1.0000 0.09587  0.69200  0.38622  Biso   1.000  C
  H2       1.0000 0.06840  0.68930  0.44500  Biso   1.000  H
  C5       1.0000 0.04736  0.73672  0.28522  Biso   1.000  C
  C6       1.0000 0.09204  0.74094  0.19966  Biso   1.000  C
  H3       1.0000 0.06290  0.77210  0.13380  Biso   1.000  H
  C7       1.0000 0.17931  0.69923  0.21168  Biso   1.000  C
  H4       1.0000 0.20670  0.70170  0.15280  Biso   1.000  H
  C8       1.0000 0.66740  0.90005  0.20601  Biso   1.000  C
  C9       1.0000 0.76239  0.85285  0.22736  Biso   1.000  C
  C10      1.0000 0.84056  0.84766  0.34254  Biso   1.000  C
  H5       1.0000 0.83130  0.87000  0.40690  Biso   1.000  H
  C11      1.0000 0.93220  0.80936  0.36191  Biso   1.000  C
  H6       1.0000 0.98300  0.80590  0.43930  Biso   1.000  H
  C12      1.0000 0.94882  0.77598  0.26613  Biso   1.000  C
  C13      1.0000 0.86903  0.78000  0.15127  Biso   1.000  C
  H7       1.0000 0.87790  0.75730  0.08680  Biso   1.000  H
  C14      1.0000 0.77669  0.81741  0.13229  Biso   1.000  C
  H8       1.0000 0.72420  0.81880  0.05570  Biso   1.000  H
  C15      1.0000 0.60770  0.48570  0.30210  Biso   1.000  C
  C16      1.0000 0.72342  0.48583  0.36443  Biso   1.000  C
  C17      1.0000 0.77098  0.52897  0.46650  Biso   1.000  C
  H9       1.0000 0.73050  0.55420  0.49970  Biso   1.000  H
  C18      1.0000 0.87875  0.53453  0.51910  Biso   1.000  C
  H10      1.0000 0.90940  0.56420  0.58650  Biso   1.000  H
  C19      1.0000 0.94229  0.49628  0.47256  Biso   1.000  C
  C20      1.0000 0.89280  0.45071  0.37255  Biso   1.000  C
  H11      1.0000 0.93310  0.42290  0.34210  Biso   1.000  H
  C21      1.0000 0.78493  0.44611  0.31794  Biso   1.000  C
  H12      1.0000 0.75380  0.41660  0.25040  Biso   1.000  H
  Mn2      1.0000 0.58135  0.01944  0.32925  Biso   1.000  Mn
  O7       1.0000 0.62695  0.08003  0.07647  Biso   1.000  O
  O8       1.0000 0.66959  0.09542  0.27482  Biso   1.000  O
  O9       1.0000 0.34229  0.42445  0.20112  Biso   1.000  O
  O10      1.0000 0.39260  0.41190  0.40123  Biso   1.000  O
  O11      1.0000 0.44670  0.01625  0.14606  Biso   1.000  O
  O12      1.0000 0.43345  0.96024  0.30225  Biso   1.000  O
  C22      1.0000 0.68209  0.10565  0.17804  Biso   1.000  C
  C23      1.0000 0.77389  0.15361  0.18822  Biso   1.000  C
  C24      1.0000 0.81526  0.15153  0.10009  Biso   1.000  C
  H13      1.0000 0.78330  0.12290  0.03160  Biso   1.000  H
  C25      1.0000 0.90413  0.19200  0.11378  Biso   1.000  C
  H14      1.0000 0.93160  0.18930  0.05500  Biso   1.000  H
  C26      1.0000 0.95264  0.23672  0.21478  Biso   1.000  C
  C27      1.0000 0.90796  0.24094  0.30034  Biso   1.000  C
  H15      1.0000 0.93710  0.27210  0.36620  Biso   1.000  H
  C28      1.0000 0.82069  0.19923  0.28832  Biso   1.000  C
  H16      1.0000 0.79330  0.20170  0.34720  Biso   1.000  H
  C29      1.0000 0.33260  0.40005  0.29399  Biso   1.000  C
  C30      1.0000 0.23761  0.35285  0.27264  Biso   1.000  C
  C31      1.0000 0.15944  0.34766  0.15746  Biso   1.000  C
  H17      1.0000 0.16870  0.37000  0.09310  Biso   1.000  H
  C32      1.0000 0.06780  0.30936  0.13809  Biso   1.000  C
  H18      1.0000 0.01700  0.30590  0.06070  Biso   1.000  H
  C33      1.0000 0.05118  0.27598  0.23387  Biso   1.000  C
  C34      1.0000 0.13097  0.28000  0.34873  Biso   1.000  C
  H19      1.0000 0.12210  0.25730  0.41320  Biso   1.000  H
  C35      1.0000 0.22331  0.31741  0.36771  Biso   1.000  C
  H20      1.0000 0.27580  0.31880  0.44430  Biso   1.000  H
  C36      1.0000 0.39230  0.98570  0.19790  Biso   1.000  C
  C37      1.0000 0.27658  0.98583  0.13557  Biso   1.000  C
  C38      1.0000 0.22902  0.02897  0.03350  Biso   1.000  C
  H21      1.0000 0.26950  0.05420  0.00030  Biso   1.000  H
  C39      1.0000 0.12125  0.03453  0.98090  Biso   1.000  C
  H22      1.0000 0.09060  0.06420  0.91350  Biso   1.000  H
  C40      1.0000 0.05771  0.99628  0.02744  Biso   1.000  C
  C41      1.0000 0.10720  0.95071  0.12745  Biso   1.000  C
  H23      1.0000 0.06690  0.92290  0.15790  Biso   1.000  H
  C42      1.0000 0.21507  0.94611  0.18206  Biso   1.000  C
  H24      1.0000 0.24620  0.91660  0.24960  Biso   1.000  H
  Mn3      1.0000 0.58135  0.48056  0.82925  Biso   1.000  Mn
  O13      1.0000 0.62695  0.41997  0.57647  Biso   1.000  O
  O14      1.0000 0.66959  0.40458  0.77482  Biso   1.000  O
  O15      1.0000 0.34229  0.07555  0.70112  Biso   1.000  O
  O16      1.0000 0.39260  0.08810  0.90123  Biso   1.000  O
  O17      1.0000 0.44670  0.48375  0.64606  Biso   1.000  O
  O18      1.0000 0.43345  0.53976  0.80225  Biso   1.000  O
  C43      1.0000 0.68209  0.39435  0.67804  Biso   1.000  C
  C44      1.0000 0.77389  0.34639  0.68822  Biso   1.000  C
  C45      1.0000 0.81526  0.34847  0.60009  Biso   1.000  C
  H25      1.0000 0.78330  0.37710  0.53160  Biso   1.000  H
  C46      1.0000 0.90413  0.30800  0.61378  Biso   1.000  C
  H26      1.0000 0.93160  0.31070  0.55500  Biso   1.000  H
  C47      1.0000 0.95264  0.26328  0.71478  Biso   1.000  C
  C48      1.0000 0.90796  0.25906  0.80034  Biso   1.000  C
  H27      1.0000 0.93710  0.22790  0.86620  Biso   1.000  H
  C49      1.0000 0.82069  0.30077  0.78832  Biso   1.000  C
  H28      1.0000 0.79330  0.29830  0.84720  Biso   1.000  H
  C50      1.0000 0.33260  0.09995  0.79399  Biso   1.000  C
  C51      1.0000 0.23761  0.14715  0.77264  Biso   1.000  C
  C52      1.0000 0.15944  0.15234  0.65746  Biso   1.000  C
  H29      1.0000 0.16870  0.13000  0.59310  Biso   1.000  H
  C53      1.0000 0.06780  0.19064  0.63809  Biso   1.000  C
  H30      1.0000 0.01700  0.19410  0.56070  Biso   1.000  H
  C54      1.0000 0.05118  0.22402  0.73387  Biso   1.000  C
  C55      1.0000 0.13097  0.22000  0.84873  Biso   1.000  C
  H31      1.0000 0.12210  0.24270  0.91320  Biso   1.000  H
  C56      1.0000 0.22331  0.18259  0.86771  Biso   1.000  C
  H32      1.0000 0.27580  0.18120  0.94430  Biso   1.000  H
  C57      1.0000 0.39230  0.51430  0.69790  Biso   1.000  C
  C58      1.0000 0.27658  0.51417  0.63557  Biso   1.000  C
  C59      1.0000 0.22902  0.47103  0.53350  Biso   1.000  C
  H33      1.0000 0.26950  0.44580  0.50030  Biso   1.000  H
  C60      1.0000 0.12125  0.46547  0.48090  Biso   1.000  C
  H34      1.0000 0.09060  0.43580  0.41350  Biso   1.000  H
  C61      1.0000 0.05771  0.50372  0.52744  Biso   1.000  C
  C62      1.0000 0.10720  0.54929  0.62745  Biso   1.000  C
  H35      1.0000 0.06690  0.57710  0.65790  Biso   1.000  H
  C63      1.0000 0.21507  0.55389  0.68206  Biso   1.000  C
  H36      1.0000 0.24620  0.58340  0.74960  Biso   1.000  H
  Mn4      1.0000 0.41865  0.98056  0.67075  Biso   1.000  Mn
  O19      1.0000 0.37305  0.91997  0.92353  Biso   1.000  O
  O20      1.0000 0.33041  0.90458  0.72518  Biso   1.000  O
  O21      1.0000 0.65771  0.57555  0.79888  Biso   1.000  O
  O22      1.0000 0.60740  0.58810  0.59877  Biso   1.000  O
  O23      1.0000 0.55330  0.98375  0.85394  Biso   1.000  O
  O24      1.0000 0.56655  0.03976  0.69775  Biso   1.000  O
  C64      1.0000 0.31791  0.89435  0.82196  Biso   1.000  C
  C65      1.0000 0.22611  0.84639  0.81178  Biso   1.000  C
  C66      1.0000 0.18474  0.84847  0.89991  Biso   1.000  C
  H37      1.0000 0.21670  0.87710  0.96840  Biso   1.000  H
  C67      1.0000 0.09587  0.80800  0.88622  Biso   1.000  C
  H38      1.0000 0.06840  0.81070  0.94500  Biso   1.000  H
  C68      1.0000 0.04736  0.76328  0.78522  Biso   1.000  C
  C69      1.0000 0.09204  0.75906  0.69966  Biso   1.000  C
  H39      1.0000 0.06290  0.72790  0.63380  Biso   1.000  H
  C70      1.0000 0.17931  0.80077  0.71168  Biso   1.000  C
  H40      1.0000 0.20670  0.79830  0.65280  Biso   1.000  H
  C71      1.0000 0.66740  0.59995  0.70601  Biso   1.000  C
  C72      1.0000 0.76239  0.64715  0.72736  Biso   1.000  C
  C73      1.0000 0.84056  0.65234  0.84254  Biso   1.000  C
  H41      1.0000 0.83130  0.63000  0.90690  Biso   1.000  H
  C74      1.0000 0.93220  0.69064  0.86191  Biso   1.000  C
  H42      1.0000 0.98300  0.69410  0.93930  Biso   1.000  H
  C75      1.0000 0.94882  0.72402  0.76613  Biso   1.000  C
  C76      1.0000 0.86903  0.72000  0.65127  Biso   1.000  C
  H43      1.0000 0.87790  0.74270  0.58680  Biso   1.000  H
  C77      1.0000 0.77669  0.68259  0.63229  Biso   1.000  C
  H44      1.0000 0.72420  0.68120  0.55570  Biso   1.000  H
  C78      1.0000 0.60770  0.01430  0.80210  Biso   1.000  C
  C79      1.0000 0.72342  0.01417  0.86443  Biso   1.000  C
  C80      1.0000 0.77098  0.97103  0.96650  Biso   1.000  C
  H45      1.0000 0.73050  0.94580  0.99970  Biso   1.000  H
  C81      1.0000 0.87875  0.96547  0.01910  Biso   1.000  C
  H46      1.0000 0.90940  0.93580  0.08650  Biso   1.000  H
  C82      1.0000 0.94229  0.00372  0.97256  Biso   1.000  C
  C83      1.0000 0.89280  0.04929  0.87255  Biso   1.000  C
  H47      1.0000 0.93310  0.07710  0.84210  Biso   1.000  H
  C84      1.0000 0.78493  0.05389  0.81794  Biso   1.000  C
  H48      1.0000 0.75380  0.08340  0.75040  Biso   1.000  H
  Mn5      1.0000 0.50000  0.50000  0.50000  Biso   1.000  Mn
  Mn6      1.0000 0.50000  0.00000  0.00000  Biso   1.000  Mn
