data_VUQLEZ_charged
_audit_creation_date              2014-07-02
_audit_creation_method            'Materials Studio'
_symmetry_space_group_name_H-M    'P1'
_symmetry_Int_Tables_number       1
_symmetry_cell_setting            triclinic
loop_
_symmetry_equiv_pos_as_xyz
  x,y,z
_cell_length_a                    10.1333
_cell_length_b                    18.6979
_cell_length_c                    20.4951
_cell_angle_alpha                 115.9120
_cell_angle_beta                  102.2310
_cell_angle_gamma                 94.4456
loop_
_atom_site_label
_atom_site_type_symbol
_atom_site_fract_x
_atom_site_fract_y
_atom_site_fract_z
_atom_site_U_iso_or_equiv
_atom_site_adp_type
_atom_site_occupancy
Eu1    Eu    0.94110   0.95022   0.38480   0.01267  Uiso   1.00
Eu2    Eu    0.68911   0.66772   0.06234   0.01267  Uiso   1.00
Eu3    Eu    0.94370   0.43458   0.38480   0.01267  Uiso   1.00
Eu4    Eu    0.87323   0.39462   0.06234   0.01267  Uiso   1.00
Eu5    Eu    0.05890   0.04978   0.61520   0.01267  Uiso   1.00
Eu6    Eu    0.31089   0.33228   0.93766   0.01267  Uiso   1.00
Eu7    Eu    0.05630   0.56542   0.61520   0.01267  Uiso   1.00
Eu8    Eu    0.12677   0.60538   0.93766   0.01267  Uiso   1.00
Eu9    Eu    0.97032   0.22032   0.44064   0.01267  Uiso   1.00
Eu10   Eu    0.02968   0.77968   0.55936   0.01267  Uiso   1.00
S1     S     0.19017   0.13547   0.53600   0.01267  Uiso   1.00
S2     S     0.80175   0.81815   0.22098   0.01267  Uiso   1.00
S3     S     0.77690   0.09690   0.50558   0.01267  Uiso   1.00
S4     S     0.95455   0.59355   0.07096   0.01267  Uiso   1.00
S5     S     0.02439   0.06349   0.31542   0.01267  Uiso   1.00
S6     S     0.40793   0.77933   0.05382   0.01267  Uiso   1.00
S7     S     0.84583   0.40053   0.53600   0.01267  Uiso   1.00
S8     S     0.91923   0.40283   0.22098   0.01267  Uiso   1.00
S9     S     0.22868   0.40868   0.50558   0.01267  Uiso   1.00
S10    S     0.61641   0.47741   0.07096   0.01267  Uiso   1.00
S11    S     0.79103   0.25193   0.31542   0.01267  Uiso   1.00
S12    S     0.14589   0.27449   0.05382   0.01267  Uiso   1.00
S13    S     0.80983   0.86453   0.46400   0.01267  Uiso   1.00
S14    S     0.19825   0.18185   0.77902   0.01267  Uiso   1.00
S15    S     0.22310   0.90310   0.49442   0.01267  Uiso   1.00
S16    S     0.04545   0.40645   0.92904   0.01267  Uiso   1.00
S17    S     0.97561   0.93651   0.68458   0.01267  Uiso   1.00
S18    S     0.59207   0.22067   0.94618   0.01267  Uiso   1.00
S19    S     0.15417   0.59947   0.46400   0.01267  Uiso   1.00
S20    S     0.08077   0.59717   0.77902   0.01267  Uiso   1.00
S21    S     0.77132   0.59132   0.49442   0.01267  Uiso   1.00
S22    S     0.38359   0.52259   0.92904   0.01267  Uiso   1.00
S23    S     0.20897   0.74807   0.68458   0.01267  Uiso   1.00
S24    S     0.85411   0.72551   0.94618   0.01267  Uiso   1.00
O1     O     0.97440   0.03780   0.23540   0.01267  Uiso   1.00
O2     O     0.43610   0.83570   0.13160   0.01267  Uiso   1.00
O3     O     0.51110   0.72990   0.04200   0.01267  Uiso   1.00
O4     O     0.27180   0.72580   0.02680   0.01267  Uiso   1.00
O5     O     0.40800   0.82340   0.01040   0.01267  Uiso   1.00
O6     O     0.11100   0.14520   0.35760   0.01267  Uiso   1.00
O7     O     0.76987   0.01717   0.43774   0.01267  Uiso   1.00
O8     O     0.07462   0.06242   0.49484   0.01267  Uiso   1.00
O9     O     0.20988   0.15658   0.61556   0.01267  Uiso   1.00
O10    O     0.92277   0.66557   0.12974   0.01267  Uiso   1.00
O11    O     0.14493   0.20203   0.52266   0.01267  Uiso   1.00
O12    O     0.09020   0.00080   0.32800   0.01267  Uiso   1.00
O13    O     0.83338   0.16348   0.49356   0.01267  Uiso   1.00
O14    O     0.90720   0.07050   0.35200   0.01267  Uiso   1.00
O15    O     0.86533   0.09963   0.57406   0.01267  Uiso   1.00
O16    O     0.31400   0.11720   0.51220   0.01267  Uiso   1.00
O17    O     0.63942   0.10412   0.51344   0.01267  Uiso   1.00
O18    O     0.97250   0.53250   0.09800   0.01267  Uiso   1.00
O19    O     0.08190   0.61220   0.05380   0.01267  Uiso   1.00
O20    O     0.81230   0.81350   0.14860   0.01267  Uiso   1.00
O21    O     0.74970   0.89130   0.26440   0.01267  Uiso   1.00
O22    O     0.93681   0.82671   0.27002   0.01267  Uiso   1.00
O23    O     0.71137   0.74207   0.20014   0.01267  Uiso   1.00
O24    O     0.83557   0.56647   0.00534   0.01267  Uiso   1.00
O25    O     0.76100   0.19760   0.23540   0.01267  Uiso   1.00
O26    O     0.19550   0.29590   0.13160   0.01267  Uiso   1.00
O27    O     0.03090   0.31210   0.04200   0.01267  Uiso   1.00
O28    O     0.25500   0.30100   0.02680   0.01267  Uiso   1.00
O29    O     0.10240   0.18700   0.01040   0.01267  Uiso   1.00
O30    O     0.74660   0.21240   0.35760   0.01267  Uiso   1.00
O31    O     0.16787   0.42057   0.43774   0.01267  Uiso   1.00
O32    O     0.92022   0.43242   0.49484   0.01267  Uiso   1.00
O33    O     0.90568   0.45898   0.61556   0.01267  Uiso   1.00
O34    O     0.70697   0.46417   0.12974   0.01267  Uiso   1.00
O35    O     0.87773   0.32063   0.52266   0.01267  Uiso   1.00
O36    O     0.73780   0.32720   0.32800   0.01267  Uiso   1.00
O37    O     0.16018   0.33008   0.49356   0.01267  Uiso   1.00
O38    O     0.94480   0.28150   0.35200   0.01267  Uiso   1.00
O39    O     0.20873   0.47443   0.57406   0.01267  Uiso   1.00
O40    O     0.69820   0.39500   0.51220   0.01267  Uiso   1.00
O41    O     0.37402   0.40932   0.51344   0.01267  Uiso   1.00
O42    O     0.62550   0.56550   0.09800   0.01267  Uiso   1.00
O43    O     0.47190   0.44160   0.05380   0.01267  Uiso   1.00
O44    O     0.83630   0.33510   0.14860   0.01267  Uiso   1.00
O45    O     0.01470   0.37310   0.26440   0.01267  Uiso   1.00
O46    O     0.83321   0.44331   0.27002   0.01267  Uiso   1.00
O47    O     0.98877   0.45807   0.20014   0.01267  Uiso   1.00
O48    O     0.66977   0.43887   0.00534   0.01267  Uiso   1.00
O49    O     0.02560   0.96220   0.76460   0.01267  Uiso   1.00
O50    O     0.56390   0.16430   0.86840   0.01267  Uiso   1.00
O51    O     0.48890   0.27010   0.95800   0.01267  Uiso   1.00
O52    O     0.72820   0.27420   0.97320   0.01267  Uiso   1.00
O53    O     0.59200   0.17660   0.98960   0.01267  Uiso   1.00
O54    O     0.88900   0.85480   0.64240   0.01267  Uiso   1.00
O55    O     0.23013   0.98283   0.56226   0.01267  Uiso   1.00
O56    O     0.92538   0.93758   0.50516   0.01267  Uiso   1.00
O57    O     0.79012   0.84342   0.38444   0.01267  Uiso   1.00
O58    O     0.07723   0.33443   0.87026   0.01267  Uiso   1.00
O59    O     0.85507   0.79797   0.47734   0.01267  Uiso   1.00
O60    O     0.90980   0.99920   0.67200   0.01267  Uiso   1.00
O61    O     0.16662   0.83652   0.50644   0.01267  Uiso   1.00
O62    O     0.09280   0.92950   0.64800   0.01267  Uiso   1.00
O63    O     0.13467   0.90037   0.42594   0.01267  Uiso   1.00
O64    O     0.68600   0.88280   0.48780   0.01267  Uiso   1.00
O65    O     0.36058   0.89588   0.48656   0.01267  Uiso   1.00
O66    O     0.02750   0.46750   0.90200   0.01267  Uiso   1.00
O67    O     0.91810   0.38780   0.94620   0.01267  Uiso   1.00
O68    O     0.18770   0.18650   0.85140   0.01267  Uiso   1.00
O69    O     0.25030   0.10870   0.73560   0.01267  Uiso   1.00
O70    O     0.06319   0.17329   0.72998   0.01267  Uiso   1.00
O71    O     0.28863   0.25793   0.79986   0.01267  Uiso   1.00
O72    O     0.16443   0.43353   0.99466   0.01267  Uiso   1.00
O73    O     0.23900   0.80240   0.76460   0.01267  Uiso   1.00
O74    O     0.80450   0.70410   0.86840   0.01267  Uiso   1.00
O75    O     0.96910   0.68790   0.95800   0.01267  Uiso   1.00
O76    O     0.74500   0.69900   0.97320   0.01267  Uiso   1.00
O77    O     0.89760   0.81300   0.98960   0.01267  Uiso   1.00
O78    O     0.25340   0.78760   0.64240   0.01267  Uiso   1.00
O79    O     0.83213   0.57943   0.56226   0.01267  Uiso   1.00
O80    O     0.07978   0.56758   0.50516   0.01267  Uiso   1.00
O81    O     0.09432   0.54102   0.38444   0.01267  Uiso   1.00
O82    O     0.29303   0.53583   0.87026   0.01267  Uiso   1.00
O83    O     0.12227   0.67937   0.47734   0.01267  Uiso   1.00
O84    O     0.26220   0.67280   0.67200   0.01267  Uiso   1.00
O85    O     0.83982   0.66992   0.50644   0.01267  Uiso   1.00
O86    O     0.05520   0.71850   0.64800   0.01267  Uiso   1.00
O87    O     0.79127   0.52557   0.42594   0.01267  Uiso   1.00
O88    O     0.30180   0.60500   0.48780   0.01267  Uiso   1.00
O89    O     0.62598   0.59068   0.48656   0.01267  Uiso   1.00
O90    O     0.37450   0.43450   0.90200   0.01267  Uiso   1.00
O91    O     0.52810   0.55840   0.94620   0.01267  Uiso   1.00
O92    O     0.16370   0.66490   0.85140   0.01267  Uiso   1.00
O93    O     0.98530   0.62690   0.73560   0.01267  Uiso   1.00
O94    O     0.16679   0.55669   0.72998   0.01267  Uiso   1.00
O95    O     0.01123   0.54193   0.79986   0.01267  Uiso   1.00
O96    O     0.33023   0.56113   0.99466   0.01267  Uiso   1.00
H1     H     0.63060   0.45800   0.89840   0.01267  Uiso   1.00
H2     H     0.62090   0.32570   0.85840   0.01267  Uiso   1.00
H3     H     0.53680   0.34020   0.79320   0.01267  Uiso   1.00
H4     H     0.68550   0.32190   0.79420   0.01267  Uiso   1.00
H5     H     0.76780   0.44040   0.89840   0.01267  Uiso   1.00
H6     H     0.73750   0.53270   0.85840   0.01267  Uiso   1.00
H7     H     0.75640   0.45300   0.79320   0.01267  Uiso   1.00
H8     H     0.60870   0.47230   0.79420   0.01267  Uiso   1.00
C1     C     0.62700   0.34820   0.82480   0.01267  Uiso   1.00
C2     C     0.69780   0.47660   0.82480   0.01267  Uiso   1.00
N1     N     0.68420   0.43420   0.86840   0.01267  Uiso   1.00
H9     H     0.67770   0.54870   0.60100   0.01267  Uiso   1.00
H10    H     0.54830   0.49280   0.57600   0.01267  Uiso   1.00
H11    H     0.69530   0.47790   0.66600   0.01267  Uiso   1.00
H12    H     0.70820   0.57000   0.72100   0.01267  Uiso   1.00
H13    H     0.56870   0.50940   0.69400   0.01267  Uiso   1.00
H14    H     0.50150   0.61330   0.58600   0.01267  Uiso   1.00
H15    H     0.44790   0.59520   0.64460   0.01267  Uiso   1.00
H16    H     0.58740   0.65540   0.67080   0.01267  Uiso   1.00
C3     C     0.64770   0.52250   0.67960   0.01267  Uiso   1.00
C4     C     0.52830   0.60650   0.63040   0.01267  Uiso   1.00
N2     N     0.60340   0.53800   0.61500   0.01267  Uiso   1.00
H17    H     0.96970   0.21770   0.22120   0.01267  Uiso   1.00
H18    H     0.03920   0.25110   0.18320   0.01267  Uiso   1.00
H19    H     0.18680   0.23810   0.26800   0.01267  Uiso   1.00
H20    H     0.12640   0.14480   0.22660   0.01267  Uiso   1.00
H21    H     0.20280   0.18360   0.18740   0.01267  Uiso   1.00
H22    H     0.85100   0.16820   0.10560   0.01267  Uiso   1.00
H23    H     0.97870   0.13620   0.07920   0.01267  Uiso   1.00
H24    H     0.90510   0.09880   0.12040   0.01267  Uiso   1.00
C5     C     0.14310   0.19210   0.22000   0.01267  Uiso   1.00
C6     C     0.93160   0.14760   0.11760   0.01267  Uiso   1.00
N3     N     0.01930   0.20590   0.18760   0.01267  Uiso   1.00
H25    H     0.99650   0.11890   0.84660   0.01267  Uiso   1.00
H26    H     0.96270   0.17800   0.91260   0.01267  Uiso   1.00
H27    H     0.90330   0.04910   0.90080   0.01267  Uiso   1.00
H28    H     0.77140   0.08680   0.89380   0.01267  Uiso   1.00
H29    H     0.80370   0.02330   0.82120   0.01267  Uiso   1.00
H30    H     0.90730   0.20780   0.82060   0.01267  Uiso   1.00
H31    H     0.81150   0.12210   0.77160   0.01267  Uiso   1.00
H32    H     0.77640   0.18650   0.84280   0.01267  Uiso   1.00
C7     C     0.84340   0.06740   0.87080   0.01267  Uiso   1.00
C8     C     0.84950   0.16540   0.82180   0.01267  Uiso   1.00
N4     N     0.92680   0.13680   0.86580   0.01267  Uiso   1.00
H33    H     0.84570   0.65160   0.23020   0.01267  Uiso   1.00
H34    H     0.07430   0.67290   0.27080   0.01267  Uiso   1.00
H35    H     0.01550   0.73130   0.33500   0.01267  Uiso   1.00
H36    H     0.05900   0.65300   0.33600   0.01267  Uiso   1.00
H37    H     0.88450   0.57860   0.23020   0.01267  Uiso   1.00
H38    H     0.69650   0.59790   0.27080   0.01267  Uiso   1.00
H39    H     0.81950   0.60370   0.33500   0.01267  Uiso   1.00
H40    H     0.77700   0.68300   0.33600   0.01267  Uiso   1.00
C9     C     0.01870   0.67570   0.30420   0.01267  Uiso   1.00
C10    C     0.78550   0.62850   0.30420   0.01267  Uiso   1.00
N5     N     0.88010   0.63010   0.26020   0.01267  Uiso   1.00
H41    H     0.42330   0.05230   0.60100   0.01267  Uiso   1.00
H42    H     0.52770   0.08320   0.57600   0.01267  Uiso   1.00
H43    H     0.47070   0.18810   0.66600   0.01267  Uiso   1.00
H44    H     0.51280   0.15100   0.72100   0.01267  Uiso   1.00
H45    H     0.62530   0.18460   0.69400   0.01267  Uiso   1.00
H46    H     0.58450   0.97270   0.58600   0.01267  Uiso   1.00
H47    H     0.69670   0.04940   0.64460   0.01267  Uiso   1.00
H48    H     0.58340   0.01540   0.67080   0.01267  Uiso   1.00
C11    C     0.53190   0.15710   0.67960   0.01267  Uiso   1.00
C12    C     0.60210   0.02390   0.63040   0.01267  Uiso   1.00
N6     N     0.51160   0.07700   0.61500   0.01267  Uiso   1.00
H49    H     0.75150   0.00350   0.22120   0.01267  Uiso   1.00
H50    H     0.64400   0.93210   0.18320   0.01267  Uiso   1.00
H51    H     0.58120   0.02990   0.26800   0.01267  Uiso   1.00
H52    H     0.60020   0.08180   0.22660   0.01267  Uiso   1.00
H53    H     0.48460   0.00380   0.18740   0.01267  Uiso   1.00
H54    H     0.75460   0.93740   0.10560   0.01267  Uiso   1.00
H55    H     0.60050   0.94300   0.07920   0.01267  Uiso   1.00
H56    H     0.71530   0.02160   0.12040   0.01267  Uiso   1.00
C13    C     0.57690   0.02790   0.22000   0.01267  Uiso   1.00
C14    C     0.68600   0.97000   0.11760   0.01267  Uiso   1.00
N7     N     0.66830   0.98170   0.18760   0.01267  Uiso   1.00
H57    H     0.35010   0.72770   0.84660   0.01267  Uiso   1.00
H58    H     0.44990   0.73460   0.91260   0.01267  Uiso   1.00
H59    H     0.49750   0.85170   0.90080   0.01267  Uiso   1.00
H60    H     0.62240   0.80700   0.89380   0.01267  Uiso   1.00
H61    H     0.51750   0.79790   0.82120   0.01267  Uiso   1.00
H62    H     0.41330   0.61280   0.82060   0.01267  Uiso   1.00
H63    H     0.46010   0.64950   0.77160   0.01267  Uiso   1.00
H64    H     0.56640   0.65630   0.84280   0.01267  Uiso   1.00
C15    C     0.52740   0.80340   0.87080   0.01267  Uiso   1.00
C16    C     0.47230   0.65640   0.82180   0.01267  Uiso   1.00
N8     N     0.43900   0.72900   0.86580   0.01267  Uiso   1.00
H65    H     0.36940   0.54200   0.10160   0.01267  Uiso   1.00
H66    H     0.37910   0.67430   0.14160   0.01267  Uiso   1.00
H67    H     0.46320   0.65980   0.20680   0.01267  Uiso   1.00
H68    H     0.31450   0.67810   0.20580   0.01267  Uiso   1.00
H69    H     0.23220   0.55960   0.10160   0.01267  Uiso   1.00
H70    H     0.26250   0.46730   0.14160   0.01267  Uiso   1.00
H71    H     0.24360   0.54700   0.20680   0.01267  Uiso   1.00
H72    H     0.39130   0.52770   0.20580   0.01267  Uiso   1.00
C17    C     0.37300   0.65180   0.17520   0.01267  Uiso   1.00
C18    C     0.30220   0.52340   0.17520   0.01267  Uiso   1.00
N9     N     0.31580   0.56580   0.13160   0.01267  Uiso   1.00
H73    H     0.32230   0.45130   0.39900   0.01267  Uiso   1.00
H74    H     0.45170   0.50720   0.42400   0.01267  Uiso   1.00
H75    H     0.30470   0.52210   0.33400   0.01267  Uiso   1.00
H76    H     0.29180   0.43000   0.27900   0.01267  Uiso   1.00
H77    H     0.43130   0.49060   0.30600   0.01267  Uiso   1.00
H78    H     0.49850   0.38670   0.41400   0.01267  Uiso   1.00
H79    H     0.55210   0.40480   0.35540   0.01267  Uiso   1.00
H80    H     0.41260   0.34460   0.32920   0.01267  Uiso   1.00
C19    C     0.35230   0.47750   0.32040   0.01267  Uiso   1.00
C20    C     0.47170   0.39350   0.36960   0.01267  Uiso   1.00
N10    N     0.39660   0.46200   0.38500   0.01267  Uiso   1.00
H81    H     0.03030   0.78230   0.77880   0.01267  Uiso   1.00
H82    H     0.96080   0.74890   0.81680   0.01267  Uiso   1.00
H83    H     0.81320   0.76190   0.73200   0.01267  Uiso   1.00
H84    H     0.87360   0.85520   0.77340   0.01267  Uiso   1.00
H85    H     0.79720   0.81640   0.81260   0.01267  Uiso   1.00
H86    H     0.14900   0.83180   0.89440   0.01267  Uiso   1.00
H87    H     0.02130   0.86380   0.92080   0.01267  Uiso   1.00
H88    H     0.09490   0.90120   0.87960   0.01267  Uiso   1.00
C21    C     0.85690   0.80790   0.78000   0.01267  Uiso   1.00
C22    C     0.06840   0.85240   0.88240   0.01267  Uiso   1.00
N11    N     0.98070   0.79410   0.81240   0.01267  Uiso   1.00
H89    H     0.00350   0.88110   0.15340   0.01267  Uiso   1.00
H90    H     0.03730   0.82200   0.08740   0.01267  Uiso   1.00
H91    H     0.09670   0.95090   0.09920   0.01267  Uiso   1.00
H92    H     0.22860   0.91320   0.10620   0.01267  Uiso   1.00
H93    H     0.19630   0.97670   0.17880   0.01267  Uiso   1.00
H94    H     0.09270   0.79220   0.17940   0.01267  Uiso   1.00
H95    H     0.18850   0.87790   0.22840   0.01267  Uiso   1.00
H96    H     0.22360   0.81350   0.15720   0.01267  Uiso   1.00
C23    C     0.15660   0.93260   0.12920   0.01267  Uiso   1.00
C24    C     0.15050   0.83460   0.17820   0.01267  Uiso   1.00
N12    N     0.07320   0.86320   0.13420   0.01267  Uiso   1.00
H97    H     0.15430   0.34840   0.76980   0.01267  Uiso   1.00
H98    H     0.92570   0.32710   0.72920   0.01267  Uiso   1.00
H99    H     0.98450   0.26870   0.66500   0.01267  Uiso   1.00
H100   H     0.94100   0.34700   0.66400   0.01267  Uiso   1.00
H101   H     0.11550   0.42140   0.76980   0.01267  Uiso   1.00
H102   H     0.30350   0.40210   0.72920   0.01267  Uiso   1.00
H103   H     0.18050   0.39630   0.66500   0.01267  Uiso   1.00
H104   H     0.22300   0.31700   0.66400   0.01267  Uiso   1.00
C25    C     0.98130   0.32430   0.69580   0.01267  Uiso   1.00
C26    C     0.21450   0.37150   0.69580   0.01267  Uiso   1.00
N13    N     0.11990   0.36990   0.73980   0.01267  Uiso   1.00
H105   H     0.57670   0.94770   0.39900   0.01267  Uiso   1.00
H106   H     0.47230   0.91680   0.42400   0.01267  Uiso   1.00
H107   H     0.52930   0.81190   0.33400   0.01267  Uiso   1.00
H108   H     0.48720   0.84900   0.27900   0.01267  Uiso   1.00
H109   H     0.37470   0.81540   0.30600   0.01267  Uiso   1.00
H110   H     0.41550   0.02730   0.41400   0.01267  Uiso   1.00
H111   H     0.30330   0.95060   0.35540   0.01267  Uiso   1.00
H112   H     0.41660   0.98460   0.32920   0.01267  Uiso   1.00
C27    C     0.46810   0.84290   0.32040   0.01267  Uiso   1.00
C28    C     0.39790   0.97610   0.36960   0.01267  Uiso   1.00
N14    N     0.48840   0.92300   0.38500   0.01267  Uiso   1.00
H113   H     0.24850   0.99650   0.77880   0.01267  Uiso   1.00
H114   H     0.35600   0.06790   0.81680   0.01267  Uiso   1.00
H115   H     0.41880   0.97010   0.73200   0.01267  Uiso   1.00
H116   H     0.39980   0.91820   0.77340   0.01267  Uiso   1.00
H117   H     0.51540   0.99620   0.81260   0.01267  Uiso   1.00
H118   H     0.24540   0.06260   0.89440   0.01267  Uiso   1.00
H119   H     0.39950   0.05700   0.92080   0.01267  Uiso   1.00
H120   H     0.28470   0.97840   0.87960   0.01267  Uiso   1.00
C29    C     0.42310   0.97210   0.78000   0.01267  Uiso   1.00
C30    C     0.31400   0.03000   0.88240   0.01267  Uiso   1.00
N15    N     0.33170   0.01830   0.81240   0.01267  Uiso   1.00
H121   H     0.64990   0.27230   0.15340   0.01267  Uiso   1.00
H122   H     0.55010   0.26540   0.08740   0.01267  Uiso   1.00
H123   H     0.50250   0.14830   0.09920   0.01267  Uiso   1.00
H124   H     0.37760   0.19300   0.10620   0.01267  Uiso   1.00
H125   H     0.48250   0.20210   0.17880   0.01267  Uiso   1.00
H126   H     0.58670   0.38720   0.17940   0.01267  Uiso   1.00
H127   H     0.53990   0.35050   0.22840   0.01267  Uiso   1.00
H128   H     0.43360   0.34370   0.15720   0.01267  Uiso   1.00
C31    C     0.47260   0.19660   0.12920   0.01267  Uiso   1.00
C32    C     0.52770   0.34360   0.17820   0.01267  Uiso   1.00
N16    N     0.56100   0.27100   0.13420   0.01267  Uiso   1.00
