data_image0
_cell_length_a       27.768
_cell_length_b       7.9
_cell_length_c       18.298
_cell_angle_alpha    90
_cell_angle_beta     108.329
_cell_angle_gamma    90

_symmetry_space_group_name_H-M    "P 1"
_symmetry_int_tables_number       1

loop_
  _symmetry_equiv_pos_as_xyz
  'x, y, z'

loop_
  _atom_site_label
  _atom_site_occupancy
  _atom_site_fract_x
  _atom_site_fract_y
  _atom_site_fract_z
  _atom_site_thermal_displace_type
  _atom_site_B_iso_or_equiv
  _atom_site_type_symbol
  Zn1      1.0000 0.04098  0.17319  0.19715  Biso   1.000  Zn
  C1       1.0000 0.08892  0.09000  0.97785  Biso   1.000  C
  H1       1.0000 0.05650  0.06010  0.97780  Biso   1.000  H
  O1       1.0000 0.02387  0.94390  0.84830  Biso   1.000  O
  O2       1.0000 0.08269  0.94460  0.78870  Biso   1.000  O
  C2       1.0000 0.06728  0.97670  0.84495  Biso   1.000  C
  C3       1.0000 0.10345  0.05920  0.91342  Biso   1.000  C
  N1       1.0000 0.23368  0.22260  0.97251  Biso   1.000  N
  C4       1.0000 0.15197  0.10340  0.91352  Biso   1.000  C
  H2       1.0000 0.16230  0.08260  0.87060  Biso   1.000  H
  O3       1.0000 0.06231  0.14760  0.10822  Biso   1.000  O
  C5       1.0000 0.12245  0.16550  0.04284  Biso   1.000  C
  C6       1.0000 0.18484  0.17920  0.97884  Biso   1.000  C
  O4       1.0000 0.02830  0.40520  0.21866  Biso   1.000  O
  C7       1.0000 0.17062  0.21110  0.04299  Biso   1.000  C
  H3       1.0000 0.19310  0.26270  0.08600  Biso   1.000  H
  O5       1.0000 0.13526  0.26550  0.16989  Biso   1.000  O
  C8       1.0000 0.10667  0.19700  0.11288  Biso   1.000  C
  Zn2      1.0000 0.54098  0.67319  0.19715  Biso   1.000  Zn
  C9       1.0000 0.58892  0.59000  0.97785  Biso   1.000  C
  H4       1.0000 0.55650  0.56010  0.97780  Biso   1.000  H
  O6       1.0000 0.52387  0.44390  0.84830  Biso   1.000  O
  O7       1.0000 0.58269  0.44460  0.78870  Biso   1.000  O
  C10      1.0000 0.56728  0.47670  0.84495  Biso   1.000  C
  C11      1.0000 0.60345  0.55920  0.91342  Biso   1.000  C
  N2       1.0000 0.73368  0.72260  0.97251  Biso   1.000  N
  C12      1.0000 0.65197  0.60340  0.91352  Biso   1.000  C
  H5       1.0000 0.66230  0.58260  0.87060  Biso   1.000  H
  O8       1.0000 0.56231  0.64760  0.10822  Biso   1.000  O
  C13      1.0000 0.62245  0.66550  0.04284  Biso   1.000  C
  C14      1.0000 0.68484  0.67920  0.97884  Biso   1.000  C
  O9       1.0000 0.52830  0.90520  0.21866  Biso   1.000  O
  C15      1.0000 0.67062  0.71110  0.04299  Biso   1.000  C
  H6       1.0000 0.69310  0.76270  0.08600  Biso   1.000  H
  O10      1.0000 0.63526  0.76550  0.16989  Biso   1.000  O
  C16      1.0000 0.60667  0.69700  0.11288  Biso   1.000  C
  Zn3      1.0000 0.95902  0.17319  0.30285  Biso   1.000  Zn
  C17      1.0000 0.91108  0.09000  0.52215  Biso   1.000  C
  H7       1.0000 0.94350  0.06010  0.52220  Biso   1.000  H
  O11      1.0000 0.97613  0.94390  0.65170  Biso   1.000  O
  O12      1.0000 0.91731  0.94460  0.71130  Biso   1.000  O
  C18      1.0000 0.93272  0.97670  0.65505  Biso   1.000  C
  C19      1.0000 0.89655  0.05920  0.58658  Biso   1.000  C
  N3       1.0000 0.76632  0.22260  0.52749  Biso   1.000  N
  C20      1.0000 0.84803  0.10340  0.58648  Biso   1.000  C
  H8       1.0000 0.83770  0.08260  0.62940  Biso   1.000  H
  O13      1.0000 0.93769  0.14760  0.39178  Biso   1.000  O
  C21      1.0000 0.87755  0.16550  0.45716  Biso   1.000  C
  C22      1.0000 0.81516  0.17920  0.52116  Biso   1.000  C
  O14      1.0000 0.97170  0.40520  0.28134  Biso   1.000  O
  C23      1.0000 0.82938  0.21110  0.45701  Biso   1.000  C
  H9       1.0000 0.80690  0.26270  0.41400  Biso   1.000  H
  O15      1.0000 0.86474  0.26550  0.33011  Biso   1.000  O
  C24      1.0000 0.89333  0.19700  0.38712  Biso   1.000  C
  Zn4      1.0000 0.45902  0.67319  0.30285  Biso   1.000  Zn
  C25      1.0000 0.41108  0.59000  0.52215  Biso   1.000  C
  H10      1.0000 0.44350  0.56010  0.52220  Biso   1.000  H
  O16      1.0000 0.47613  0.44390  0.65170  Biso   1.000  O
  O17      1.0000 0.41731  0.44460  0.71130  Biso   1.000  O
  C26      1.0000 0.43272  0.47670  0.65505  Biso   1.000  C
  C27      1.0000 0.39655  0.55920  0.58658  Biso   1.000  C
  N4       1.0000 0.26632  0.72260  0.52749  Biso   1.000  N
  C28      1.0000 0.34803  0.60340  0.58648  Biso   1.000  C
  H11      1.0000 0.33770  0.58260  0.62940  Biso   1.000  H
  O18      1.0000 0.43769  0.64760  0.39178  Biso   1.000  O
  C29      1.0000 0.37755  0.66550  0.45716  Biso   1.000  C
  C30      1.0000 0.31516  0.67920  0.52116  Biso   1.000  C
  O19      1.0000 0.47170  0.90520  0.28134  Biso   1.000  O
  C31      1.0000 0.32938  0.71110  0.45701  Biso   1.000  C
  H12      1.0000 0.30690  0.76270  0.41400  Biso   1.000  H
  O20      1.0000 0.36474  0.76550  0.33011  Biso   1.000  O
  C32      1.0000 0.39333  0.69700  0.38712  Biso   1.000  C
  Zn5      1.0000 0.95902  0.82681  0.80285  Biso   1.000  Zn
  C33      1.0000 0.91108  0.91000  0.02215  Biso   1.000  C
  H13      1.0000 0.94350  0.93990  0.02220  Biso   1.000  H
  O21      1.0000 0.97613  0.05610  0.15170  Biso   1.000  O
  O22      1.0000 0.91731  0.05540  0.21130  Biso   1.000  O
  C34      1.0000 0.93272  0.02330  0.15505  Biso   1.000  C
  C35      1.0000 0.89655  0.94080  0.08658  Biso   1.000  C
  N5       1.0000 0.76632  0.77740  0.02749  Biso   1.000  N
  C36      1.0000 0.84803  0.89660  0.08648  Biso   1.000  C
  H14      1.0000 0.83770  0.91740  0.12940  Biso   1.000  H
  O23      1.0000 0.93769  0.85240  0.89178  Biso   1.000  O
  C37      1.0000 0.87755  0.83450  0.95716  Biso   1.000  C
  C38      1.0000 0.81516  0.82080  0.02116  Biso   1.000  C
  O24      1.0000 0.97170  0.59480  0.78134  Biso   1.000  O
  C39      1.0000 0.82938  0.78890  0.95701  Biso   1.000  C
  H15      1.0000 0.80690  0.73730  0.91400  Biso   1.000  H
  O25      1.0000 0.86474  0.73450  0.83011  Biso   1.000  O
  C40      1.0000 0.89333  0.80300  0.88712  Biso   1.000  C
  Zn6      1.0000 0.45902  0.32681  0.80285  Biso   1.000  Zn
  C41      1.0000 0.41108  0.41000  0.02215  Biso   1.000  C
  H16      1.0000 0.44350  0.43990  0.02220  Biso   1.000  H
  O26      1.0000 0.47613  0.55610  0.15170  Biso   1.000  O
  O27      1.0000 0.41731  0.55540  0.21130  Biso   1.000  O
  C42      1.0000 0.43272  0.52330  0.15505  Biso   1.000  C
  C43      1.0000 0.39655  0.44080  0.08658  Biso   1.000  C
  N6       1.0000 0.26632  0.27740  0.02749  Biso   1.000  N
  C44      1.0000 0.34803  0.39660  0.08648  Biso   1.000  C
  H17      1.0000 0.33770  0.41740  0.12940  Biso   1.000  H
  O28      1.0000 0.43769  0.35240  0.89178  Biso   1.000  O
  C45      1.0000 0.37755  0.33450  0.95716  Biso   1.000  C
  C46      1.0000 0.31516  0.32080  0.02116  Biso   1.000  C
  O29      1.0000 0.47170  0.09480  0.78134  Biso   1.000  O
  C47      1.0000 0.32938  0.28890  0.95701  Biso   1.000  C
  H18      1.0000 0.30690  0.23730  0.91400  Biso   1.000  H
  O30      1.0000 0.36474  0.23450  0.83011  Biso   1.000  O
  C48      1.0000 0.39333  0.30300  0.88712  Biso   1.000  C
  Zn7      1.0000 0.04098  0.82681  0.69715  Biso   1.000  Zn
  C49      1.0000 0.08892  0.91000  0.47785  Biso   1.000  C
  H19      1.0000 0.05650  0.93990  0.47780  Biso   1.000  H
  O31      1.0000 0.02387  0.05610  0.34830  Biso   1.000  O
  O32      1.0000 0.08269  0.05540  0.28870  Biso   1.000  O
  C50      1.0000 0.06728  0.02330  0.34495  Biso   1.000  C
  C51      1.0000 0.10345  0.94080  0.41342  Biso   1.000  C
  N7       1.0000 0.23368  0.77740  0.47251  Biso   1.000  N
  C52      1.0000 0.15197  0.89660  0.41352  Biso   1.000  C
  H20      1.0000 0.16230  0.91740  0.37060  Biso   1.000  H
  O33      1.0000 0.06231  0.85240  0.60822  Biso   1.000  O
  C53      1.0000 0.12245  0.83450  0.54284  Biso   1.000  C
  C54      1.0000 0.18484  0.82080  0.47884  Biso   1.000  C
  O34      1.0000 0.02830  0.59480  0.71866  Biso   1.000  O
  C55      1.0000 0.17062  0.78890  0.54299  Biso   1.000  C
  H21      1.0000 0.19310  0.73730  0.58600  Biso   1.000  H
  O35      1.0000 0.13526  0.73450  0.66989  Biso   1.000  O
  C56      1.0000 0.10667  0.80300  0.61288  Biso   1.000  C
  Zn8      1.0000 0.54098  0.32681  0.69715  Biso   1.000  Zn
  C57      1.0000 0.58892  0.41000  0.47785  Biso   1.000  C
  H22      1.0000 0.55650  0.43990  0.47780  Biso   1.000  H
  O36      1.0000 0.52387  0.55610  0.34830  Biso   1.000  O
  O37      1.0000 0.58269  0.55540  0.28870  Biso   1.000  O
  C58      1.0000 0.56728  0.52330  0.34495  Biso   1.000  C
  C59      1.0000 0.60345  0.44080  0.41342  Biso   1.000  C
  N8       1.0000 0.73368  0.27740  0.47251  Biso   1.000  N
  C60      1.0000 0.65197  0.39660  0.41352  Biso   1.000  C
  H23      1.0000 0.66230  0.41740  0.37060  Biso   1.000  H
  O38      1.0000 0.56231  0.35240  0.60822  Biso   1.000  O
  C61      1.0000 0.62245  0.33450  0.54284  Biso   1.000  C
  C62      1.0000 0.68484  0.32080  0.47884  Biso   1.000  C
  O39      1.0000 0.52830  0.09480  0.71866  Biso   1.000  O
  C63      1.0000 0.67062  0.28890  0.54299  Biso   1.000  C
  H24      1.0000 0.69310  0.23730  0.58600  Biso   1.000  H
  O40      1.0000 0.63526  0.23450  0.66989  Biso   1.000  O
  C64      1.0000 0.60667  0.30300  0.61288  Biso   1.000  C
  N9       1.0000 0.00000  0.47490  0.25000  Biso   1.000  N
  O41      1.0000 0.00000  0.66630  0.25000  Biso   1.000  O
  N10      1.0000 0.50000  0.97490  0.25000  Biso   1.000  N
  O42      1.0000 0.50000  0.16630  0.25000  Biso   1.000  O
  N11      1.0000 0.00000  0.52510  0.75000  Biso   1.000  N
  O43      1.0000 0.00000  0.33370  0.75000  Biso   1.000  O
  N12      1.0000 0.50000  0.02510  0.75000  Biso   1.000  N
  O44      1.0000 0.50000  0.83370  0.75000  Biso   1.000  O
