data_VUSQIK_charged
_audit_creation_date              2014-07-02
_audit_creation_method            'Materials Studio'
_symmetry_space_group_name_H-M    'P1'
_symmetry_Int_Tables_number       1
_symmetry_cell_setting            triclinic
loop_
_symmetry_equiv_pos_as_xyz
  x,y,z
_cell_length_a                    19.0435
_cell_length_b                    21.6023
_cell_length_c                    22.2298
_cell_angle_alpha                 90.0000
_cell_angle_beta                  90.0000
_cell_angle_gamma                 90.0000
loop_
_atom_site_label
_atom_site_type_symbol
_atom_site_fract_x
_atom_site_fract_y
_atom_site_fract_z
_atom_site_U_iso_or_equiv
_atom_site_adp_type
_atom_site_occupancy
Ni1    Ni    0.75000   0.75000   0.90382   0.01267  Uiso   1.00
Ni2    Ni    0.25000   0.25000   0.59618   0.01267  Uiso   1.00
Ni3    Ni    0.25000   0.25000   0.09618   0.01267  Uiso   1.00
Ni4    Ni    0.75000   0.75000   0.40382   0.01267  Uiso   1.00
Sb1    Sb    0.96541   0.98867   0.03682   0.01267  Uiso   1.00
Sb2    Sb    0.53459   0.51133   0.03682   0.01267  Uiso   1.00
Sb3    Sb    0.03459   0.48867   0.46318   0.01267  Uiso   1.00
Sb4    Sb    0.46541   0.01133   0.46318   0.01267  Uiso   1.00
Sb5    Sb    0.03459   0.01133   0.96318   0.01267  Uiso   1.00
Sb6    Sb    0.46541   0.48867   0.96318   0.01267  Uiso   1.00
Sb7    Sb    0.96541   0.51133   0.53682   0.01267  Uiso   1.00
Sb8    Sb    0.53459   0.98867   0.53682   0.01267  Uiso   1.00
H1     H     0.30620   0.97760   0.81890   0.01267  Uiso   1.00
H2     H     0.48750   0.77660   0.87670   0.01267  Uiso   1.00
H3     H     0.59120   0.72890   0.89200   0.01267  Uiso   1.00
H4     H     0.69400   0.88490   0.88850   0.01267  Uiso   1.00
H5     H     0.59110   0.93430   0.86460   0.01267  Uiso   1.00
H6     H     0.49590   0.96150   0.80190   0.01267  Uiso   1.00
H7     H     0.40210   0.01580   0.77830   0.01267  Uiso   1.00
H8     H     0.28820   0.89410   0.87420   0.01267  Uiso   1.00
H9     H     0.39340   0.83860   0.90040   0.01267  Uiso   1.00
H10    H     0.79600   0.66930   0.30340   0.01267  Uiso   1.00
H11    H     0.80080   0.66790   0.19950   0.01267  Uiso   1.00
H12    H     0.84590   0.71710   0.00660   0.01267  Uiso   1.00
H13    H     0.84790   0.71480   0.10900   0.01267  Uiso   1.00
H14    H     0.19380   0.52240   0.81890   0.01267  Uiso   1.00
H15    H     0.01250   0.72340   0.87670   0.01267  Uiso   1.00
H16    H     0.90880   0.77110   0.89200   0.01267  Uiso   1.00
H17    H     0.80600   0.61510   0.88850   0.01267  Uiso   1.00
H18    H     0.90890   0.56570   0.86460   0.01267  Uiso   1.00
H19    H     0.00410   0.53850   0.80190   0.01267  Uiso   1.00
H20    H     0.09790   0.48420   0.77830   0.01267  Uiso   1.00
H21    H     0.21180   0.60590   0.87420   0.01267  Uiso   1.00
H22    H     0.10660   0.66140   0.90040   0.01267  Uiso   1.00
H23    H     0.70400   0.83070   0.30340   0.01267  Uiso   1.00
H24    H     0.69920   0.83210   0.19950   0.01267  Uiso   1.00
H25    H     0.65410   0.78290   0.00660   0.01267  Uiso   1.00
H26    H     0.65210   0.78520   0.10900   0.01267  Uiso   1.00
H27    H     0.69380   0.47760   0.68110   0.01267  Uiso   1.00
H28    H     0.51250   0.27660   0.62330   0.01267  Uiso   1.00
H29    H     0.40880   0.22890   0.60800   0.01267  Uiso   1.00
H30    H     0.30600   0.38490   0.61150   0.01267  Uiso   1.00
H31    H     0.40890   0.43430   0.63540   0.01267  Uiso   1.00
H32    H     0.50410   0.46150   0.69810   0.01267  Uiso   1.00
H33    H     0.59790   0.51580   0.72170   0.01267  Uiso   1.00
H34    H     0.71180   0.39410   0.62580   0.01267  Uiso   1.00
H35    H     0.60660   0.33860   0.59960   0.01267  Uiso   1.00
H36    H     0.20400   0.16930   0.19660   0.01267  Uiso   1.00
H37    H     0.19920   0.16790   0.30050   0.01267  Uiso   1.00
H38    H     0.15410   0.21710   0.49340   0.01267  Uiso   1.00
H39    H     0.15210   0.21480   0.39100   0.01267  Uiso   1.00
H40    H     0.80620   0.02240   0.68110   0.01267  Uiso   1.00
H41    H     0.98750   0.22340   0.62330   0.01267  Uiso   1.00
H42    H     0.09120   0.27110   0.60800   0.01267  Uiso   1.00
H43    H     0.19400   0.11510   0.61150   0.01267  Uiso   1.00
H44    H     0.09110   0.06570   0.63540   0.01267  Uiso   1.00
H45    H     0.99590   0.03850   0.69810   0.01267  Uiso   1.00
H46    H     0.90210   0.98420   0.72170   0.01267  Uiso   1.00
H47    H     0.78820   0.10590   0.62580   0.01267  Uiso   1.00
H48    H     0.89340   0.16140   0.59960   0.01267  Uiso   1.00
H49    H     0.29600   0.33070   0.19660   0.01267  Uiso   1.00
H50    H     0.30080   0.33210   0.30050   0.01267  Uiso   1.00
H51    H     0.34590   0.28290   0.49340   0.01267  Uiso   1.00
H52    H     0.34790   0.28520   0.39100   0.01267  Uiso   1.00
H53    H     0.69380   0.02240   0.18110   0.01267  Uiso   1.00
H54    H     0.51250   0.22340   0.12330   0.01267  Uiso   1.00
H55    H     0.40880   0.27110   0.10800   0.01267  Uiso   1.00
H56    H     0.30600   0.11510   0.11150   0.01267  Uiso   1.00
H57    H     0.40890   0.06570   0.13540   0.01267  Uiso   1.00
H58    H     0.50410   0.03850   0.19810   0.01267  Uiso   1.00
H59    H     0.59790   0.98420   0.22170   0.01267  Uiso   1.00
H60    H     0.71180   0.10590   0.12580   0.01267  Uiso   1.00
H61    H     0.60660   0.16140   0.09960   0.01267  Uiso   1.00
H62    H     0.20400   0.33070   0.69660   0.01267  Uiso   1.00
H63    H     0.19920   0.33210   0.80050   0.01267  Uiso   1.00
H64    H     0.15410   0.28290   0.99340   0.01267  Uiso   1.00
H65    H     0.15210   0.28520   0.89100   0.01267  Uiso   1.00
H66    H     0.80620   0.47760   0.18110   0.01267  Uiso   1.00
H67    H     0.98750   0.27660   0.12330   0.01267  Uiso   1.00
H68    H     0.09120   0.22890   0.10800   0.01267  Uiso   1.00
H69    H     0.19400   0.38490   0.11150   0.01267  Uiso   1.00
H70    H     0.09110   0.43430   0.13540   0.01267  Uiso   1.00
H71    H     0.99590   0.46150   0.19810   0.01267  Uiso   1.00
H72    H     0.90210   0.51580   0.22170   0.01267  Uiso   1.00
H73    H     0.78820   0.39410   0.12580   0.01267  Uiso   1.00
H74    H     0.89340   0.33860   0.09960   0.01267  Uiso   1.00
H75    H     0.29600   0.16930   0.69660   0.01267  Uiso   1.00
H76    H     0.30080   0.16790   0.80050   0.01267  Uiso   1.00
H77    H     0.34590   0.21710   0.99340   0.01267  Uiso   1.00
H78    H     0.34790   0.21480   0.89100   0.01267  Uiso   1.00
H79    H     0.30620   0.52240   0.31890   0.01267  Uiso   1.00
H80    H     0.48750   0.72340   0.37670   0.01267  Uiso   1.00
H81    H     0.59120   0.77110   0.39200   0.01267  Uiso   1.00
H82    H     0.69400   0.61510   0.38850   0.01267  Uiso   1.00
H83    H     0.59110   0.56570   0.36460   0.01267  Uiso   1.00
H84    H     0.49590   0.53850   0.30190   0.01267  Uiso   1.00
H85    H     0.40210   0.48420   0.27830   0.01267  Uiso   1.00
H86    H     0.28820   0.60590   0.37420   0.01267  Uiso   1.00
H87    H     0.39340   0.66140   0.40040   0.01267  Uiso   1.00
H88    H     0.79600   0.83070   0.80340   0.01267  Uiso   1.00
H89    H     0.80080   0.83210   0.69950   0.01267  Uiso   1.00
H90    H     0.84590   0.78290   0.50660   0.01267  Uiso   1.00
H91    H     0.84790   0.78520   0.60900   0.01267  Uiso   1.00
H92    H     0.19380   0.97760   0.31890   0.01267  Uiso   1.00
H93    H     0.01250   0.77660   0.37670   0.01267  Uiso   1.00
H94    H     0.90880   0.72890   0.39200   0.01267  Uiso   1.00
H95    H     0.80600   0.88490   0.38850   0.01267  Uiso   1.00
H96    H     0.90890   0.93430   0.36460   0.01267  Uiso   1.00
H97    H     0.00410   0.96150   0.30190   0.01267  Uiso   1.00
H98    H     0.09790   0.01580   0.27830   0.01267  Uiso   1.00
H99    H     0.21180   0.89410   0.37420   0.01267  Uiso   1.00
H100   H     0.10660   0.83860   0.40040   0.01267  Uiso   1.00
H101   H     0.70400   0.66930   0.80340   0.01267  Uiso   1.00
H102   H     0.69920   0.66790   0.69950   0.01267  Uiso   1.00
H103   H     0.65410   0.71710   0.50660   0.01267  Uiso   1.00
H104   H     0.65210   0.71480   0.60900   0.01267  Uiso   1.00
W1     W     0.83929   0.89242   0.96076   0.01267  Uiso   1.00
W2     W     0.77078   0.93587   0.09133   0.01267  Uiso   1.00
W3     W     0.79651   0.03880   0.98152   0.01267  Uiso   1.00
W4     W     0.90280   0.13685   0.08680   0.01267  Uiso   1.00
W5     W     0.92135   0.86920   0.17444   0.01267  Uiso   1.00
W6     W     0.99082   0.82228   0.04459   0.01267  Uiso   1.00
W7     W     0.96493   0.92410   0.83944   0.01267  Uiso   1.00
W8     W     0.08449   0.90946   0.13702   0.01267  Uiso   1.00
W9     W     0.87383   0.03361   0.19589   0.01267  Uiso   1.00
W10    W     0.66071   0.60758   0.96076   0.01267  Uiso   1.00
W11    W     0.72922   0.56413   0.09133   0.01267  Uiso   1.00
W12    W     0.70349   0.46120   0.98152   0.01267  Uiso   1.00
W13    W     0.59720   0.36315   0.08680   0.01267  Uiso   1.00
W14    W     0.57865   0.63080   0.17444   0.01267  Uiso   1.00
W15    W     0.50918   0.67772   0.04459   0.01267  Uiso   1.00
W16    W     0.53507   0.57590   0.83944   0.01267  Uiso   1.00
W17    W     0.41551   0.59054   0.13702   0.01267  Uiso   1.00
W18    W     0.62617   0.46639   0.19589   0.01267  Uiso   1.00
W19    W     0.16071   0.39242   0.53924   0.01267  Uiso   1.00
W20    W     0.22922   0.43587   0.40867   0.01267  Uiso   1.00
W21    W     0.20349   0.53880   0.51848   0.01267  Uiso   1.00
W22    W     0.09720   0.63685   0.41320   0.01267  Uiso   1.00
W23    W     0.07865   0.36920   0.32556   0.01267  Uiso   1.00
W24    W     0.00918   0.32228   0.45541   0.01267  Uiso   1.00
W25    W     0.03507   0.42410   0.66056   0.01267  Uiso   1.00
W26    W     0.91551   0.40946   0.36298   0.01267  Uiso   1.00
W27    W     0.12617   0.53361   0.30411   0.01267  Uiso   1.00
W28    W     0.33929   0.10758   0.53924   0.01267  Uiso   1.00
W29    W     0.27078   0.06413   0.40867   0.01267  Uiso   1.00
W30    W     0.29651   0.96120   0.51848   0.01267  Uiso   1.00
W31    W     0.40280   0.86315   0.41320   0.01267  Uiso   1.00
W32    W     0.42135   0.13080   0.32556   0.01267  Uiso   1.00
W33    W     0.49082   0.17772   0.45541   0.01267  Uiso   1.00
W34    W     0.46493   0.07590   0.66056   0.01267  Uiso   1.00
W35    W     0.58449   0.09054   0.36298   0.01267  Uiso   1.00
W36    W     0.37383   0.96639   0.30411   0.01267  Uiso   1.00
W37    W     0.16071   0.10758   0.03924   0.01267  Uiso   1.00
W38    W     0.22922   0.06413   0.90867   0.01267  Uiso   1.00
W39    W     0.20349   0.96120   0.01848   0.01267  Uiso   1.00
W40    W     0.09720   0.86315   0.91320   0.01267  Uiso   1.00
W41    W     0.07865   0.13080   0.82556   0.01267  Uiso   1.00
W42    W     0.00918   0.17772   0.95541   0.01267  Uiso   1.00
W43    W     0.03507   0.07590   0.16056   0.01267  Uiso   1.00
W44    W     0.91551   0.09054   0.86298   0.01267  Uiso   1.00
W45    W     0.12617   0.96639   0.80411   0.01267  Uiso   1.00
W46    W     0.33929   0.39242   0.03924   0.01267  Uiso   1.00
W47    W     0.27078   0.43587   0.90867   0.01267  Uiso   1.00
W48    W     0.29651   0.53880   0.01848   0.01267  Uiso   1.00
W49    W     0.40280   0.63685   0.91320   0.01267  Uiso   1.00
W50    W     0.42135   0.36920   0.82556   0.01267  Uiso   1.00
W51    W     0.49082   0.32228   0.95541   0.01267  Uiso   1.00
W52    W     0.46493   0.42410   0.16056   0.01267  Uiso   1.00
W53    W     0.58449   0.40946   0.86298   0.01267  Uiso   1.00
W54    W     0.37383   0.53361   0.80411   0.01267  Uiso   1.00
W55    W     0.83929   0.60758   0.46076   0.01267  Uiso   1.00
W56    W     0.77078   0.56413   0.59133   0.01267  Uiso   1.00
W57    W     0.79651   0.46120   0.48152   0.01267  Uiso   1.00
W58    W     0.90280   0.36315   0.58680   0.01267  Uiso   1.00
W59    W     0.92135   0.63080   0.67444   0.01267  Uiso   1.00
W60    W     0.99082   0.67772   0.54459   0.01267  Uiso   1.00
W61    W     0.96493   0.57590   0.33944   0.01267  Uiso   1.00
W62    W     0.08449   0.59054   0.63702   0.01267  Uiso   1.00
W63    W     0.87383   0.46639   0.69589   0.01267  Uiso   1.00
W64    W     0.66071   0.89242   0.46076   0.01267  Uiso   1.00
W65    W     0.72922   0.93587   0.59133   0.01267  Uiso   1.00
W66    W     0.70349   0.03880   0.48152   0.01267  Uiso   1.00
W67    W     0.59720   0.13685   0.58680   0.01267  Uiso   1.00
W68    W     0.57865   0.86920   0.67444   0.01267  Uiso   1.00
W69    W     0.50918   0.82228   0.54459   0.01267  Uiso   1.00
W70    W     0.53507   0.92410   0.33944   0.01267  Uiso   1.00
W71    W     0.41551   0.90946   0.63702   0.01267  Uiso   1.00
W72    W     0.62617   0.03361   0.69589   0.01267  Uiso   1.00
C1     C     0.52910   0.86510   0.86890   0.01267  Uiso   1.00
C2     C     0.52890   0.79930   0.87810   0.01267  Uiso   1.00
C3     C     0.59120   0.77180   0.88900   0.01267  Uiso   1.00
C4     C     0.65230   0.86250   0.88590   0.01267  Uiso   1.00
C5     C     0.58950   0.89200   0.87210   0.01267  Uiso   1.00
C6     C     0.45920   0.89470   0.85330   0.01267  Uiso   1.00
C7     C     0.45300   0.94770   0.81760   0.01267  Uiso   1.00
C8     C     0.40100   0.98100   0.80250   0.01267  Uiso   1.00
C9     C     0.33250   0.90600   0.86100   0.01267  Uiso   1.00
C10    C     0.39520   0.87400   0.87600   0.01267  Uiso   1.00
C11    C     0.77760   0.70250   0.28190   0.01267  Uiso   1.00
C12    C     0.78000   0.70080   0.21970   0.01267  Uiso   1.00
C13    C     0.80650   0.73040   0.02760   0.01267  Uiso   1.00
C14    C     0.80830   0.72920   0.08890   0.01267  Uiso   1.00
C15    C     0.97090   0.63490   0.86890   0.01267  Uiso   1.00
C16    C     0.97110   0.70070   0.87810   0.01267  Uiso   1.00
C17    C     0.90880   0.72820   0.88900   0.01267  Uiso   1.00
C18    C     0.84770   0.63750   0.88590   0.01267  Uiso   1.00
C19    C     0.91050   0.60800   0.87210   0.01267  Uiso   1.00
C20    C     0.04080   0.60530   0.85330   0.01267  Uiso   1.00
C21    C     0.04700   0.55230   0.81760   0.01267  Uiso   1.00
C22    C     0.09900   0.51900   0.80250   0.01267  Uiso   1.00
C23    C     0.16750   0.59400   0.86100   0.01267  Uiso   1.00
C24    C     0.10480   0.62600   0.87600   0.01267  Uiso   1.00
C25    C     0.72240   0.79750   0.28190   0.01267  Uiso   1.00
C26    C     0.72000   0.79920   0.21970   0.01267  Uiso   1.00
C27    C     0.69350   0.76960   0.02760   0.01267  Uiso   1.00
C28    C     0.69170   0.77080   0.08890   0.01267  Uiso   1.00
C29    C     0.47090   0.36510   0.63110   0.01267  Uiso   1.00
C30    C     0.47110   0.29930   0.62190   0.01267  Uiso   1.00
C31    C     0.40880   0.27180   0.61100   0.01267  Uiso   1.00
C32    C     0.34770   0.36250   0.61410   0.01267  Uiso   1.00
C33    C     0.41050   0.39200   0.62790   0.01267  Uiso   1.00
C34    C     0.54080   0.39470   0.64670   0.01267  Uiso   1.00
C35    C     0.54700   0.44770   0.68240   0.01267  Uiso   1.00
C36    C     0.59900   0.48100   0.69750   0.01267  Uiso   1.00
C37    C     0.66750   0.40600   0.63900   0.01267  Uiso   1.00
C38    C     0.60480   0.37400   0.62400   0.01267  Uiso   1.00
C39    C     0.22240   0.20250   0.21810   0.01267  Uiso   1.00
C40    C     0.22000   0.20080   0.28030   0.01267  Uiso   1.00
C41    C     0.19350   0.23040   0.47240   0.01267  Uiso   1.00
C42    C     0.19170   0.22920   0.41110   0.01267  Uiso   1.00
C43    C     0.02910   0.13490   0.63110   0.01267  Uiso   1.00
C44    C     0.02890   0.20070   0.62190   0.01267  Uiso   1.00
C45    C     0.09120   0.22820   0.61100   0.01267  Uiso   1.00
C46    C     0.15230   0.13750   0.61410   0.01267  Uiso   1.00
C47    C     0.08950   0.10800   0.62790   0.01267  Uiso   1.00
C48    C     0.95920   0.10530   0.64670   0.01267  Uiso   1.00
C49    C     0.95300   0.05230   0.68240   0.01267  Uiso   1.00
C50    C     0.90100   0.01900   0.69750   0.01267  Uiso   1.00
C51    C     0.83250   0.09400   0.63900   0.01267  Uiso   1.00
C52    C     0.89520   0.12600   0.62400   0.01267  Uiso   1.00
C53    C     0.27760   0.29750   0.21810   0.01267  Uiso   1.00
C54    C     0.28000   0.29920   0.28030   0.01267  Uiso   1.00
C55    C     0.30650   0.26960   0.47240   0.01267  Uiso   1.00
C56    C     0.30830   0.27080   0.41110   0.01267  Uiso   1.00
C57    C     0.47090   0.13490   0.13110   0.01267  Uiso   1.00
C58    C     0.47110   0.20070   0.12190   0.01267  Uiso   1.00
C59    C     0.40880   0.22820   0.11100   0.01267  Uiso   1.00
C60    C     0.34770   0.13750   0.11410   0.01267  Uiso   1.00
C61    C     0.41050   0.10800   0.12790   0.01267  Uiso   1.00
C62    C     0.54080   0.10530   0.14670   0.01267  Uiso   1.00
C63    C     0.54700   0.05230   0.18240   0.01267  Uiso   1.00
C64    C     0.59900   0.01900   0.19750   0.01267  Uiso   1.00
C65    C     0.66750   0.09400   0.13900   0.01267  Uiso   1.00
C66    C     0.60480   0.12600   0.12400   0.01267  Uiso   1.00
C67    C     0.22240   0.29750   0.71810   0.01267  Uiso   1.00
C68    C     0.22000   0.29920   0.78030   0.01267  Uiso   1.00
C69    C     0.19350   0.26960   0.97240   0.01267  Uiso   1.00
C70    C     0.19170   0.27080   0.91110   0.01267  Uiso   1.00
C71    C     0.02910   0.36510   0.13110   0.01267  Uiso   1.00
C72    C     0.02890   0.29930   0.12190   0.01267  Uiso   1.00
C73    C     0.09120   0.27180   0.11100   0.01267  Uiso   1.00
C74    C     0.15230   0.36250   0.11410   0.01267  Uiso   1.00
C75    C     0.08950   0.39200   0.12790   0.01267  Uiso   1.00
C76    C     0.95920   0.39470   0.14670   0.01267  Uiso   1.00
C77    C     0.95300   0.44770   0.18240   0.01267  Uiso   1.00
C78    C     0.90100   0.48100   0.19750   0.01267  Uiso   1.00
C79    C     0.83250   0.40600   0.13900   0.01267  Uiso   1.00
C80    C     0.89520   0.37400   0.12400   0.01267  Uiso   1.00
C81    C     0.27760   0.20250   0.71810   0.01267  Uiso   1.00
C82    C     0.28000   0.20080   0.78030   0.01267  Uiso   1.00
C83    C     0.30650   0.23040   0.97240   0.01267  Uiso   1.00
C84    C     0.30830   0.22920   0.91110   0.01267  Uiso   1.00
C85    C     0.52910   0.63490   0.36890   0.01267  Uiso   1.00
C86    C     0.52890   0.70070   0.37810   0.01267  Uiso   1.00
C87    C     0.59120   0.72820   0.38900   0.01267  Uiso   1.00
C88    C     0.65230   0.63750   0.38590   0.01267  Uiso   1.00
C89    C     0.58950   0.60800   0.37210   0.01267  Uiso   1.00
C90    C     0.45920   0.60530   0.35330   0.01267  Uiso   1.00
C91    C     0.45300   0.55230   0.31760   0.01267  Uiso   1.00
C92    C     0.40100   0.51900   0.30250   0.01267  Uiso   1.00
C93    C     0.33250   0.59400   0.36100   0.01267  Uiso   1.00
C94    C     0.39520   0.62600   0.37600   0.01267  Uiso   1.00
C95    C     0.77760   0.79750   0.78190   0.01267  Uiso   1.00
C96    C     0.78000   0.79920   0.71970   0.01267  Uiso   1.00
C97    C     0.80650   0.76960   0.52760   0.01267  Uiso   1.00
C98    C     0.80830   0.77080   0.58890   0.01267  Uiso   1.00
C99    C     0.97090   0.86510   0.36890   0.01267  Uiso   1.00
C100   C     0.97110   0.79930   0.37810   0.01267  Uiso   1.00
C101   C     0.90880   0.77180   0.38900   0.01267  Uiso   1.00
C102   C     0.84770   0.86250   0.38590   0.01267  Uiso   1.00
C103   C     0.91050   0.89200   0.37210   0.01267  Uiso   1.00
C104   C     0.04080   0.89470   0.35330   0.01267  Uiso   1.00
C105   C     0.04700   0.94770   0.31760   0.01267  Uiso   1.00
C106   C     0.09900   0.98100   0.30250   0.01267  Uiso   1.00
C107   C     0.16750   0.90600   0.36100   0.01267  Uiso   1.00
C108   C     0.10480   0.87400   0.37600   0.01267  Uiso   1.00
C109   C     0.72240   0.70250   0.78190   0.01267  Uiso   1.00
C110   C     0.72000   0.70080   0.71970   0.01267  Uiso   1.00
C111   C     0.69350   0.73040   0.52760   0.01267  Uiso   1.00
C112   C     0.69170   0.72920   0.58890   0.01267  Uiso   1.00
C113   C     0.75000   0.75000   0.18850   0.01267  Uiso   1.00
C114   C     0.75000   0.75000   0.12110   0.01267  Uiso   1.00
C115   C     0.25000   0.25000   0.31150   0.01267  Uiso   1.00
C116   C     0.25000   0.25000   0.37890   0.01267  Uiso   1.00
C117   C     0.25000   0.25000   0.81150   0.01267  Uiso   1.00
C118   C     0.25000   0.25000   0.87890   0.01267  Uiso   1.00
C119   C     0.75000   0.75000   0.68850   0.01267  Uiso   1.00
C120   C     0.75000   0.75000   0.62110   0.01267  Uiso   1.00
N1     N     0.65170   0.80000   0.89560   0.01267  Uiso   1.00
N2     N     0.34400   0.95690   0.82660   0.01267  Uiso   1.00
N3     N     0.84830   0.70000   0.89560   0.01267  Uiso   1.00
N4     N     0.15600   0.54310   0.82660   0.01267  Uiso   1.00
N5     N     0.34830   0.30000   0.60440   0.01267  Uiso   1.00
N6     N     0.65600   0.45690   0.67340   0.01267  Uiso   1.00
N7     N     0.15170   0.20000   0.60440   0.01267  Uiso   1.00
N8     N     0.84400   0.04310   0.67340   0.01267  Uiso   1.00
N9     N     0.34830   0.20000   0.10440   0.01267  Uiso   1.00
N10    N     0.65600   0.04310   0.17340   0.01267  Uiso   1.00
N11    N     0.15170   0.30000   0.10440   0.01267  Uiso   1.00
N12    N     0.84400   0.45690   0.17340   0.01267  Uiso   1.00
N13    N     0.65170   0.70000   0.39560   0.01267  Uiso   1.00
N14    N     0.34400   0.54310   0.32660   0.01267  Uiso   1.00
N15    N     0.84830   0.80000   0.39560   0.01267  Uiso   1.00
N16    N     0.15600   0.95690   0.32660   0.01267  Uiso   1.00
N17    N     0.75000   0.75000   0.99550   0.01267  Uiso   1.00
N18    N     0.75000   0.75000   0.31230   0.01267  Uiso   1.00
N19    N     0.25000   0.25000   0.50450   0.01267  Uiso   1.00
N20    N     0.25000   0.25000   0.18770   0.01267  Uiso   1.00
N21    N     0.25000   0.25000   0.00450   0.01267  Uiso   1.00
N22    N     0.25000   0.25000   0.68770   0.01267  Uiso   1.00
N23    N     0.75000   0.75000   0.49550   0.01267  Uiso   1.00
N24    N     0.75000   0.75000   0.81230   0.01267  Uiso   1.00
O1     O     0.83580   0.88510   0.13060   0.01267  Uiso   1.00
O2     O     0.86350   0.96680   0.02710   0.01267  Uiso   1.00
O3     O     0.80430   0.83620   0.91240   0.01267  Uiso   1.00
O4     O     0.83200   0.09570   0.03890   0.01267  Uiso   1.00
O5     O     0.73670   0.00010   0.04180   0.01267  Uiso   1.00
O6     O     0.97900   0.91550   0.09230   0.01267  Uiso   1.00
O7     O     0.01380   0.85250   0.86450   0.01267  Uiso   1.00
O8     O     0.78540   0.96150   0.93510   0.01267  Uiso   1.00
O9     O     0.80270   0.99910   0.14610   0.01267  Uiso   1.00
O10    O     0.07450   0.83170   0.09240   0.01267  Uiso   1.00
O11    O     0.85290   0.10990   0.16040   0.01267  Uiso   1.00
O12    O     0.91580   0.92170   0.91520   0.01267  Uiso   1.00
O13    O     0.69220   0.91720   0.12420   0.01267  Uiso   1.00
O14    O     0.03610   0.93940   0.77950   0.01267  Uiso   1.00
O15    O     0.76850   0.88320   0.02310   0.01267  Uiso   1.00
O16    O     0.94250   0.04030   0.10970   0.01267  Uiso   1.00
O17    O     0.90420   0.84420   0.00630   0.01267  Uiso   1.00
O18    O     0.87960   0.05430   0.93380   0.01267  Uiso   1.00
O19    O     0.90500   0.89110   0.79240   0.01267  Uiso   1.00
O20    O     0.01720   0.87520   0.19580   0.01267  Uiso   1.00
O21    O     0.00260   0.74860   0.02150   0.01267  Uiso   1.00
O22    O     0.94280   0.80430   0.11850   0.01267  Uiso   1.00
O23    O     0.15940   0.89300   0.17580   0.01267  Uiso   1.00
O24    O     0.03690   0.86650   0.98260   0.01267  Uiso   1.00
O25    O     0.87490   0.21210   0.08500   0.01267  Uiso   1.00
O26    O     0.90810   0.95190   0.20220   0.01267  Uiso   1.00
O27    O     0.93530   0.00970   0.83480   0.01267  Uiso   1.00
O28    O     0.73570   0.08370   0.94510   0.01267  Uiso   1.00
O29    O     0.89320   0.82610   0.23190   0.01267  Uiso   1.00
O30    O     0.82980   0.04350   0.26170   0.01267  Uiso   1.00
O31    O     0.66420   0.61490   0.13060   0.01267  Uiso   1.00
O32    O     0.63650   0.53320   0.02710   0.01267  Uiso   1.00
O33    O     0.69570   0.66380   0.91240   0.01267  Uiso   1.00
O34    O     0.66800   0.40430   0.03890   0.01267  Uiso   1.00
O35    O     0.76330   0.49990   0.04180   0.01267  Uiso   1.00
O36    O     0.52100   0.58450   0.09230   0.01267  Uiso   1.00
O37    O     0.48620   0.64750   0.86450   0.01267  Uiso   1.00
O38    O     0.71460   0.53850   0.93510   0.01267  Uiso   1.00
O39    O     0.69730   0.50090   0.14610   0.01267  Uiso   1.00
O40    O     0.42550   0.66830   0.09240   0.01267  Uiso   1.00
O41    O     0.64710   0.39010   0.16040   0.01267  Uiso   1.00
O42    O     0.58420   0.57830   0.91520   0.01267  Uiso   1.00
O43    O     0.80780   0.58280   0.12420   0.01267  Uiso   1.00
O44    O     0.46390   0.56060   0.77950   0.01267  Uiso   1.00
O45    O     0.73150   0.61680   0.02310   0.01267  Uiso   1.00
O46    O     0.55750   0.45970   0.10970   0.01267  Uiso   1.00
O47    O     0.59580   0.65580   0.00630   0.01267  Uiso   1.00
O48    O     0.62040   0.44570   0.93380   0.01267  Uiso   1.00
O49    O     0.59500   0.60890   0.79240   0.01267  Uiso   1.00
O50    O     0.48280   0.62480   0.19580   0.01267  Uiso   1.00
O51    O     0.49740   0.75140   0.02150   0.01267  Uiso   1.00
O52    O     0.55720   0.69570   0.11850   0.01267  Uiso   1.00
O53    O     0.34060   0.60700   0.17580   0.01267  Uiso   1.00
O54    O     0.46310   0.63350   0.98260   0.01267  Uiso   1.00
O55    O     0.62510   0.28790   0.08500   0.01267  Uiso   1.00
O56    O     0.59190   0.54810   0.20220   0.01267  Uiso   1.00
O57    O     0.56470   0.49030   0.83480   0.01267  Uiso   1.00
O58    O     0.76430   0.41630   0.94510   0.01267  Uiso   1.00
O59    O     0.60680   0.67390   0.23190   0.01267  Uiso   1.00
O60    O     0.67020   0.45650   0.26170   0.01267  Uiso   1.00
O61    O     0.16420   0.38510   0.36940   0.01267  Uiso   1.00
O62    O     0.13650   0.46680   0.47290   0.01267  Uiso   1.00
O63    O     0.19570   0.33620   0.58760   0.01267  Uiso   1.00
O64    O     0.16800   0.59570   0.46110   0.01267  Uiso   1.00
O65    O     0.26330   0.50010   0.45820   0.01267  Uiso   1.00
O66    O     0.02100   0.41550   0.40770   0.01267  Uiso   1.00
O67    O     0.98620   0.35250   0.63550   0.01267  Uiso   1.00
O68    O     0.21460   0.46150   0.56490   0.01267  Uiso   1.00
O69    O     0.19730   0.49910   0.35390   0.01267  Uiso   1.00
O70    O     0.92550   0.33170   0.40760   0.01267  Uiso   1.00
O71    O     0.14710   0.60990   0.33960   0.01267  Uiso   1.00
O72    O     0.08420   0.42170   0.58480   0.01267  Uiso   1.00
O73    O     0.30780   0.41720   0.37580   0.01267  Uiso   1.00
O74    O     0.96390   0.43940   0.72050   0.01267  Uiso   1.00
O75    O     0.23150   0.38320   0.47690   0.01267  Uiso   1.00
O76    O     0.05750   0.54030   0.39030   0.01267  Uiso   1.00
O77    O     0.09580   0.34420   0.49370   0.01267  Uiso   1.00
O78    O     0.12040   0.55430   0.56620   0.01267  Uiso   1.00
O79    O     0.09500   0.39110   0.70760   0.01267  Uiso   1.00
O80    O     0.98280   0.37520   0.30420   0.01267  Uiso   1.00
O81    O     0.99740   0.24860   0.47850   0.01267  Uiso   1.00
O82    O     0.05720   0.30430   0.38150   0.01267  Uiso   1.00
O83    O     0.84060   0.39300   0.32420   0.01267  Uiso   1.00
O84    O     0.96310   0.36650   0.51740   0.01267  Uiso   1.00
O85    O     0.12510   0.71210   0.41500   0.01267  Uiso   1.00
O86    O     0.09190   0.45190   0.29780   0.01267  Uiso   1.00
O87    O     0.06470   0.50970   0.66520   0.01267  Uiso   1.00
O88    O     0.26430   0.58370   0.55490   0.01267  Uiso   1.00
O89    O     0.10680   0.32610   0.26810   0.01267  Uiso   1.00
O90    O     0.17020   0.54350   0.23830   0.01267  Uiso   1.00
O91    O     0.33580   0.11490   0.36940   0.01267  Uiso   1.00
O92    O     0.36350   0.03320   0.47290   0.01267  Uiso   1.00
O93    O     0.30430   0.16380   0.58760   0.01267  Uiso   1.00
O94    O     0.33200   0.90430   0.46110   0.01267  Uiso   1.00
O95    O     0.23670   0.99990   0.45820   0.01267  Uiso   1.00
O96    O     0.47900   0.08450   0.40770   0.01267  Uiso   1.00
O97    O     0.51380   0.14750   0.63550   0.01267  Uiso   1.00
O98    O     0.28540   0.03850   0.56490   0.01267  Uiso   1.00
O99    O     0.30270   0.00090   0.35390   0.01267  Uiso   1.00
O100   O     0.57450   0.16830   0.40760   0.01267  Uiso   1.00
O101   O     0.35290   0.89010   0.33960   0.01267  Uiso   1.00
O102   O     0.41580   0.07830   0.58480   0.01267  Uiso   1.00
O103   O     0.19220   0.08280   0.37580   0.01267  Uiso   1.00
O104   O     0.53610   0.06060   0.72050   0.01267  Uiso   1.00
O105   O     0.26850   0.11680   0.47690   0.01267  Uiso   1.00
O106   O     0.44250   0.95970   0.39030   0.01267  Uiso   1.00
O107   O     0.40420   0.15580   0.49370   0.01267  Uiso   1.00
O108   O     0.37960   0.94570   0.56620   0.01267  Uiso   1.00
O109   O     0.40500   0.10890   0.70760   0.01267  Uiso   1.00
O110   O     0.51720   0.12480   0.30420   0.01267  Uiso   1.00
O111   O     0.50260   0.25140   0.47850   0.01267  Uiso   1.00
O112   O     0.44280   0.19570   0.38150   0.01267  Uiso   1.00
O113   O     0.65940   0.10700   0.32420   0.01267  Uiso   1.00
O114   O     0.53690   0.13350   0.51740   0.01267  Uiso   1.00
O115   O     0.37490   0.78790   0.41500   0.01267  Uiso   1.00
O116   O     0.40810   0.04810   0.29780   0.01267  Uiso   1.00
O117   O     0.43530   0.99030   0.66520   0.01267  Uiso   1.00
O118   O     0.23570   0.91630   0.55490   0.01267  Uiso   1.00
O119   O     0.39320   0.17390   0.26810   0.01267  Uiso   1.00
O120   O     0.32980   0.95650   0.23830   0.01267  Uiso   1.00
O121   O     0.16420   0.11490   0.86940   0.01267  Uiso   1.00
O122   O     0.13650   0.03320   0.97290   0.01267  Uiso   1.00
O123   O     0.19570   0.16380   0.08760   0.01267  Uiso   1.00
O124   O     0.16800   0.90430   0.96110   0.01267  Uiso   1.00
O125   O     0.26330   0.99990   0.95820   0.01267  Uiso   1.00
O126   O     0.02100   0.08450   0.90770   0.01267  Uiso   1.00
O127   O     0.98620   0.14750   0.13550   0.01267  Uiso   1.00
O128   O     0.21460   0.03850   0.06490   0.01267  Uiso   1.00
O129   O     0.19730   0.00090   0.85390   0.01267  Uiso   1.00
O130   O     0.92550   0.16830   0.90760   0.01267  Uiso   1.00
O131   O     0.14710   0.89010   0.83960   0.01267  Uiso   1.00
O132   O     0.08420   0.07830   0.08480   0.01267  Uiso   1.00
O133   O     0.30780   0.08280   0.87580   0.01267  Uiso   1.00
O134   O     0.96390   0.06060   0.22050   0.01267  Uiso   1.00
O135   O     0.23150   0.11680   0.97690   0.01267  Uiso   1.00
O136   O     0.05750   0.95970   0.89030   0.01267  Uiso   1.00
O137   O     0.09580   0.15580   0.99370   0.01267  Uiso   1.00
O138   O     0.12040   0.94570   0.06620   0.01267  Uiso   1.00
O139   O     0.09500   0.10890   0.20760   0.01267  Uiso   1.00
O140   O     0.98280   0.12480   0.80420   0.01267  Uiso   1.00
O141   O     0.99740   0.25140   0.97850   0.01267  Uiso   1.00
O142   O     0.05720   0.19570   0.88150   0.01267  Uiso   1.00
O143   O     0.84060   0.10700   0.82420   0.01267  Uiso   1.00
O144   O     0.96310   0.13350   0.01740   0.01267  Uiso   1.00
O145   O     0.12510   0.78790   0.91500   0.01267  Uiso   1.00
O146   O     0.09190   0.04810   0.79780   0.01267  Uiso   1.00
O147   O     0.06470   0.99030   0.16520   0.01267  Uiso   1.00
O148   O     0.26430   0.91630   0.05490   0.01267  Uiso   1.00
O149   O     0.10680   0.17390   0.76810   0.01267  Uiso   1.00
O150   O     0.17020   0.95650   0.73830   0.01267  Uiso   1.00
O151   O     0.33580   0.38510   0.86940   0.01267  Uiso   1.00
O152   O     0.36350   0.46680   0.97290   0.01267  Uiso   1.00
O153   O     0.30430   0.33620   0.08760   0.01267  Uiso   1.00
O154   O     0.33200   0.59570   0.96110   0.01267  Uiso   1.00
O155   O     0.23670   0.50010   0.95820   0.01267  Uiso   1.00
O156   O     0.47900   0.41550   0.90770   0.01267  Uiso   1.00
O157   O     0.51380   0.35250   0.13550   0.01267  Uiso   1.00
O158   O     0.28540   0.46150   0.06490   0.01267  Uiso   1.00
O159   O     0.30270   0.49910   0.85390   0.01267  Uiso   1.00
O160   O     0.57450   0.33170   0.90760   0.01267  Uiso   1.00
O161   O     0.35290   0.60990   0.83960   0.01267  Uiso   1.00
O162   O     0.41580   0.42170   0.08480   0.01267  Uiso   1.00
O163   O     0.19220   0.41720   0.87580   0.01267  Uiso   1.00
O164   O     0.53610   0.43940   0.22050   0.01267  Uiso   1.00
O165   O     0.26850   0.38320   0.97690   0.01267  Uiso   1.00
O166   O     0.44250   0.54030   0.89030   0.01267  Uiso   1.00
O167   O     0.40420   0.34420   0.99370   0.01267  Uiso   1.00
O168   O     0.37960   0.55430   0.06620   0.01267  Uiso   1.00
O169   O     0.40500   0.39110   0.20760   0.01267  Uiso   1.00
O170   O     0.51720   0.37520   0.80420   0.01267  Uiso   1.00
O171   O     0.50260   0.24860   0.97850   0.01267  Uiso   1.00
O172   O     0.44280   0.30430   0.88150   0.01267  Uiso   1.00
O173   O     0.65940   0.39300   0.82420   0.01267  Uiso   1.00
O174   O     0.53690   0.36650   0.01740   0.01267  Uiso   1.00
O175   O     0.37490   0.71210   0.91500   0.01267  Uiso   1.00
O176   O     0.40810   0.45190   0.79780   0.01267  Uiso   1.00
O177   O     0.43530   0.50970   0.16520   0.01267  Uiso   1.00
O178   O     0.23570   0.58370   0.05490   0.01267  Uiso   1.00
O179   O     0.39320   0.32610   0.76810   0.01267  Uiso   1.00
O180   O     0.32980   0.54350   0.73830   0.01267  Uiso   1.00
O181   O     0.83580   0.61490   0.63060   0.01267  Uiso   1.00
O182   O     0.86350   0.53320   0.52710   0.01267  Uiso   1.00
O183   O     0.80430   0.66380   0.41240   0.01267  Uiso   1.00
O184   O     0.83200   0.40430   0.53890   0.01267  Uiso   1.00
O185   O     0.73670   0.49990   0.54180   0.01267  Uiso   1.00
O186   O     0.97900   0.58450   0.59230   0.01267  Uiso   1.00
O187   O     0.01380   0.64750   0.36450   0.01267  Uiso   1.00
O188   O     0.78540   0.53850   0.43510   0.01267  Uiso   1.00
O189   O     0.80270   0.50090   0.64610   0.01267  Uiso   1.00
O190   O     0.07450   0.66830   0.59240   0.01267  Uiso   1.00
O191   O     0.85290   0.39010   0.66040   0.01267  Uiso   1.00
O192   O     0.91580   0.57830   0.41520   0.01267  Uiso   1.00
O193   O     0.69220   0.58280   0.62420   0.01267  Uiso   1.00
O194   O     0.03610   0.56060   0.27950   0.01267  Uiso   1.00
O195   O     0.76850   0.61680   0.52310   0.01267  Uiso   1.00
O196   O     0.94250   0.45970   0.60970   0.01267  Uiso   1.00
O197   O     0.90420   0.65580   0.50630   0.01267  Uiso   1.00
O198   O     0.87960   0.44570   0.43380   0.01267  Uiso   1.00
O199   O     0.90500   0.60890   0.29240   0.01267  Uiso   1.00
O200   O     0.01720   0.62480   0.69580   0.01267  Uiso   1.00
O201   O     0.00260   0.75140   0.52150   0.01267  Uiso   1.00
O202   O     0.94280   0.69570   0.61850   0.01267  Uiso   1.00
O203   O     0.15940   0.60700   0.67580   0.01267  Uiso   1.00
O204   O     0.03690   0.63350   0.48260   0.01267  Uiso   1.00
O205   O     0.87490   0.28790   0.58500   0.01267  Uiso   1.00
O206   O     0.90810   0.54810   0.70220   0.01267  Uiso   1.00
O207   O     0.93530   0.49030   0.33480   0.01267  Uiso   1.00
O208   O     0.73570   0.41630   0.44510   0.01267  Uiso   1.00
O209   O     0.89320   0.67390   0.73190   0.01267  Uiso   1.00
O210   O     0.82980   0.45650   0.76170   0.01267  Uiso   1.00
O211   O     0.66420   0.88510   0.63060   0.01267  Uiso   1.00
O212   O     0.63650   0.96680   0.52710   0.01267  Uiso   1.00
O213   O     0.69570   0.83620   0.41240   0.01267  Uiso   1.00
O214   O     0.66800   0.09570   0.53890   0.01267  Uiso   1.00
O215   O     0.76330   0.00010   0.54180   0.01267  Uiso   1.00
O216   O     0.52100   0.91550   0.59230   0.01267  Uiso   1.00
O217   O     0.48620   0.85250   0.36450   0.01267  Uiso   1.00
O218   O     0.71460   0.96150   0.43510   0.01267  Uiso   1.00
O219   O     0.69730   0.99910   0.64610   0.01267  Uiso   1.00
O220   O     0.42550   0.83170   0.59240   0.01267  Uiso   1.00
O221   O     0.64710   0.10990   0.66040   0.01267  Uiso   1.00
O222   O     0.58420   0.92170   0.41520   0.01267  Uiso   1.00
O223   O     0.80780   0.91720   0.62420   0.01267  Uiso   1.00
O224   O     0.46390   0.93940   0.27950   0.01267  Uiso   1.00
O225   O     0.73150   0.88320   0.52310   0.01267  Uiso   1.00
O226   O     0.55750   0.04030   0.60970   0.01267  Uiso   1.00
O227   O     0.59580   0.84420   0.50630   0.01267  Uiso   1.00
O228   O     0.62040   0.05430   0.43380   0.01267  Uiso   1.00
O229   O     0.59500   0.89110   0.29240   0.01267  Uiso   1.00
O230   O     0.48280   0.87520   0.69580   0.01267  Uiso   1.00
O231   O     0.49740   0.74860   0.52150   0.01267  Uiso   1.00
O232   O     0.55720   0.80430   0.61850   0.01267  Uiso   1.00
O233   O     0.34060   0.89300   0.67580   0.01267  Uiso   1.00
O234   O     0.46310   0.86650   0.48260   0.01267  Uiso   1.00
O235   O     0.62510   0.21210   0.58500   0.01267  Uiso   1.00
O236   O     0.59190   0.95190   0.70220   0.01267  Uiso   1.00
O237   O     0.56470   0.00970   0.33480   0.01267  Uiso   1.00
O238   O     0.76430   0.08370   0.44510   0.01267  Uiso   1.00
O239   O     0.60680   0.82610   0.73190   0.01267  Uiso   1.00
O240   O     0.67020   0.04350   0.76170   0.01267  Uiso   1.00
