data_image0
_cell_length_a       10.1045
_cell_length_b       15.4994
_cell_length_c       10.4754
_cell_angle_alpha    90
_cell_angle_beta     102.207
_cell_angle_gamma    90

_symmetry_space_group_name_H-M    "P 1"
_symmetry_int_tables_number       1

loop_
  _symmetry_equiv_pos_as_xyz
  'x, y, z'

loop_
  _atom_site_label
  _atom_site_occupancy
  _atom_site_fract_x
  _atom_site_fract_y
  _atom_site_fract_z
  _atom_site_thermal_displace_type
  _atom_site_B_iso_or_equiv
  _atom_site_type_symbol
  Dy1      1.0000 0.08581  0.00260  0.31094  Biso   1.000  Dy
  O1       1.0000 0.99460  0.13152  0.37140  Biso   1.000  O
  O2       1.0000 0.90206  0.11347  0.54527  Biso   1.000  O
  O3       1.0000 0.72876  0.38294  0.73745  Biso   1.000  O
  O4       1.0000 0.67890  0.49292  0.60360  Biso   1.000  O
  O5       1.0000 0.73520  0.45239  0.00380  Biso   1.000  O
  O6       1.0000 0.64040  0.46371  0.17850  Biso   1.000  O
  N1       1.0000 0.86630  0.38184  0.33030  Biso   1.000  N
  C1       1.0000 0.90640  0.29866  0.34250  Biso   1.000  C
  H1       1.0000 0.94570  0.27380  0.27870  Biso   1.000  H
  C2       1.0000 0.89000  0.25030  0.44780  Biso   1.000  C
  C3       1.0000 0.83130  0.28849  0.54310  Biso   1.000  C
  H2       1.0000 0.81700  0.25630  0.61390  Biso   1.000  H
  C4       1.0000 0.79460  0.37491  0.53140  Biso   1.000  C
  C5       1.0000 0.81320  0.42064  0.42330  Biso   1.000  C
  H3       1.0000 0.78890  0.47860  0.41460  Biso   1.000  H
  C6       1.0000 0.93320  0.15660  0.45630  Biso   1.000  C
  C7       1.0000 0.73040  0.41978  0.63080  Biso   1.000  C
  C8       1.0000 0.87500  0.42920  0.20970  Biso   1.000  C
  H4       1.0000 0.92700  0.39520  0.15990  Biso   1.000  H
  H5       1.0000 0.92280  0.48300  0.23320  Biso   1.000  H
  C9       1.0000 0.73611  0.44857  0.12414  Biso   1.000  C
  Dy2      1.0000 0.41419  0.50260  0.18906  Biso   1.000  Dy
  O7       1.0000 0.50540  0.63152  0.12860  Biso   1.000  O
  O8       1.0000 0.59794  0.61347  0.95473  Biso   1.000  O
  O9       1.0000 0.77124  0.88294  0.76255  Biso   1.000  O
  O10      1.0000 0.82110  0.99292  0.89640  Biso   1.000  O
  O11      1.0000 0.76480  0.95239  0.49620  Biso   1.000  O
  O12      1.0000 0.85960  0.96371  0.32150  Biso   1.000  O
  N2       1.0000 0.63370  0.88184  0.16970  Biso   1.000  N
  C10      1.0000 0.59360  0.79866  0.15750  Biso   1.000  C
  H6       1.0000 0.55430  0.77380  0.22130  Biso   1.000  H
  C11      1.0000 0.61000  0.75030  0.05220  Biso   1.000  C
  C12      1.0000 0.66870  0.78849  0.95690  Biso   1.000  C
  H7       1.0000 0.68300  0.75630  0.88610  Biso   1.000  H
  C13      1.0000 0.70540  0.87491  0.96860  Biso   1.000  C
  C14      1.0000 0.68680  0.92064  0.07670  Biso   1.000  C
  H8       1.0000 0.71110  0.97860  0.08540  Biso   1.000  H
  C15      1.0000 0.56680  0.65660  0.04370  Biso   1.000  C
  C16      1.0000 0.76960  0.91978  0.86920  Biso   1.000  C
  C17      1.0000 0.62500  0.92920  0.29030  Biso   1.000  C
  H9       1.0000 0.57300  0.89520  0.34010  Biso   1.000  H
  H10      1.0000 0.57720  0.98300  0.26680  Biso   1.000  H
  C18      1.0000 0.76389  0.94857  0.37586  Biso   1.000  C
  Dy3      1.0000 0.91419  0.99740  0.68906  Biso   1.000  Dy
  O13      1.0000 0.00540  0.86848  0.62860  Biso   1.000  O
  O14      1.0000 0.09794  0.88653  0.45473  Biso   1.000  O
  O15      1.0000 0.27124  0.61706  0.26255  Biso   1.000  O
  O16      1.0000 0.32110  0.50708  0.39640  Biso   1.000  O
  O17      1.0000 0.26480  0.54761  0.99620  Biso   1.000  O
  O18      1.0000 0.35960  0.53629  0.82150  Biso   1.000  O
  N3       1.0000 0.13370  0.61816  0.66970  Biso   1.000  N
  C19      1.0000 0.09360  0.70134  0.65750  Biso   1.000  C
  H11      1.0000 0.05430  0.72620  0.72130  Biso   1.000  H
  C20      1.0000 0.11000  0.74970  0.55220  Biso   1.000  C
  C21      1.0000 0.16870  0.71151  0.45690  Biso   1.000  C
  H12      1.0000 0.18300  0.74370  0.38610  Biso   1.000  H
  C22      1.0000 0.20540  0.62509  0.46860  Biso   1.000  C
  C23      1.0000 0.18680  0.57936  0.57670  Biso   1.000  C
  H13      1.0000 0.21110  0.52140  0.58540  Biso   1.000  H
  C24      1.0000 0.06680  0.84340  0.54370  Biso   1.000  C
  C25      1.0000 0.26960  0.58022  0.36920  Biso   1.000  C
  C26      1.0000 0.12500  0.57080  0.79030  Biso   1.000  C
  H14      1.0000 0.07300  0.60480  0.84010  Biso   1.000  H
  H15      1.0000 0.07720  0.51700  0.76680  Biso   1.000  H
  C27      1.0000 0.26389  0.55143  0.87586  Biso   1.000  C
  Dy4      1.0000 0.58581  0.49740  0.81094  Biso   1.000  Dy
  O19      1.0000 0.49460  0.36848  0.87140  Biso   1.000  O
  O20      1.0000 0.40206  0.38653  0.04527  Biso   1.000  O
  O21      1.0000 0.22876  0.11706  0.23745  Biso   1.000  O
  O22      1.0000 0.17890  0.00708  0.10360  Biso   1.000  O
  O23      1.0000 0.23520  0.04761  0.50380  Biso   1.000  O
  O24      1.0000 0.14040  0.03629  0.67850  Biso   1.000  O
  N4       1.0000 0.36630  0.11816  0.83030  Biso   1.000  N
  C28      1.0000 0.40640  0.20134  0.84250  Biso   1.000  C
  H16      1.0000 0.44570  0.22620  0.77870  Biso   1.000  H
  C29      1.0000 0.39000  0.24970  0.94780  Biso   1.000  C
  C30      1.0000 0.33130  0.21151  0.04310  Biso   1.000  C
  H17      1.0000 0.31700  0.24370  0.11390  Biso   1.000  H
  C31      1.0000 0.29460  0.12509  0.03140  Biso   1.000  C
  C32      1.0000 0.31320  0.07936  0.92330  Biso   1.000  C
  H18      1.0000 0.28890  0.02140  0.91460  Biso   1.000  H
  C33      1.0000 0.43320  0.34340  0.95630  Biso   1.000  C
  C34      1.0000 0.23040  0.08022  0.13080  Biso   1.000  C
  C35      1.0000 0.37500  0.07080  0.70970  Biso   1.000  C
  H19      1.0000 0.42700  0.10480  0.65990  Biso   1.000  H
  H20      1.0000 0.42280  0.01700  0.73320  Biso   1.000  H
  C36      1.0000 0.23611  0.05143  0.62414  Biso   1.000  C
