data_image0
_cell_length_a       10.273
_cell_length_b       11.318
_cell_length_c       16.461
_cell_angle_alpha    90
_cell_angle_beta     100.064
_cell_angle_gamma    90

_symmetry_space_group_name_H-M    "P 1"
_symmetry_int_tables_number       1

loop_
  _symmetry_equiv_pos_as_xyz
  'x, y, z'

loop_
  _atom_site_label
  _atom_site_occupancy
  _atom_site_fract_x
  _atom_site_fract_y
  _atom_site_fract_z
  _atom_site_thermal_displace_type
  _atom_site_B_iso_or_equiv
  _atom_site_type_symbol
  In1      1.0000 0.73797  0.19724  0.07669  Biso   1.000  In
  Br1      1.0000 0.71171  0.36718  0.96834  Biso   1.000  Br
  O1       1.0000 0.10560  0.79980  0.33910  Biso   1.000  O
  O2       1.0000 0.57220  0.66220  0.45800  Biso   1.000  O
  O3       1.0000 0.76670  0.05520  0.16710  Biso   1.000  O
  O4       1.0000 0.04310  0.67380  0.42550  Biso   1.000  O
  O5       1.0000 0.41980  0.75210  0.36470  Biso   1.000  O
  C1       1.0000 0.68000  0.97900  0.17550  Biso   1.000  C
  O6       1.0000 0.57480  0.96030  0.12750  Biso   1.000  O
  C2       1.0000 0.61200  0.85020  0.28640  Biso   1.000  C
  H1       1.0000 0.52410  0.86850  0.26610  Biso   1.000  H
  C3       1.0000 0.84360  0.87170  0.28100  Biso   1.000  C
  H2       1.0000 0.91110  0.90870  0.25960  Biso   1.000  H
  O7       1.0000 0.67150  0.07410  0.98600  Biso   1.000  O
  C4       1.0000 0.01500  0.75220  0.37010  Biso   1.000  C
  C5       1.0000 0.53780  0.72430  0.39500  Biso   1.000  C
  C6       1.0000 0.71270  0.89950  0.25030  Biso   1.000  C
  C7       1.0000 0.64400  0.77370  0.35260  Biso   1.000  C
  C8       1.0000 0.77560  0.73970  0.37920  Biso   1.000  C
  H3       1.0000 0.79650  0.68400  0.42100  Biso   1.000  H
  C9       1.0000 0.87390  0.78930  0.34320  Biso   1.000  C
  In2      1.0000 0.26203  0.69724  0.42331  Biso   1.000  In
  Br2      1.0000 0.28829  0.86718  0.53166  Biso   1.000  Br
  O8       1.0000 0.89440  0.29980  0.16090  Biso   1.000  O
  O9       1.0000 0.42780  0.16220  0.04200  Biso   1.000  O
  O10      1.0000 0.23330  0.55520  0.33290  Biso   1.000  O
  O11      1.0000 0.95690  0.17380  0.07450  Biso   1.000  O
  O12      1.0000 0.58020  0.25210  0.13530  Biso   1.000  O
  C10      1.0000 0.32000  0.47900  0.32450  Biso   1.000  C
  O13      1.0000 0.42520  0.46030  0.37250  Biso   1.000  O
  C11      1.0000 0.38800  0.35020  0.21360  Biso   1.000  C
  H4       1.0000 0.47590  0.36850  0.23390  Biso   1.000  H
  C12      1.0000 0.15640  0.37170  0.21900  Biso   1.000  C
  H5       1.0000 0.08890  0.40870  0.24040  Biso   1.000  H
  O14      1.0000 0.32850  0.57410  0.51400  Biso   1.000  O
  C13      1.0000 0.98500  0.25220  0.12990  Biso   1.000  C
  C14      1.0000 0.46220  0.22430  0.10500  Biso   1.000  C
  C15      1.0000 0.28730  0.39950  0.24970  Biso   1.000  C
  C16      1.0000 0.35600  0.27370  0.14740  Biso   1.000  C
  C17      1.0000 0.22440  0.23970  0.12080  Biso   1.000  C
  H6       1.0000 0.20350  0.18400  0.07900  Biso   1.000  H
  C18      1.0000 0.12610  0.28930  0.15680  Biso   1.000  C
  In3      1.0000 0.26203  0.80276  0.92331  Biso   1.000  In
  Br3      1.0000 0.28829  0.63282  0.03166  Biso   1.000  Br
  O15      1.0000 0.89440  0.20020  0.66090  Biso   1.000  O
  O16      1.0000 0.42780  0.33780  0.54200  Biso   1.000  O
  O17      1.0000 0.23330  0.94480  0.83290  Biso   1.000  O
  O18      1.0000 0.95690  0.32620  0.57450  Biso   1.000  O
  O19      1.0000 0.58020  0.24790  0.63530  Biso   1.000  O
  C19      1.0000 0.32000  0.02100  0.82450  Biso   1.000  C
  O20      1.0000 0.42520  0.03970  0.87250  Biso   1.000  O
  C20      1.0000 0.38800  0.14980  0.71360  Biso   1.000  C
  H7       1.0000 0.47590  0.13150  0.73390  Biso   1.000  H
  C21      1.0000 0.15640  0.12830  0.71900  Biso   1.000  C
  H8       1.0000 0.08890  0.09130  0.74040  Biso   1.000  H
  O21      1.0000 0.32850  0.92590  0.01400  Biso   1.000  O
  C22      1.0000 0.98500  0.24780  0.62990  Biso   1.000  C
  C23      1.0000 0.46220  0.27570  0.60500  Biso   1.000  C
  C24      1.0000 0.28730  0.10050  0.74970  Biso   1.000  C
  C25      1.0000 0.35600  0.22630  0.64740  Biso   1.000  C
  C26      1.0000 0.22440  0.26030  0.62080  Biso   1.000  C
  H9       1.0000 0.20350  0.31600  0.57900  Biso   1.000  H
  C27      1.0000 0.12610  0.21070  0.65680  Biso   1.000  C
  In4      1.0000 0.73797  0.30276  0.57669  Biso   1.000  In
  Br4      1.0000 0.71171  0.13282  0.46834  Biso   1.000  Br
  O22      1.0000 0.10560  0.70020  0.83910  Biso   1.000  O
  O23      1.0000 0.57220  0.83780  0.95800  Biso   1.000  O
  O24      1.0000 0.76670  0.44480  0.66710  Biso   1.000  O
  O25      1.0000 0.04310  0.82620  0.92550  Biso   1.000  O
  O26      1.0000 0.41980  0.74790  0.86470  Biso   1.000  O
  C28      1.0000 0.68000  0.52100  0.67550  Biso   1.000  C
  O27      1.0000 0.57480  0.53970  0.62750  Biso   1.000  O
  C29      1.0000 0.61200  0.64980  0.78640  Biso   1.000  C
  H10      1.0000 0.52410  0.63150  0.76610  Biso   1.000  H
  C30      1.0000 0.84360  0.62830  0.78100  Biso   1.000  C
  H11      1.0000 0.91110  0.59130  0.75960  Biso   1.000  H
  O28      1.0000 0.67150  0.42590  0.48600  Biso   1.000  O
  C31      1.0000 0.01500  0.74780  0.87010  Biso   1.000  C
  C32      1.0000 0.53780  0.77570  0.89500  Biso   1.000  C
  C33      1.0000 0.71270  0.60050  0.75030  Biso   1.000  C
  C34      1.0000 0.64400  0.72630  0.85260  Biso   1.000  C
  C35      1.0000 0.77560  0.76030  0.87920  Biso   1.000  C
  H12      1.0000 0.79650  0.81600  0.92100  Biso   1.000  H
  C36      1.0000 0.87390  0.71070  0.84320  Biso   1.000  C
  Co1      1.0000 0.50000  0.00000  0.00000  Biso   1.000  Co
  Co2      1.0000 0.50000  0.50000  0.50000  Biso   1.000  Co
