data_image0
_cell_length_a       19.3329
_cell_length_b       19.3329
_cell_length_c       19.3329
_cell_angle_alpha    90
_cell_angle_beta     90
_cell_angle_gamma    90

_symmetry_space_group_name_H-M    "P 1"
_symmetry_int_tables_number       1

loop_
  _symmetry_equiv_pos_as_xyz
  'x, y, z'

loop_
  _atom_site_label
  _atom_site_occupancy
  _atom_site_fract_x
  _atom_site_fract_y
  _atom_site_fract_z
  _atom_site_thermal_displace_type
  _atom_site_B_iso_or_equiv
  _atom_site_type_symbol
  N1       1.0000 0.57400  0.07970  0.12970  Biso   1.000  N
  C1       1.0000 0.63700  0.08460  0.15990  Biso   1.000  C
  H1       1.0000 0.65130  0.05580  0.19560  Biso   1.000  H
  N2       1.0000 0.92600  0.42030  0.12970  Biso   1.000  N
  C2       1.0000 0.86300  0.41540  0.15990  Biso   1.000  C
  H2       1.0000 0.84870  0.44420  0.19560  Biso   1.000  H
  N3       1.0000 0.92600  0.07970  0.37030  Biso   1.000  N
  C3       1.0000 0.86300  0.08460  0.34010  Biso   1.000  C
  H3       1.0000 0.84870  0.05580  0.30440  Biso   1.000  H
  N4       1.0000 0.57400  0.42030  0.37030  Biso   1.000  N
  C4       1.0000 0.63700  0.41540  0.34010  Biso   1.000  C
  H4       1.0000 0.65130  0.44420  0.30440  Biso   1.000  H
  N5       1.0000 0.12970  0.57400  0.07970  Biso   1.000  N
  C5       1.0000 0.15990  0.63700  0.08460  Biso   1.000  C
  H5       1.0000 0.19560  0.65130  0.05580  Biso   1.000  H
  N6       1.0000 0.12970  0.92600  0.42030  Biso   1.000  N
  C6       1.0000 0.15990  0.86300  0.41540  Biso   1.000  C
  H6       1.0000 0.19560  0.84870  0.44420  Biso   1.000  H
  N7       1.0000 0.37030  0.92600  0.07970  Biso   1.000  N
  C7       1.0000 0.34010  0.86300  0.08460  Biso   1.000  C
  H7       1.0000 0.30440  0.84870  0.05580  Biso   1.000  H
  N8       1.0000 0.37030  0.57400  0.42030  Biso   1.000  N
  C8       1.0000 0.34010  0.63700  0.41540  Biso   1.000  C
  H8       1.0000 0.30440  0.65130  0.44420  Biso   1.000  H
  N9       1.0000 0.07970  0.12970  0.57400  Biso   1.000  N
  C9       1.0000 0.08460  0.15990  0.63700  Biso   1.000  C
  H9       1.0000 0.05580  0.19560  0.65130  Biso   1.000  H
  N10      1.0000 0.42030  0.12970  0.92600  Biso   1.000  N
  C10      1.0000 0.41540  0.15990  0.86300  Biso   1.000  C
  H10      1.0000 0.44420  0.19560  0.84870  Biso   1.000  H
  N11      1.0000 0.07970  0.37030  0.92600  Biso   1.000  N
  C11      1.0000 0.08460  0.34010  0.86300  Biso   1.000  C
  H11      1.0000 0.05580  0.30440  0.84870  Biso   1.000  H
  N12      1.0000 0.42030  0.37030  0.57400  Biso   1.000  N
  C12      1.0000 0.41540  0.34010  0.63700  Biso   1.000  C
  H12      1.0000 0.44420  0.30440  0.65130  Biso   1.000  H
  N13      1.0000 0.42030  0.92600  0.12970  Biso   1.000  N
  C13      1.0000 0.41540  0.86300  0.15990  Biso   1.000  C
  H13      1.0000 0.44420  0.84870  0.19560  Biso   1.000  H
  N14      1.0000 0.07970  0.57400  0.12970  Biso   1.000  N
  C14      1.0000 0.08460  0.63700  0.15990  Biso   1.000  C
  H14      1.0000 0.05580  0.65130  0.19560  Biso   1.000  H
  N15      1.0000 0.42030  0.57400  0.37030  Biso   1.000  N
  C15      1.0000 0.41540  0.63700  0.34010  Biso   1.000  C
  H15      1.0000 0.44420  0.65130  0.30440  Biso   1.000  H
  N16      1.0000 0.07970  0.92600  0.37030  Biso   1.000  N
  C16      1.0000 0.08460  0.86300  0.34010  Biso   1.000  C
  H16      1.0000 0.05580  0.84870  0.30440  Biso   1.000  H
  N17      1.0000 0.92600  0.37030  0.07970  Biso   1.000  N
  C17      1.0000 0.86300  0.34010  0.08460  Biso   1.000  C
  H17      1.0000 0.84870  0.30440  0.05580  Biso   1.000  H
  N18      1.0000 0.57400  0.37030  0.42030  Biso   1.000  N
  C18      1.0000 0.63700  0.34010  0.41540  Biso   1.000  C
  H18      1.0000 0.65130  0.30440  0.44420  Biso   1.000  H
  N19      1.0000 0.57400  0.12970  0.07970  Biso   1.000  N
  C19      1.0000 0.63700  0.15990  0.08460  Biso   1.000  C
  H19      1.0000 0.65130  0.19560  0.05580  Biso   1.000  H
  N20      1.0000 0.92600  0.12970  0.42030  Biso   1.000  N
  C20      1.0000 0.86300  0.15990  0.41540  Biso   1.000  C
  H20      1.0000 0.84870  0.19560  0.44420  Biso   1.000  H
  N21      1.0000 0.37030  0.42030  0.57400  Biso   1.000  N
  C21      1.0000 0.34010  0.41540  0.63700  Biso   1.000  C
  H21      1.0000 0.30440  0.44420  0.65130  Biso   1.000  H
  N22      1.0000 0.37030  0.07970  0.92600  Biso   1.000  N
  C22      1.0000 0.34010  0.08460  0.86300  Biso   1.000  C
  H22      1.0000 0.30440  0.05580  0.84870  Biso   1.000  H
  N23      1.0000 0.12970  0.42030  0.92600  Biso   1.000  N
  C23      1.0000 0.15990  0.41540  0.86300  Biso   1.000  C
  H23      1.0000 0.19560  0.44420  0.84870  Biso   1.000  H
  N24      1.0000 0.12970  0.07970  0.57400  Biso   1.000  N
  C24      1.0000 0.15990  0.08460  0.63700  Biso   1.000  C
  H24      1.0000 0.19560  0.05580  0.65130  Biso   1.000  H
  Ag1      1.0000 0.49472  0.00528  0.13646  Biso   1.000  Ag
  Ag2      1.0000 0.00528  0.49472  0.13646  Biso   1.000  Ag
  Ag3      1.0000 0.00528  0.00528  0.36354  Biso   1.000  Ag
  Ag4      1.0000 0.49472  0.49472  0.36354  Biso   1.000  Ag
  Ag5      1.0000 0.13646  0.49472  0.00528  Biso   1.000  Ag
  Ag6      1.0000 0.13646  0.00528  0.49472  Biso   1.000  Ag
  Ag7      1.0000 0.36354  0.00528  0.00528  Biso   1.000  Ag
  Ag8      1.0000 0.36354  0.49472  0.49472  Biso   1.000  Ag
  Ag9      1.0000 0.00528  0.13646  0.49472  Biso   1.000  Ag
  Ag10     1.0000 0.49472  0.13646  0.00528  Biso   1.000  Ag
  Ag11     1.0000 0.00528  0.36354  0.00528  Biso   1.000  Ag
  Ag12     1.0000 0.49472  0.36354  0.49472  Biso   1.000  Ag
  Ag13     1.0000 0.76922  0.17434  0.17434  Biso   1.000  Ag
  N25      1.0000 0.67600  0.13390  0.13390  Biso   1.000  N
  N26      1.0000 0.85560  0.22640  0.22640  Biso   1.000  N
  C25      1.0000 0.92130  0.21300  0.21300  Biso   1.000  C
  H25      1.0000 0.93670  0.18070  0.18070  Biso   1.000  H
  Ag14     1.0000 0.73078  0.32566  0.17434  Biso   1.000  Ag
  N27      1.0000 0.82400  0.36610  0.13390  Biso   1.000  N
  N28      1.0000 0.64440  0.27360  0.22640  Biso   1.000  N
  C26      1.0000 0.57870  0.28700  0.21300  Biso   1.000  C
  H26      1.0000 0.56330  0.31930  0.18070  Biso   1.000  H
  Ag15     1.0000 0.73078  0.17434  0.32566  Biso   1.000  Ag
  N29      1.0000 0.82400  0.13390  0.36610  Biso   1.000  N
  N30      1.0000 0.64440  0.22640  0.27360  Biso   1.000  N
  C27      1.0000 0.57870  0.21300  0.28700  Biso   1.000  C
  H27      1.0000 0.56330  0.18070  0.31930  Biso   1.000  H
  Ag16     1.0000 0.76922  0.32566  0.32566  Biso   1.000  Ag
  N31      1.0000 0.67600  0.36610  0.36610  Biso   1.000  N
  N32      1.0000 0.85560  0.27360  0.27360  Biso   1.000  N
  C28      1.0000 0.92130  0.28700  0.28700  Biso   1.000  C
  H28      1.0000 0.93670  0.31930  0.31930  Biso   1.000  H
  Ag17     1.0000 0.17434  0.76922  0.17434  Biso   1.000  Ag
  N33      1.0000 0.13390  0.67600  0.13390  Biso   1.000  N
  N34      1.0000 0.22640  0.85560  0.22640  Biso   1.000  N
  C29      1.0000 0.21300  0.92130  0.21300  Biso   1.000  C
  H29      1.0000 0.18070  0.93670  0.18070  Biso   1.000  H
  Ag18     1.0000 0.17434  0.73078  0.32566  Biso   1.000  Ag
  N35      1.0000 0.13390  0.82400  0.36610  Biso   1.000  N
  N36      1.0000 0.22640  0.64440  0.27360  Biso   1.000  N
  C30      1.0000 0.21300  0.57870  0.28700  Biso   1.000  C
  H30      1.0000 0.18070  0.56330  0.31930  Biso   1.000  H
  Ag19     1.0000 0.32566  0.73078  0.17434  Biso   1.000  Ag
  N37      1.0000 0.36610  0.82400  0.13390  Biso   1.000  N
  N38      1.0000 0.27360  0.64440  0.22640  Biso   1.000  N
  C31      1.0000 0.28700  0.57870  0.21300  Biso   1.000  C
  H31      1.0000 0.31930  0.56330  0.18070  Biso   1.000  H
  Ag20     1.0000 0.32566  0.76922  0.32566  Biso   1.000  Ag
  N39      1.0000 0.36610  0.67600  0.36610  Biso   1.000  N
  N40      1.0000 0.27360  0.85560  0.27360  Biso   1.000  N
  C32      1.0000 0.28700  0.92130  0.28700  Biso   1.000  C
  H32      1.0000 0.31930  0.93670  0.31930  Biso   1.000  H
  Ag21     1.0000 0.17434  0.17434  0.76922  Biso   1.000  Ag
  N41      1.0000 0.13390  0.13390  0.67600  Biso   1.000  N
  N42      1.0000 0.22640  0.22640  0.85560  Biso   1.000  N
  C33      1.0000 0.21300  0.21300  0.92130  Biso   1.000  C
  H33      1.0000 0.18070  0.18070  0.93670  Biso   1.000  H
  Ag22     1.0000 0.32566  0.17434  0.73078  Biso   1.000  Ag
  N43      1.0000 0.36610  0.13390  0.82400  Biso   1.000  N
  N44      1.0000 0.27360  0.22640  0.64440  Biso   1.000  N
  C34      1.0000 0.28700  0.21300  0.57870  Biso   1.000  C
  H34      1.0000 0.31930  0.18070  0.56330  Biso   1.000  H
  Ag23     1.0000 0.17434  0.32566  0.73078  Biso   1.000  Ag
  N45      1.0000 0.13390  0.36610  0.82400  Biso   1.000  N
  N46      1.0000 0.22640  0.27360  0.64440  Biso   1.000  N
  C35      1.0000 0.21300  0.28700  0.57870  Biso   1.000  C
  H35      1.0000 0.18070  0.31930  0.56330  Biso   1.000  H
  Ag24     1.0000 0.32566  0.32566  0.76922  Biso   1.000  Ag
  N47      1.0000 0.36610  0.36610  0.67600  Biso   1.000  N
  N48      1.0000 0.27360  0.27360  0.85560  Biso   1.000  N
  C36      1.0000 0.28700  0.28700  0.92130  Biso   1.000  C
  H36      1.0000 0.31930  0.31930  0.93670  Biso   1.000  H
  Ag25     1.0000 0.06260  0.22320  0.27680  Biso   1.000  Ag
  Ag26     1.0000 0.43740  0.27680  0.27680  Biso   1.000  Ag
  Ag27     1.0000 0.43740  0.22320  0.22320  Biso   1.000  Ag
  Ag28     1.0000 0.06260  0.27680  0.22320  Biso   1.000  Ag
  Ag29     1.0000 0.27680  0.06260  0.22320  Biso   1.000  Ag
  Ag30     1.0000 0.27680  0.43740  0.27680  Biso   1.000  Ag
  Ag31     1.0000 0.22320  0.43740  0.22320  Biso   1.000  Ag
  Ag32     1.0000 0.22320  0.06260  0.27680  Biso   1.000  Ag
  Ag33     1.0000 0.22320  0.27680  0.06260  Biso   1.000  Ag
  Ag34     1.0000 0.27680  0.27680  0.43740  Biso   1.000  Ag
  Ag35     1.0000 0.22320  0.22320  0.43740  Biso   1.000  Ag
  Ag36     1.0000 0.27680  0.22320  0.06260  Biso   1.000  Ag
  N49      1.0000 0.96030  0.25000  0.25000  Biso   1.000  N
  N50      1.0000 0.53970  0.25000  0.25000  Biso   1.000  N
  N51      1.0000 0.25000  0.96030  0.25000  Biso   1.000  N
  N52      1.0000 0.25000  0.53970  0.25000  Biso   1.000  N
  N53      1.0000 0.25000  0.25000  0.96030  Biso   1.000  N
  N54      1.0000 0.25000  0.25000  0.53970  Biso   1.000  N
  N55      1.0000 0.57970  0.07400  0.87030  Biso   1.000  N
  C37      1.0000 0.58460  0.13700  0.84010  Biso   1.000  C
  H37      1.0000 0.55580  0.15130  0.80440  Biso   1.000  H
  N56      1.0000 0.92030  0.42600  0.87030  Biso   1.000  N
  C38      1.0000 0.91540  0.36300  0.84010  Biso   1.000  C
  H38      1.0000 0.94420  0.34870  0.80440  Biso   1.000  H
  N57      1.0000 0.57970  0.42600  0.62970  Biso   1.000  N
  C39      1.0000 0.58460  0.36300  0.65990  Biso   1.000  C
  H39      1.0000 0.55580  0.34870  0.69560  Biso   1.000  H
  N58      1.0000 0.92030  0.07400  0.62970  Biso   1.000  N
  C40      1.0000 0.91540  0.13700  0.65990  Biso   1.000  C
  H40      1.0000 0.94420  0.15130  0.69560  Biso   1.000  H
  N59      1.0000 0.07400  0.62970  0.92030  Biso   1.000  N
  C41      1.0000 0.13700  0.65990  0.91540  Biso   1.000  C
  H41      1.0000 0.15130  0.69560  0.94420  Biso   1.000  H
  N60      1.0000 0.42600  0.62970  0.57970  Biso   1.000  N
  C42      1.0000 0.36300  0.65990  0.58460  Biso   1.000  C
  H42      1.0000 0.34870  0.69560  0.55580  Biso   1.000  H
  N61      1.0000 0.42600  0.87030  0.92030  Biso   1.000  N
  C43      1.0000 0.36300  0.84010  0.91540  Biso   1.000  C
  H43      1.0000 0.34870  0.80440  0.94420  Biso   1.000  H
  N62      1.0000 0.07400  0.87030  0.57970  Biso   1.000  N
  C44      1.0000 0.13700  0.84010  0.58460  Biso   1.000  C
  H44      1.0000 0.15130  0.80440  0.55580  Biso   1.000  H
  N63      1.0000 0.62970  0.57970  0.42600  Biso   1.000  N
  C45      1.0000 0.65990  0.58460  0.36300  Biso   1.000  C
  H45      1.0000 0.69560  0.55580  0.34870  Biso   1.000  H
  N64      1.0000 0.62970  0.92030  0.07400  Biso   1.000  N
  C46      1.0000 0.65990  0.91540  0.13700  Biso   1.000  C
  H46      1.0000 0.69560  0.94420  0.15130  Biso   1.000  H
  N65      1.0000 0.87030  0.57970  0.07400  Biso   1.000  N
  C47      1.0000 0.84010  0.58460  0.13700  Biso   1.000  C
  H47      1.0000 0.80440  0.55580  0.15130  Biso   1.000  H
  N66      1.0000 0.87030  0.92030  0.42600  Biso   1.000  N
  C48      1.0000 0.84010  0.91540  0.36300  Biso   1.000  C
  H48      1.0000 0.80440  0.94420  0.34870  Biso   1.000  H
  N67      1.0000 0.42600  0.92030  0.87030  Biso   1.000  N
  C49      1.0000 0.36300  0.91540  0.84010  Biso   1.000  C
  H49      1.0000 0.34870  0.94420  0.80440  Biso   1.000  H
  N68      1.0000 0.07400  0.57970  0.87030  Biso   1.000  N
  C50      1.0000 0.13700  0.58460  0.84010  Biso   1.000  C
  H50      1.0000 0.15130  0.55580  0.80440  Biso   1.000  H
  N69      1.0000 0.07400  0.92030  0.62970  Biso   1.000  N
  C51      1.0000 0.13700  0.91540  0.65990  Biso   1.000  C
  H51      1.0000 0.15130  0.94420  0.69560  Biso   1.000  H
  N70      1.0000 0.42600  0.57970  0.62970  Biso   1.000  N
  C52      1.0000 0.36300  0.58460  0.65990  Biso   1.000  C
  H52      1.0000 0.34870  0.55580  0.69560  Biso   1.000  H
  N71      1.0000 0.87030  0.42600  0.92030  Biso   1.000  N
  C53      1.0000 0.84010  0.36300  0.91540  Biso   1.000  C
  H53      1.0000 0.80440  0.34870  0.94420  Biso   1.000  H
  N72      1.0000 0.87030  0.07400  0.57970  Biso   1.000  N
  C54      1.0000 0.84010  0.13700  0.58460  Biso   1.000  C
  H54      1.0000 0.80440  0.15130  0.55580  Biso   1.000  H
  N73      1.0000 0.62970  0.07400  0.92030  Biso   1.000  N
  C55      1.0000 0.65990  0.13700  0.91540  Biso   1.000  C
  H55      1.0000 0.69560  0.15130  0.94420  Biso   1.000  H
  N74      1.0000 0.62970  0.42600  0.57970  Biso   1.000  N
  C56      1.0000 0.65990  0.36300  0.58460  Biso   1.000  C
  H56      1.0000 0.69560  0.34870  0.55580  Biso   1.000  H
  N75      1.0000 0.92030  0.87030  0.42600  Biso   1.000  N
  C57      1.0000 0.91540  0.84010  0.36300  Biso   1.000  C
  H57      1.0000 0.94420  0.80440  0.34870  Biso   1.000  H
  N76      1.0000 0.57970  0.87030  0.07400  Biso   1.000  N
  C58      1.0000 0.58460  0.84010  0.13700  Biso   1.000  C
  H58      1.0000 0.55580  0.80440  0.15130  Biso   1.000  H
  N77      1.0000 0.92030  0.62970  0.07400  Biso   1.000  N
  C59      1.0000 0.91540  0.65990  0.13700  Biso   1.000  C
  H59      1.0000 0.94420  0.69560  0.15130  Biso   1.000  H
  N78      1.0000 0.57970  0.62970  0.42600  Biso   1.000  N
  C60      1.0000 0.58460  0.65990  0.36300  Biso   1.000  C
  H60      1.0000 0.55580  0.69560  0.34870  Biso   1.000  H
  Ag37     1.0000 0.50528  0.99472  0.86354  Biso   1.000  Ag
  Ag38     1.0000 0.99472  0.50528  0.86354  Biso   1.000  Ag
  Ag39     1.0000 0.50528  0.50528  0.63646  Biso   1.000  Ag
  Ag40     1.0000 0.99472  0.99472  0.63646  Biso   1.000  Ag
  Ag41     1.0000 0.99472  0.63646  0.99472  Biso   1.000  Ag
  Ag42     1.0000 0.50528  0.63646  0.50528  Biso   1.000  Ag
  Ag43     1.0000 0.50528  0.86354  0.99472  Biso   1.000  Ag
  Ag44     1.0000 0.99472  0.86354  0.50528  Biso   1.000  Ag
  Ag45     1.0000 0.63646  0.50528  0.50528  Biso   1.000  Ag
  Ag46     1.0000 0.63646  0.99472  0.99472  Biso   1.000  Ag
  Ag47     1.0000 0.86354  0.50528  0.99472  Biso   1.000  Ag
  Ag48     1.0000 0.86354  0.99472  0.50528  Biso   1.000  Ag
  Ag49     1.0000 0.67434  0.26922  0.82566  Biso   1.000  Ag
  N79      1.0000 0.63390  0.17600  0.86610  Biso   1.000  N
  N80      1.0000 0.72640  0.35560  0.77360  Biso   1.000  N
  C61      1.0000 0.71300  0.42130  0.78700  Biso   1.000  C
  H61      1.0000 0.68070  0.43670  0.81930  Biso   1.000  H
  Ag50     1.0000 0.82566  0.23078  0.82566  Biso   1.000  Ag
  N81      1.0000 0.86610  0.32400  0.86610  Biso   1.000  N
  N82      1.0000 0.77360  0.14440  0.77360  Biso   1.000  N
  C62      1.0000 0.78700  0.07870  0.78700  Biso   1.000  C
  H62      1.0000 0.81930  0.06330  0.81930  Biso   1.000  H
  Ag51     1.0000 0.67434  0.23078  0.67434  Biso   1.000  Ag
  N83      1.0000 0.63390  0.32400  0.63390  Biso   1.000  N
  N84      1.0000 0.72640  0.14440  0.72640  Biso   1.000  N
  C63      1.0000 0.71300  0.07870  0.71300  Biso   1.000  C
  H63      1.0000 0.68070  0.06330  0.68070  Biso   1.000  H
  Ag52     1.0000 0.82566  0.26922  0.67434  Biso   1.000  Ag
  N85      1.0000 0.86610  0.17600  0.63390  Biso   1.000  N
  N86      1.0000 0.77360  0.35560  0.72640  Biso   1.000  N
  C64      1.0000 0.78700  0.42130  0.71300  Biso   1.000  C
  H64      1.0000 0.81930  0.43670  0.68070  Biso   1.000  H
  Ag53     1.0000 0.26922  0.67434  0.82566  Biso   1.000  Ag
  N87      1.0000 0.17600  0.63390  0.86610  Biso   1.000  N
  N88      1.0000 0.35560  0.72640  0.77360  Biso   1.000  N
  C65      1.0000 0.42130  0.71300  0.78700  Biso   1.000  C
  H65      1.0000 0.43670  0.68070  0.81930  Biso   1.000  H
  Ag54     1.0000 0.23078  0.67434  0.67434  Biso   1.000  Ag
  N89      1.0000 0.32400  0.63390  0.63390  Biso   1.000  N
  N90      1.0000 0.14440  0.72640  0.72640  Biso   1.000  N
  C66      1.0000 0.07870  0.71300  0.71300  Biso   1.000  C
  H66      1.0000 0.06330  0.68070  0.68070  Biso   1.000  H
  Ag55     1.0000 0.23078  0.82566  0.82566  Biso   1.000  Ag
  N91      1.0000 0.32400  0.86610  0.86610  Biso   1.000  N
  N92      1.0000 0.14440  0.77360  0.77360  Biso   1.000  N
  C67      1.0000 0.07870  0.78700  0.78700  Biso   1.000  C
  H67      1.0000 0.06330  0.81930  0.81930  Biso   1.000  H
  Ag56     1.0000 0.26922  0.82566  0.67434  Biso   1.000  Ag
  N93      1.0000 0.17600  0.86610  0.63390  Biso   1.000  N
  N94      1.0000 0.35560  0.77360  0.72640  Biso   1.000  N
  C68      1.0000 0.42130  0.78700  0.71300  Biso   1.000  C
  H68      1.0000 0.43670  0.81930  0.68070  Biso   1.000  H
  Ag57     1.0000 0.67434  0.67434  0.23078  Biso   1.000  Ag
  N95      1.0000 0.63390  0.63390  0.32400  Biso   1.000  N
  N96      1.0000 0.72640  0.72640  0.14440  Biso   1.000  N
  C69      1.0000 0.71300  0.71300  0.07870  Biso   1.000  C
  H69      1.0000 0.68070  0.68070  0.06330  Biso   1.000  H
  Ag58     1.0000 0.67434  0.82566  0.26922  Biso   1.000  Ag
  N97      1.0000 0.63390  0.86610  0.17600  Biso   1.000  N
  N98      1.0000 0.72640  0.77360  0.35560  Biso   1.000  N
  C70      1.0000 0.71300  0.78700  0.42130  Biso   1.000  C
  H70      1.0000 0.68070  0.81930  0.43670  Biso   1.000  H
  Ag59     1.0000 0.82566  0.67434  0.26922  Biso   1.000  Ag
  N99      1.0000 0.86610  0.63390  0.17600  Biso   1.000  N
  N100     1.0000 0.77360  0.72640  0.35560  Biso   1.000  N
  C71      1.0000 0.78700  0.71300  0.42130  Biso   1.000  C
  H71      1.0000 0.81930  0.68070  0.43670  Biso   1.000  H
  Ag60     1.0000 0.82566  0.82566  0.23078  Biso   1.000  Ag
  N101     1.0000 0.86610  0.86610  0.32400  Biso   1.000  N
  N102     1.0000 0.77360  0.77360  0.14440  Biso   1.000  N
  C72      1.0000 0.78700  0.78700  0.07870  Biso   1.000  C
  H72      1.0000 0.81930  0.81930  0.06330  Biso   1.000  H
  Ag61     1.0000 0.72320  0.56260  0.72320  Biso   1.000  Ag
  Ag62     1.0000 0.77680  0.93740  0.72320  Biso   1.000  Ag
  Ag63     1.0000 0.72320  0.93740  0.77680  Biso   1.000  Ag
  Ag64     1.0000 0.77680  0.56260  0.77680  Biso   1.000  Ag
  Ag65     1.0000 0.56260  0.77680  0.77680  Biso   1.000  Ag
  Ag66     1.0000 0.93740  0.77680  0.72320  Biso   1.000  Ag
  Ag67     1.0000 0.93740  0.72320  0.77680  Biso   1.000  Ag
  Ag68     1.0000 0.56260  0.72320  0.72320  Biso   1.000  Ag
  Ag69     1.0000 0.77680  0.72320  0.93740  Biso   1.000  Ag
  Ag70     1.0000 0.77680  0.77680  0.56260  Biso   1.000  Ag
  Ag71     1.0000 0.72320  0.72320  0.56260  Biso   1.000  Ag
  Ag72     1.0000 0.72320  0.77680  0.93740  Biso   1.000  Ag
  N103     1.0000 0.75000  0.46030  0.75000  Biso   1.000  N
  N104     1.0000 0.75000  0.03970  0.75000  Biso   1.000  N
  N105     1.0000 0.46030  0.75000  0.75000  Biso   1.000  N
  N106     1.0000 0.03970  0.75000  0.75000  Biso   1.000  N
  N107     1.0000 0.75000  0.75000  0.03970  Biso   1.000  N
  N108     1.0000 0.75000  0.75000  0.46030  Biso   1.000  N
