data_image0
_cell_length_a       18.8575
_cell_length_b       21.8147
_cell_length_c       12.8837
_cell_angle_alpha    90
_cell_angle_beta     90
_cell_angle_gamma    90

_symmetry_space_group_name_H-M    "P 1"
_symmetry_int_tables_number       1

loop_
  _symmetry_equiv_pos_as_xyz
  'x, y, z'

loop_
  _atom_site_label
  _atom_site_occupancy
  _atom_site_fract_x
  _atom_site_fract_y
  _atom_site_fract_z
  _atom_site_thermal_displace_type
  _atom_site_B_iso_or_equiv
  _atom_site_type_symbol
  O1       1.0000 0.41258  0.66582  0.73960  Biso   1.000  O
  O2       1.0000 0.30651  0.67736  0.66730  Biso   1.000  O
  O3       1.0000 0.43080  0.31685  0.35610  Biso   1.000  O
  O4       1.0000 0.32030  0.31798  0.29160  Biso   1.000  O
  O5       1.0000 0.06260  0.68480  0.64150  Biso   1.000  O
  O6       1.0000 0.15890  0.67233  0.54750  Biso   1.000  O
  C1       1.0000 0.37060  0.58630  0.63110  Biso   1.000  C
  C2       1.0000 0.43340  0.55300  0.64610  Biso   1.000  C
  H1       1.0000 0.46960  0.56940  0.68910  Biso   1.000  H
  C3       1.0000 0.44290  0.49810  0.60050  Biso   1.000  C
  H2       1.0000 0.48470  0.47530  0.61530  Biso   1.000  H
  C4       1.0000 0.39240  0.47380  0.53150  Biso   1.000  C
  C5       1.0000 0.40310  0.41820  0.47700  Biso   1.000  C
  H3       1.0000 0.44510  0.39520  0.48920  Biso   1.000  H
  C6       1.0000 0.35440  0.39670  0.40730  Biso   1.000  C
  C7       1.0000 0.29120  0.43000  0.38990  Biso   1.000  C
  H4       1.0000 0.25690  0.41460  0.34260  Biso   1.000  H
  C8       1.0000 0.27900  0.48410  0.44040  Biso   1.000  C
  H5       1.0000 0.23630  0.50600  0.42730  Biso   1.000  H
  C9       1.0000 0.32930  0.50830  0.51240  Biso   1.000  C
  C10      1.0000 0.31940  0.56420  0.56510  Biso   1.000  C
  H6       1.0000 0.27690  0.58690  0.55490  Biso   1.000  H
  C11      1.0000 0.36270  0.64810  0.68360  Biso   1.000  C
  C12      1.0000 0.37000  0.33880  0.34610  Biso   1.000  C
  C13      1.0000 0.06950  0.59690  0.53450  Biso   1.000  C
  C14      1.0000 0.00960  0.57170  0.57760  Biso   1.000  C
  H7       1.0000 0.98610  0.59260  0.63230  Biso   1.000  H
  C15      1.0000 0.98260  0.51510  0.54200  Biso   1.000  C
  C16      1.0000 0.07840  0.51280  0.41420  Biso   1.000  C
  H8       1.0000 0.10200  0.49330  0.35790  Biso   1.000  H
  C17      1.0000 0.10390  0.56710  0.45140  Biso   1.000  C
  H9       1.0000 0.14500  0.58490  0.42120  Biso   1.000  H
  C18      1.0000 0.09830  0.65550  0.57720  Biso   1.000  C
  O7       1.0000 0.08742  0.33418  0.23960  Biso   1.000  O
  O8       1.0000 0.19349  0.32264  0.16730  Biso   1.000  O
  O9       1.0000 0.06920  0.68315  0.85610  Biso   1.000  O
  O10      1.0000 0.17970  0.68202  0.79160  Biso   1.000  O
  O11      1.0000 0.43740  0.31520  0.14150  Biso   1.000  O
  O12      1.0000 0.34110  0.32767  0.04750  Biso   1.000  O
  C19      1.0000 0.12940  0.41370  0.13110  Biso   1.000  C
  C20      1.0000 0.06660  0.44700  0.14610  Biso   1.000  C
  H10      1.0000 0.03040  0.43060  0.18910  Biso   1.000  H
  C21      1.0000 0.05710  0.50190  0.10050  Biso   1.000  C
  H11      1.0000 0.01530  0.52470  0.11530  Biso   1.000  H
  C22      1.0000 0.10760  0.52620  0.03150  Biso   1.000  C
  C23      1.0000 0.09690  0.58180  0.97700  Biso   1.000  C
  H12      1.0000 0.05490  0.60480  0.98920  Biso   1.000  H
  C24      1.0000 0.14560  0.60330  0.90730  Biso   1.000  C
  C25      1.0000 0.20880  0.57000  0.88990  Biso   1.000  C
  H13      1.0000 0.24310  0.58540  0.84260  Biso   1.000  H
  C26      1.0000 0.22100  0.51590  0.94040  Biso   1.000  C
  H14      1.0000 0.26370  0.49400  0.92730  Biso   1.000  H
  C27      1.0000 0.17070  0.49170  0.01240  Biso   1.000  C
  C28      1.0000 0.18060  0.43580  0.06510  Biso   1.000  C
  H15      1.0000 0.22310  0.41310  0.05490  Biso   1.000  H
  C29      1.0000 0.13730  0.35190  0.18360  Biso   1.000  C
  C30      1.0000 0.13000  0.66120  0.84610  Biso   1.000  C
  C31      1.0000 0.43050  0.40310  0.03450  Biso   1.000  C
  C32      1.0000 0.49040  0.42830  0.07760  Biso   1.000  C
  H16      1.0000 0.51390  0.40740  0.13230  Biso   1.000  H
  C33      1.0000 0.51740  0.48490  0.04200  Biso   1.000  C
  C34      1.0000 0.42160  0.48720  0.91420  Biso   1.000  C
  H17      1.0000 0.39800  0.50670  0.85790  Biso   1.000  H
  C35      1.0000 0.39610  0.43290  0.95140  Biso   1.000  C
  H18      1.0000 0.35500  0.41510  0.92120  Biso   1.000  H
  C36      1.0000 0.40170  0.34450  0.07720  Biso   1.000  C
  O13      1.0000 0.58742  0.16582  0.26040  Biso   1.000  O
  O14      1.0000 0.69349  0.17736  0.33270  Biso   1.000  O
  O15      1.0000 0.56920  0.81685  0.64390  Biso   1.000  O
  O16      1.0000 0.67970  0.81798  0.70840  Biso   1.000  O
  O17      1.0000 0.93740  0.18480  0.35850  Biso   1.000  O
  O18      1.0000 0.84110  0.17233  0.45250  Biso   1.000  O
  C37      1.0000 0.62940  0.08630  0.36890  Biso   1.000  C
  C38      1.0000 0.56660  0.05300  0.35390  Biso   1.000  C
  H19      1.0000 0.53040  0.06940  0.31090  Biso   1.000  H
  C39      1.0000 0.55710  0.99810  0.39950  Biso   1.000  C
  H20      1.0000 0.51530  0.97530  0.38470  Biso   1.000  H
  C40      1.0000 0.60760  0.97380  0.46850  Biso   1.000  C
  C41      1.0000 0.59690  0.91820  0.52300  Biso   1.000  C
  H21      1.0000 0.55490  0.89520  0.51080  Biso   1.000  H
  C42      1.0000 0.64560  0.89670  0.59270  Biso   1.000  C
  C43      1.0000 0.70880  0.93000  0.61010  Biso   1.000  C
  H22      1.0000 0.74310  0.91460  0.65740  Biso   1.000  H
  C44      1.0000 0.72100  0.98410  0.55960  Biso   1.000  C
  H23      1.0000 0.76370  0.00600  0.57270  Biso   1.000  H
  C45      1.0000 0.67070  0.00830  0.48760  Biso   1.000  C
  C46      1.0000 0.68060  0.06420  0.43490  Biso   1.000  C
  H24      1.0000 0.72310  0.08690  0.44510  Biso   1.000  H
  C47      1.0000 0.63730  0.14810  0.31640  Biso   1.000  C
  C48      1.0000 0.63000  0.83880  0.65390  Biso   1.000  C
  C49      1.0000 0.93050  0.09690  0.46550  Biso   1.000  C
  C50      1.0000 0.99040  0.07170  0.42240  Biso   1.000  C
  H25      1.0000 0.01390  0.09260  0.36770  Biso   1.000  H
  C51      1.0000 0.01740  0.01510  0.45800  Biso   1.000  C
  C52      1.0000 0.92160  0.01280  0.58580  Biso   1.000  C
  H26      1.0000 0.89800  0.99330  0.64210  Biso   1.000  H
  C53      1.0000 0.89610  0.06710  0.54860  Biso   1.000  C
  H27      1.0000 0.85500  0.08490  0.57880  Biso   1.000  H
  C54      1.0000 0.90170  0.15550  0.42280  Biso   1.000  C
  O19      1.0000 0.91258  0.83418  0.76040  Biso   1.000  O
  O20      1.0000 0.80651  0.82264  0.83270  Biso   1.000  O
  O21      1.0000 0.93080  0.18315  0.14390  Biso   1.000  O
  O22      1.0000 0.82030  0.18202  0.20840  Biso   1.000  O
  O23      1.0000 0.56260  0.81520  0.85850  Biso   1.000  O
  O24      1.0000 0.65890  0.82767  0.95250  Biso   1.000  O
  C55      1.0000 0.87060  0.91370  0.86890  Biso   1.000  C
  C56      1.0000 0.93340  0.94700  0.85390  Biso   1.000  C
  H28      1.0000 0.96960  0.93060  0.81090  Biso   1.000  H
  C57      1.0000 0.94290  0.00190  0.89950  Biso   1.000  C
  H29      1.0000 0.98470  0.02470  0.88470  Biso   1.000  H
  C58      1.0000 0.89240  0.02620  0.96850  Biso   1.000  C
  C59      1.0000 0.90310  0.08180  0.02300  Biso   1.000  C
  H30      1.0000 0.94510  0.10480  0.01080  Biso   1.000  H
  C60      1.0000 0.85440  0.10330  0.09270  Biso   1.000  C
  C61      1.0000 0.79120  0.07000  0.11010  Biso   1.000  C
  H31      1.0000 0.75690  0.08540  0.15740  Biso   1.000  H
  C62      1.0000 0.77900  0.01590  0.05960  Biso   1.000  C
  H32      1.0000 0.73630  0.99400  0.07270  Biso   1.000  H
  C63      1.0000 0.82930  0.99170  0.98760  Biso   1.000  C
  C64      1.0000 0.81940  0.93580  0.93490  Biso   1.000  C
  H33      1.0000 0.77690  0.91310  0.94510  Biso   1.000  H
  C65      1.0000 0.86270  0.85190  0.81640  Biso   1.000  C
  C66      1.0000 0.87000  0.16120  0.15390  Biso   1.000  C
  C67      1.0000 0.56950  0.90310  0.96550  Biso   1.000  C
  C68      1.0000 0.50960  0.92830  0.92240  Biso   1.000  C
  H34      1.0000 0.48610  0.90740  0.86770  Biso   1.000  H
  C69      1.0000 0.48260  0.98490  0.95800  Biso   1.000  C
  C70      1.0000 0.57840  0.98720  0.08580  Biso   1.000  C
  H35      1.0000 0.60200  0.00670  0.14210  Biso   1.000  H
  C71      1.0000 0.60390  0.93290  0.04860  Biso   1.000  C
  H36      1.0000 0.64500  0.91510  0.07880  Biso   1.000  H
  C72      1.0000 0.59830  0.84450  0.92280  Biso   1.000  C
  O25      1.0000 0.58742  0.33418  0.26040  Biso   1.000  O
  O26      1.0000 0.69349  0.32264  0.33270  Biso   1.000  O
  O27      1.0000 0.56920  0.68315  0.64390  Biso   1.000  O
  O28      1.0000 0.67970  0.68202  0.70840  Biso   1.000  O
  O29      1.0000 0.93740  0.31520  0.35850  Biso   1.000  O
  O30      1.0000 0.84110  0.32767  0.45250  Biso   1.000  O
  C73      1.0000 0.62940  0.41370  0.36890  Biso   1.000  C
  C74      1.0000 0.56660  0.44700  0.35390  Biso   1.000  C
  H37      1.0000 0.53040  0.43060  0.31090  Biso   1.000  H
  C75      1.0000 0.55710  0.50190  0.39950  Biso   1.000  C
  H38      1.0000 0.51530  0.52470  0.38470  Biso   1.000  H
  C76      1.0000 0.60760  0.52620  0.46850  Biso   1.000  C
  C77      1.0000 0.59690  0.58180  0.52300  Biso   1.000  C
  H39      1.0000 0.55490  0.60480  0.51080  Biso   1.000  H
  C78      1.0000 0.64560  0.60330  0.59270  Biso   1.000  C
  C79      1.0000 0.70880  0.57000  0.61010  Biso   1.000  C
  H40      1.0000 0.74310  0.58540  0.65740  Biso   1.000  H
  C80      1.0000 0.72100  0.51590  0.55960  Biso   1.000  C
  H41      1.0000 0.76370  0.49400  0.57270  Biso   1.000  H
  C81      1.0000 0.67070  0.49170  0.48760  Biso   1.000  C
  C82      1.0000 0.68060  0.43580  0.43490  Biso   1.000  C
  H42      1.0000 0.72310  0.41310  0.44510  Biso   1.000  H
  C83      1.0000 0.63730  0.35190  0.31640  Biso   1.000  C
  C84      1.0000 0.63000  0.66120  0.65390  Biso   1.000  C
  C85      1.0000 0.93050  0.40310  0.46550  Biso   1.000  C
  C86      1.0000 0.99040  0.42830  0.42240  Biso   1.000  C
  H43      1.0000 0.01390  0.40740  0.36770  Biso   1.000  H
  C87      1.0000 0.01740  0.48490  0.45800  Biso   1.000  C
  C88      1.0000 0.92160  0.48720  0.58580  Biso   1.000  C
  H44      1.0000 0.89800  0.50670  0.64210  Biso   1.000  H
  C89      1.0000 0.89610  0.43290  0.54860  Biso   1.000  C
  H45      1.0000 0.85500  0.41510  0.57880  Biso   1.000  H
  C90      1.0000 0.90170  0.34450  0.42280  Biso   1.000  C
  O31      1.0000 0.91258  0.66582  0.76040  Biso   1.000  O
  O32      1.0000 0.80651  0.67736  0.83270  Biso   1.000  O
  O33      1.0000 0.93080  0.31685  0.14390  Biso   1.000  O
  O34      1.0000 0.82030  0.31798  0.20840  Biso   1.000  O
  O35      1.0000 0.56260  0.68480  0.85850  Biso   1.000  O
  O36      1.0000 0.65890  0.67233  0.95250  Biso   1.000  O
  C91      1.0000 0.87060  0.58630  0.86890  Biso   1.000  C
  C92      1.0000 0.93340  0.55300  0.85390  Biso   1.000  C
  H46      1.0000 0.96960  0.56940  0.81090  Biso   1.000  H
  C93      1.0000 0.94290  0.49810  0.89950  Biso   1.000  C
  H47      1.0000 0.98470  0.47530  0.88470  Biso   1.000  H
  C94      1.0000 0.89240  0.47380  0.96850  Biso   1.000  C
  C95      1.0000 0.90310  0.41820  0.02300  Biso   1.000  C
  H48      1.0000 0.94510  0.39520  0.01080  Biso   1.000  H
  C96      1.0000 0.85440  0.39670  0.09270  Biso   1.000  C
  C97      1.0000 0.79120  0.43000  0.11010  Biso   1.000  C
  H49      1.0000 0.75690  0.41460  0.15740  Biso   1.000  H
  C98      1.0000 0.77900  0.48410  0.05960  Biso   1.000  C
  H50      1.0000 0.73630  0.50600  0.07270  Biso   1.000  H
  C99      1.0000 0.82930  0.50830  0.98760  Biso   1.000  C
  C100     1.0000 0.81940  0.56420  0.93490  Biso   1.000  C
  H51      1.0000 0.77690  0.58690  0.94510  Biso   1.000  H
  C101     1.0000 0.86270  0.64810  0.81640  Biso   1.000  C
  C102     1.0000 0.87000  0.33880  0.15390  Biso   1.000  C
  C103     1.0000 0.56950  0.59690  0.96550  Biso   1.000  C
  C104     1.0000 0.50960  0.57170  0.92240  Biso   1.000  C
  H52      1.0000 0.48610  0.59260  0.86770  Biso   1.000  H
  C105     1.0000 0.48260  0.51510  0.95800  Biso   1.000  C
  C106     1.0000 0.57840  0.51280  0.08580  Biso   1.000  C
  H53      1.0000 0.60200  0.49330  0.14210  Biso   1.000  H
  C107     1.0000 0.60390  0.56710  0.04860  Biso   1.000  C
  H54      1.0000 0.64500  0.58490  0.07880  Biso   1.000  H
  C108     1.0000 0.59830  0.65550  0.92280  Biso   1.000  C
  O37      1.0000 0.41258  0.83418  0.73960  Biso   1.000  O
  O38      1.0000 0.30651  0.82264  0.66730  Biso   1.000  O
  O39      1.0000 0.43080  0.18315  0.35610  Biso   1.000  O
  O40      1.0000 0.32030  0.18202  0.29160  Biso   1.000  O
  O41      1.0000 0.06260  0.81520  0.64150  Biso   1.000  O
  O42      1.0000 0.15890  0.82767  0.54750  Biso   1.000  O
  C109     1.0000 0.37060  0.91370  0.63110  Biso   1.000  C
  C110     1.0000 0.43340  0.94700  0.64610  Biso   1.000  C
  H55      1.0000 0.46960  0.93060  0.68910  Biso   1.000  H
  C111     1.0000 0.44290  0.00190  0.60050  Biso   1.000  C
  H56      1.0000 0.48470  0.02470  0.61530  Biso   1.000  H
  C112     1.0000 0.39240  0.02620  0.53150  Biso   1.000  C
  C113     1.0000 0.40310  0.08180  0.47700  Biso   1.000  C
  H57      1.0000 0.44510  0.10480  0.48920  Biso   1.000  H
  C114     1.0000 0.35440  0.10330  0.40730  Biso   1.000  C
  C115     1.0000 0.29120  0.07000  0.38990  Biso   1.000  C
  H58      1.0000 0.25690  0.08540  0.34260  Biso   1.000  H
  C116     1.0000 0.27900  0.01590  0.44040  Biso   1.000  C
  H59      1.0000 0.23630  0.99400  0.42730  Biso   1.000  H
  C117     1.0000 0.32930  0.99170  0.51240  Biso   1.000  C
  C118     1.0000 0.31940  0.93580  0.56510  Biso   1.000  C
  H60      1.0000 0.27690  0.91310  0.55490  Biso   1.000  H
  C119     1.0000 0.36270  0.85190  0.68360  Biso   1.000  C
  C120     1.0000 0.37000  0.16120  0.34610  Biso   1.000  C
  C121     1.0000 0.06950  0.90310  0.53450  Biso   1.000  C
  C122     1.0000 0.00960  0.92830  0.57760  Biso   1.000  C
  H61      1.0000 0.98610  0.90740  0.63230  Biso   1.000  H
  C123     1.0000 0.98260  0.98490  0.54200  Biso   1.000  C
  C124     1.0000 0.07840  0.98720  0.41420  Biso   1.000  C
  H62      1.0000 0.10200  0.00670  0.35790  Biso   1.000  H
  C125     1.0000 0.10390  0.93290  0.45140  Biso   1.000  C
  H63      1.0000 0.14500  0.91510  0.42120  Biso   1.000  H
  C126     1.0000 0.09830  0.84450  0.57720  Biso   1.000  C
  O43      1.0000 0.08742  0.16582  0.23960  Biso   1.000  O
  O44      1.0000 0.19349  0.17736  0.16730  Biso   1.000  O
  O45      1.0000 0.06920  0.81685  0.85610  Biso   1.000  O
  O46      1.0000 0.17970  0.81798  0.79160  Biso   1.000  O
  O47      1.0000 0.43740  0.18480  0.14150  Biso   1.000  O
  O48      1.0000 0.34110  0.17233  0.04750  Biso   1.000  O
  C127     1.0000 0.12940  0.08630  0.13110  Biso   1.000  C
  C128     1.0000 0.06660  0.05300  0.14610  Biso   1.000  C
  H64      1.0000 0.03040  0.06940  0.18910  Biso   1.000  H
  C129     1.0000 0.05710  0.99810  0.10050  Biso   1.000  C
  H65      1.0000 0.01530  0.97530  0.11530  Biso   1.000  H
  C130     1.0000 0.10760  0.97380  0.03150  Biso   1.000  C
  C131     1.0000 0.09690  0.91820  0.97700  Biso   1.000  C
  H66      1.0000 0.05490  0.89520  0.98920  Biso   1.000  H
  C132     1.0000 0.14560  0.89670  0.90730  Biso   1.000  C
  C133     1.0000 0.20880  0.93000  0.88990  Biso   1.000  C
  H67      1.0000 0.24310  0.91460  0.84260  Biso   1.000  H
  C134     1.0000 0.22100  0.98410  0.94040  Biso   1.000  C
  H68      1.0000 0.26370  0.00600  0.92730  Biso   1.000  H
  C135     1.0000 0.17070  0.00830  0.01240  Biso   1.000  C
  C136     1.0000 0.18060  0.06420  0.06510  Biso   1.000  C
  H69      1.0000 0.22310  0.08690  0.05490  Biso   1.000  H
  C137     1.0000 0.13730  0.14810  0.18360  Biso   1.000  C
  C138     1.0000 0.13000  0.83880  0.84610  Biso   1.000  C
  C139     1.0000 0.43050  0.09690  0.03450  Biso   1.000  C
  C140     1.0000 0.49040  0.07170  0.07760  Biso   1.000  C
  H70      1.0000 0.51390  0.09260  0.13230  Biso   1.000  H
  C141     1.0000 0.51740  0.01510  0.04200  Biso   1.000  C
  C142     1.0000 0.42160  0.01280  0.91420  Biso   1.000  C
  H71      1.0000 0.39800  0.99330  0.85790  Biso   1.000  H
  C143     1.0000 0.39610  0.06710  0.95140  Biso   1.000  C
  H72      1.0000 0.35500  0.08490  0.92120  Biso   1.000  H
  C144     1.0000 0.40170  0.15550  0.07720  Biso   1.000  C
  Nd1      1.0000 0.49467  0.75000  0.74718  Biso   1.000  Nd
  Nd2      1.0000 0.21465  0.75000  0.65527  Biso   1.000  Nd
  Nd3      1.0000 0.00533  0.25000  0.24718  Biso   1.000  Nd
  Nd4      1.0000 0.28535  0.25000  0.15527  Biso   1.000  Nd
  Nd5      1.0000 0.50533  0.25000  0.25282  Biso   1.000  Nd
  Nd6      1.0000 0.78535  0.25000  0.34473  Biso   1.000  Nd
  Nd7      1.0000 0.99467  0.75000  0.75282  Biso   1.000  Nd
  Nd8      1.0000 0.71465  0.75000  0.84473  Biso   1.000  Nd
