data_image0
_cell_length_a       13.851
_cell_length_b       13.851
_cell_length_c       58.358
_cell_angle_alpha    90
_cell_angle_beta     90
_cell_angle_gamma    120

_symmetry_space_group_name_H-M    "P 1"
_symmetry_int_tables_number       1

loop_
  _symmetry_equiv_pos_as_xyz
  'x, y, z'

loop_
  _atom_site_label
  _atom_site_occupancy
  _atom_site_fract_x
  _atom_site_fract_y
  _atom_site_fract_z
  _atom_site_thermal_displace_type
  _atom_site_B_iso_or_equiv
  _atom_site_type_symbol
  C1       1.0000 0.24660  0.15980  0.01775  Biso   1.000  C
  H1       1.0000 0.26000  0.21160  0.00630  Biso   1.000  H
  C2       1.0000 0.32360  0.16840  0.03312  Biso   1.000  C
  H2       1.0000 0.39780  0.22450  0.03410  Biso   1.000  H
  C3       1.0000 0.16370  0.01720  0.03898  Biso   1.000  C
  H3       1.0000 0.10950  0.95000  0.04530  Biso   1.000  H
  C4       1.0000 0.31430  0.04870  0.06586  Biso   1.000  C
  C5       1.0000 0.41740  0.12000  0.07442  Biso   1.000  C
  H4       1.0000 0.46150  0.19070  0.06820  Biso   1.000  H
  N1       1.0000 0.14730  0.06550  0.02125  Biso   1.000  N
  N2       1.0000 0.26900  0.07680  0.04698  Biso   1.000  N
  N3       1.0000 0.24930  0.95060  0.07399  Biso   1.000  N
  C6       1.0000 0.91327  0.49313  0.35108  Biso   1.000  C
  H5       1.0000 0.92667  0.54493  0.33963  Biso   1.000  H
  C7       1.0000 0.99027  0.50173  0.36645  Biso   1.000  C
  H6       1.0000 0.06447  0.55783  0.36743  Biso   1.000  H
  C8       1.0000 0.83037  0.35053  0.37231  Biso   1.000  C
  H7       1.0000 0.77617  0.28333  0.37863  Biso   1.000  H
  C9       1.0000 0.98097  0.38203  0.39919  Biso   1.000  C
  C10      1.0000 0.08407  0.45333  0.40775  Biso   1.000  C
  H8       1.0000 0.12817  0.52403  0.40153  Biso   1.000  H
  N4       1.0000 0.81397  0.39883  0.35458  Biso   1.000  N
  N5       1.0000 0.93567  0.41013  0.38031  Biso   1.000  N
  N6       1.0000 0.91597  0.28393  0.40732  Biso   1.000  N
  C11      1.0000 0.57993  0.82647  0.68442  Biso   1.000  C
  H9       1.0000 0.59333  0.87827  0.67297  Biso   1.000  H
  C12      1.0000 0.65693  0.83507  0.69979  Biso   1.000  C
  H10      1.0000 0.73113  0.89117  0.70077  Biso   1.000  H
  C13      1.0000 0.49703  0.68387  0.70565  Biso   1.000  C
  H11      1.0000 0.44283  0.61667  0.71197  Biso   1.000  H
  C14      1.0000 0.64763  0.71537  0.73253  Biso   1.000  C
  C15      1.0000 0.75073  0.78667  0.74109  Biso   1.000  C
  H12      1.0000 0.79483  0.85737  0.73487  Biso   1.000  H
  N7       1.0000 0.48063  0.73217  0.68792  Biso   1.000  N
  N8       1.0000 0.60233  0.74347  0.71365  Biso   1.000  N
  N9       1.0000 0.58263  0.61727  0.74066  Biso   1.000  N
  C16      1.0000 0.84020  0.08680  0.01775  Biso   1.000  C
  H13      1.0000 0.78840  0.04840  0.00630  Biso   1.000  H
  C17      1.0000 0.83160  0.15520  0.03312  Biso   1.000  C
  H14      1.0000 0.77550  0.17330  0.03410  Biso   1.000  H
  C18      1.0000 0.98280  0.14650  0.03898  Biso   1.000  C
  H15      1.0000 0.05000  0.15950  0.04530  Biso   1.000  H
  C19      1.0000 0.95130  0.26560  0.06586  Biso   1.000  C
  C20      1.0000 0.88000  0.29740  0.07442  Biso   1.000  C
  H16      1.0000 0.80930  0.27080  0.06820  Biso   1.000  H
  N10      1.0000 0.93450  0.08180  0.02125  Biso   1.000  N
  N11      1.0000 0.92320  0.19220  0.04698  Biso   1.000  N
  N12      1.0000 0.04940  0.29870  0.07399  Biso   1.000  N
  C21      1.0000 0.50687  0.42013  0.35108  Biso   1.000  C
  H17      1.0000 0.45507  0.38173  0.33963  Biso   1.000  H
  C22      1.0000 0.49827  0.48853  0.36645  Biso   1.000  C
  H18      1.0000 0.44217  0.50663  0.36743  Biso   1.000  H
  C23      1.0000 0.64947  0.47983  0.37231  Biso   1.000  C
  H19      1.0000 0.71667  0.49283  0.37863  Biso   1.000  H
  C24      1.0000 0.61797  0.59893  0.39919  Biso   1.000  C
  C25      1.0000 0.54667  0.63073  0.40775  Biso   1.000  C
  H20      1.0000 0.47597  0.60413  0.40153  Biso   1.000  H
  N13      1.0000 0.60117  0.41513  0.35458  Biso   1.000  N
  N14      1.0000 0.58987  0.52553  0.38031  Biso   1.000  N
  N15      1.0000 0.71607  0.63203  0.40732  Biso   1.000  N
  C26      1.0000 0.17353  0.75347  0.68442  Biso   1.000  C
  H21      1.0000 0.12173  0.71507  0.67297  Biso   1.000  H
  C27      1.0000 0.16493  0.82187  0.69979  Biso   1.000  C
  H22      1.0000 0.10883  0.83997  0.70077  Biso   1.000  H
  C28      1.0000 0.31613  0.81317  0.70565  Biso   1.000  C
  H23      1.0000 0.38333  0.82617  0.71197  Biso   1.000  H
  C29      1.0000 0.28463  0.93227  0.73253  Biso   1.000  C
  C30      1.0000 0.21333  0.96407  0.74109  Biso   1.000  C
  H24      1.0000 0.14263  0.93747  0.73487  Biso   1.000  H
  N16      1.0000 0.26783  0.74847  0.68792  Biso   1.000  N
  N17      1.0000 0.25653  0.85887  0.71365  Biso   1.000  N
  N18      1.0000 0.38273  0.96537  0.74066  Biso   1.000  N
  C31      1.0000 0.91320  0.75340  0.01775  Biso   1.000  C
  H25      1.0000 0.95160  0.74000  0.00630  Biso   1.000  H
  C32      1.0000 0.84480  0.67640  0.03312  Biso   1.000  C
  H26      1.0000 0.82670  0.60220  0.03410  Biso   1.000  H
  C33      1.0000 0.85350  0.83630  0.03898  Biso   1.000  C
  H27      1.0000 0.84050  0.89050  0.04530  Biso   1.000  H
  C34      1.0000 0.73440  0.68570  0.06586  Biso   1.000  C
  C35      1.0000 0.70260  0.58260  0.07442  Biso   1.000  C
  H28      1.0000 0.72920  0.53850  0.06820  Biso   1.000  H
  N19      1.0000 0.91820  0.85270  0.02125  Biso   1.000  N
  N20      1.0000 0.80780  0.73100  0.04698  Biso   1.000  N
  N21      1.0000 0.70130  0.75070  0.07399  Biso   1.000  N
  C36      1.0000 0.57987  0.08673  0.35108  Biso   1.000  C
  H29      1.0000 0.61827  0.07333  0.33963  Biso   1.000  H
  C37      1.0000 0.51147  0.00973  0.36645  Biso   1.000  C
  H30      1.0000 0.49337  0.93553  0.36743  Biso   1.000  H
  C38      1.0000 0.52017  0.16963  0.37231  Biso   1.000  C
  H31      1.0000 0.50717  0.22383  0.37863  Biso   1.000  H
  C39      1.0000 0.40107  0.01903  0.39919  Biso   1.000  C
  C40      1.0000 0.36927  0.91593  0.40775  Biso   1.000  C
  H32      1.0000 0.39587  0.87183  0.40153  Biso   1.000  H
  N22      1.0000 0.58487  0.18603  0.35458  Biso   1.000  N
  N23      1.0000 0.47447  0.06433  0.38031  Biso   1.000  N
  N24      1.0000 0.36797  0.08403  0.40732  Biso   1.000  N
  C41      1.0000 0.24653  0.42007  0.68442  Biso   1.000  C
  H33      1.0000 0.28493  0.40667  0.67297  Biso   1.000  H
  C42      1.0000 0.17813  0.34307  0.69979  Biso   1.000  C
  H34      1.0000 0.16003  0.26887  0.70077  Biso   1.000  H
  C43      1.0000 0.18683  0.50297  0.70565  Biso   1.000  C
  H35      1.0000 0.17383  0.55717  0.71197  Biso   1.000  H
  C44      1.0000 0.06773  0.35237  0.73253  Biso   1.000  C
  C45      1.0000 0.03593  0.24927  0.74109  Biso   1.000  C
  H36      1.0000 0.06253  0.20517  0.73487  Biso   1.000  H
  N25      1.0000 0.25153  0.51937  0.68792  Biso   1.000  N
  N26      1.0000 0.14113  0.39767  0.71365  Biso   1.000  N
  N27      1.0000 0.03463  0.41737  0.74066  Biso   1.000  N
  C46      1.0000 0.15980  0.24660  0.48225  Biso   1.000  C
  H37      1.0000 0.21160  0.26000  0.49370  Biso   1.000  H
  C47      1.0000 0.16840  0.32360  0.46688  Biso   1.000  C
  H38      1.0000 0.22450  0.39780  0.46590  Biso   1.000  H
  C48      1.0000 0.01720  0.16370  0.46102  Biso   1.000  C
  H39      1.0000 0.95000  0.10950  0.45470  Biso   1.000  H
  C49      1.0000 0.04870  0.31430  0.43414  Biso   1.000  C
  C50      1.0000 0.12000  0.41740  0.42558  Biso   1.000  C
  H40      1.0000 0.19070  0.46150  0.43180  Biso   1.000  H
  N28      1.0000 0.06550  0.14730  0.47875  Biso   1.000  N
  N29      1.0000 0.07680  0.26900  0.45302  Biso   1.000  N
  N30      1.0000 0.95060  0.24930  0.42601  Biso   1.000  N
  C51      1.0000 0.82647  0.57993  0.81558  Biso   1.000  C
  H41      1.0000 0.87827  0.59333  0.82703  Biso   1.000  H
  C52      1.0000 0.83507  0.65693  0.80021  Biso   1.000  C
  H42      1.0000 0.89117  0.73113  0.79923  Biso   1.000  H
  C53      1.0000 0.68387  0.49703  0.79435  Biso   1.000  C
  H43      1.0000 0.61667  0.44283  0.78803  Biso   1.000  H
  C54      1.0000 0.71537  0.64763  0.76747  Biso   1.000  C
  C55      1.0000 0.78667  0.75073  0.75891  Biso   1.000  C
  H44      1.0000 0.85737  0.79483  0.76513  Biso   1.000  H
  N31      1.0000 0.73217  0.48063  0.81208  Biso   1.000  N
  N32      1.0000 0.74347  0.60233  0.78635  Biso   1.000  N
  N33      1.0000 0.61727  0.58263  0.75934  Biso   1.000  N
  C56      1.0000 0.49313  0.91327  0.14892  Biso   1.000  C
  H45      1.0000 0.54493  0.92667  0.16037  Biso   1.000  H
  C57      1.0000 0.50173  0.99027  0.13355  Biso   1.000  C
  H46      1.0000 0.55783  0.06447  0.13257  Biso   1.000  H
  C58      1.0000 0.35053  0.83037  0.12769  Biso   1.000  C
  H47      1.0000 0.28333  0.77617  0.12137  Biso   1.000  H
  C59      1.0000 0.38203  0.98097  0.10081  Biso   1.000  C
  C60      1.0000 0.45333  0.08407  0.09225  Biso   1.000  C
  H48      1.0000 0.52403  0.12817  0.09847  Biso   1.000  H
  N34      1.0000 0.39883  0.81397  0.14542  Biso   1.000  N
  N35      1.0000 0.41013  0.93567  0.11969  Biso   1.000  N
  N36      1.0000 0.28393  0.91597  0.09268  Biso   1.000  N
  C61      1.0000 0.08680  0.84020  0.48225  Biso   1.000  C
  H49      1.0000 0.04840  0.78840  0.49370  Biso   1.000  H
  C62      1.0000 0.15520  0.83160  0.46688  Biso   1.000  C
  H50      1.0000 0.17330  0.77550  0.46590  Biso   1.000  H
  C63      1.0000 0.14650  0.98280  0.46102  Biso   1.000  C
  H51      1.0000 0.15950  0.05000  0.45470  Biso   1.000  H
  C64      1.0000 0.26560  0.95130  0.43414  Biso   1.000  C
  C65      1.0000 0.29740  0.88000  0.42558  Biso   1.000  C
  H52      1.0000 0.27080  0.80930  0.43180  Biso   1.000  H
  N37      1.0000 0.08180  0.93450  0.47875  Biso   1.000  N
  N38      1.0000 0.19220  0.92320  0.45302  Biso   1.000  N
  N39      1.0000 0.29870  0.04940  0.42601  Biso   1.000  N
  C66      1.0000 0.75347  0.17353  0.81558  Biso   1.000  C
  H53      1.0000 0.71507  0.12173  0.82703  Biso   1.000  H
  C67      1.0000 0.82187  0.16493  0.80021  Biso   1.000  C
  H54      1.0000 0.83997  0.10883  0.79923  Biso   1.000  H
  C68      1.0000 0.81317  0.31613  0.79435  Biso   1.000  C
  H55      1.0000 0.82617  0.38333  0.78803  Biso   1.000  H
  C69      1.0000 0.93227  0.28463  0.76747  Biso   1.000  C
  C70      1.0000 0.96407  0.21333  0.75891  Biso   1.000  C
  H56      1.0000 0.93747  0.14263  0.76513  Biso   1.000  H
  N40      1.0000 0.74847  0.26783  0.81208  Biso   1.000  N
  N41      1.0000 0.85887  0.25653  0.78635  Biso   1.000  N
  N42      1.0000 0.96537  0.38273  0.75934  Biso   1.000  N
  C71      1.0000 0.42013  0.50687  0.14892  Biso   1.000  C
  H57      1.0000 0.38173  0.45507  0.16037  Biso   1.000  H
  C72      1.0000 0.48853  0.49827  0.13355  Biso   1.000  C
  H58      1.0000 0.50663  0.44217  0.13257  Biso   1.000  H
  C73      1.0000 0.47983  0.64947  0.12769  Biso   1.000  C
  H59      1.0000 0.49283  0.71667  0.12137  Biso   1.000  H
  C74      1.0000 0.59893  0.61797  0.10081  Biso   1.000  C
  C75      1.0000 0.63073  0.54667  0.09225  Biso   1.000  C
  H60      1.0000 0.60413  0.47597  0.09847  Biso   1.000  H
  N43      1.0000 0.41513  0.60117  0.14542  Biso   1.000  N
  N44      1.0000 0.52553  0.58987  0.11969  Biso   1.000  N
  N45      1.0000 0.63203  0.71607  0.09268  Biso   1.000  N
  C76      1.0000 0.75340  0.91320  0.48225  Biso   1.000  C
  H61      1.0000 0.74000  0.95160  0.49370  Biso   1.000  H
  C77      1.0000 0.67640  0.84480  0.46688  Biso   1.000  C
  H62      1.0000 0.60220  0.82670  0.46590  Biso   1.000  H
  C78      1.0000 0.83630  0.85350  0.46102  Biso   1.000  C
  H63      1.0000 0.89050  0.84050  0.45470  Biso   1.000  H
  C79      1.0000 0.68570  0.73440  0.43414  Biso   1.000  C
  C80      1.0000 0.58260  0.70260  0.42558  Biso   1.000  C
  H64      1.0000 0.53850  0.72920  0.43180  Biso   1.000  H
  N46      1.0000 0.85270  0.91820  0.47875  Biso   1.000  N
  N47      1.0000 0.73100  0.80780  0.45302  Biso   1.000  N
  N48      1.0000 0.75070  0.70130  0.42601  Biso   1.000  N
  C81      1.0000 0.42007  0.24653  0.81558  Biso   1.000  C
  H65      1.0000 0.40667  0.28493  0.82703  Biso   1.000  H
  C82      1.0000 0.34307  0.17813  0.80021  Biso   1.000  C
  H66      1.0000 0.26887  0.16003  0.79923  Biso   1.000  H
  C83      1.0000 0.50297  0.18683  0.79435  Biso   1.000  C
  H67      1.0000 0.55717  0.17383  0.78803  Biso   1.000  H
  C84      1.0000 0.35237  0.06773  0.76747  Biso   1.000  C
  C85      1.0000 0.24927  0.03593  0.75891  Biso   1.000  C
  H68      1.0000 0.20517  0.06253  0.76513  Biso   1.000  H
  N49      1.0000 0.51937  0.25153  0.81208  Biso   1.000  N
  N50      1.0000 0.39767  0.14113  0.78635  Biso   1.000  N
  N51      1.0000 0.41737  0.03463  0.75934  Biso   1.000  N
  C86      1.0000 0.08673  0.57987  0.14892  Biso   1.000  C
  H69      1.0000 0.07333  0.61827  0.16037  Biso   1.000  H
  C87      1.0000 0.00973  0.51147  0.13355  Biso   1.000  C
  H70      1.0000 0.93553  0.49337  0.13257  Biso   1.000  H
  C88      1.0000 0.16963  0.52017  0.12769  Biso   1.000  C
  H71      1.0000 0.22383  0.50717  0.12137  Biso   1.000  H
  C89      1.0000 0.01903  0.40107  0.10081  Biso   1.000  C
  C90      1.0000 0.91593  0.36927  0.09225  Biso   1.000  C
  H72      1.0000 0.87183  0.39587  0.09847  Biso   1.000  H
  N52      1.0000 0.18603  0.58487  0.14542  Biso   1.000  N
  N53      1.0000 0.06433  0.47447  0.11969  Biso   1.000  N
  N54      1.0000 0.08403  0.36797  0.09268  Biso   1.000  N
  C91      1.0000 0.75340  0.84020  0.98225  Biso   1.000  C
  H73      1.0000 0.74000  0.78840  0.99370  Biso   1.000  H
  C92      1.0000 0.67640  0.83160  0.96688  Biso   1.000  C
  H74      1.0000 0.60220  0.77550  0.96590  Biso   1.000  H
  C93      1.0000 0.83630  0.98280  0.96102  Biso   1.000  C
  H75      1.0000 0.89050  0.05000  0.95470  Biso   1.000  H
  C94      1.0000 0.68570  0.95130  0.93414  Biso   1.000  C
  C95      1.0000 0.58260  0.88000  0.92558  Biso   1.000  C
  H76      1.0000 0.53850  0.80930  0.93180  Biso   1.000  H
  N55      1.0000 0.85270  0.93450  0.97875  Biso   1.000  N
  N56      1.0000 0.73100  0.92320  0.95302  Biso   1.000  N
  N57      1.0000 0.75070  0.04940  0.92601  Biso   1.000  N
  C96      1.0000 0.42007  0.17353  0.31558  Biso   1.000  C
  H77      1.0000 0.40667  0.12173  0.32703  Biso   1.000  H
  C97      1.0000 0.34307  0.16493  0.30021  Biso   1.000  C
  H78      1.0000 0.26887  0.10883  0.29923  Biso   1.000  H
  C98      1.0000 0.50297  0.31613  0.29435  Biso   1.000  C
  H79      1.0000 0.55717  0.38333  0.28803  Biso   1.000  H
  C99      1.0000 0.35237  0.28463  0.26747  Biso   1.000  C
  C100     1.0000 0.24927  0.21333  0.25891  Biso   1.000  C
  H80      1.0000 0.20517  0.14263  0.26513  Biso   1.000  H
  N58      1.0000 0.51937  0.26783  0.31208  Biso   1.000  N
  N59      1.0000 0.39767  0.25653  0.28635  Biso   1.000  N
  N60      1.0000 0.41737  0.38273  0.25934  Biso   1.000  N
  C101     1.0000 0.08673  0.50687  0.64892  Biso   1.000  C
  H81      1.0000 0.07333  0.45507  0.66037  Biso   1.000  H
  C102     1.0000 0.00973  0.49827  0.63355  Biso   1.000  C
  H82      1.0000 0.93553  0.44217  0.63257  Biso   1.000  H
  C103     1.0000 0.16963  0.64947  0.62769  Biso   1.000  C
  H83      1.0000 0.22383  0.71667  0.62137  Biso   1.000  H
  C104     1.0000 0.01903  0.61797  0.60081  Biso   1.000  C
  C105     1.0000 0.91593  0.54667  0.59225  Biso   1.000  C
  H84      1.0000 0.87183  0.47597  0.59847  Biso   1.000  H
  N61      1.0000 0.18603  0.60117  0.64542  Biso   1.000  N
  N62      1.0000 0.06433  0.58987  0.61969  Biso   1.000  N
  N63      1.0000 0.08403  0.71607  0.59268  Biso   1.000  N
  C106     1.0000 0.15980  0.91320  0.98225  Biso   1.000  C
  H85      1.0000 0.21160  0.95160  0.99370  Biso   1.000  H
  C107     1.0000 0.16840  0.84480  0.96688  Biso   1.000  C
  H86      1.0000 0.22450  0.82670  0.96590  Biso   1.000  H
  C108     1.0000 0.01720  0.85350  0.96102  Biso   1.000  C
  H87      1.0000 0.95000  0.84050  0.95470  Biso   1.000  H
  C109     1.0000 0.04870  0.73440  0.93414  Biso   1.000  C
  C110     1.0000 0.12000  0.70260  0.92558  Biso   1.000  C
  H88      1.0000 0.19070  0.72920  0.93180  Biso   1.000  H
  N64      1.0000 0.06550  0.91820  0.97875  Biso   1.000  N
  N65      1.0000 0.07680  0.80780  0.95302  Biso   1.000  N
  N66      1.0000 0.95060  0.70130  0.92601  Biso   1.000  N
  C111     1.0000 0.82647  0.24653  0.31558  Biso   1.000  C
  H89      1.0000 0.87827  0.28493  0.32703  Biso   1.000  H
  C112     1.0000 0.83507  0.17813  0.30021  Biso   1.000  C
  H90      1.0000 0.89117  0.16003  0.29923  Biso   1.000  H
  C113     1.0000 0.68387  0.18683  0.29435  Biso   1.000  C
  H91      1.0000 0.61667  0.17383  0.28803  Biso   1.000  H
  C114     1.0000 0.71537  0.06773  0.26747  Biso   1.000  C
  C115     1.0000 0.78667  0.03593  0.25891  Biso   1.000  C
  H92      1.0000 0.85737  0.06253  0.26513  Biso   1.000  H
  N67      1.0000 0.73217  0.25153  0.31208  Biso   1.000  N
  N68      1.0000 0.74347  0.14113  0.28635  Biso   1.000  N
  N69      1.0000 0.61727  0.03463  0.25934  Biso   1.000  N
  C116     1.0000 0.49313  0.57987  0.64892  Biso   1.000  C
  H93      1.0000 0.54493  0.61827  0.66037  Biso   1.000  H
  C117     1.0000 0.50173  0.51147  0.63355  Biso   1.000  C
  H94      1.0000 0.55783  0.49337  0.63257  Biso   1.000  H
  C118     1.0000 0.35053  0.52017  0.62769  Biso   1.000  C
  H95      1.0000 0.28333  0.50717  0.62137  Biso   1.000  H
  C119     1.0000 0.38203  0.40107  0.60081  Biso   1.000  C
  C120     1.0000 0.45333  0.36927  0.59225  Biso   1.000  C
  H96      1.0000 0.52403  0.39587  0.59847  Biso   1.000  H
  N70      1.0000 0.39883  0.58487  0.64542  Biso   1.000  N
  N71      1.0000 0.41013  0.47447  0.61969  Biso   1.000  N
  N72      1.0000 0.28393  0.36797  0.59268  Biso   1.000  N
  C121     1.0000 0.08680  0.24660  0.98225  Biso   1.000  C
  H97      1.0000 0.04840  0.26000  0.99370  Biso   1.000  H
  C122     1.0000 0.15520  0.32360  0.96688  Biso   1.000  C
  H98      1.0000 0.17330  0.39780  0.96590  Biso   1.000  H
  C123     1.0000 0.14650  0.16370  0.96102  Biso   1.000  C
  H99      1.0000 0.15950  0.10950  0.95470  Biso   1.000  H
  C124     1.0000 0.26560  0.31430  0.93414  Biso   1.000  C
  C125     1.0000 0.29740  0.41740  0.92558  Biso   1.000  C
  H100     1.0000 0.27080  0.46150  0.93180  Biso   1.000  H
  N73      1.0000 0.08180  0.14730  0.97875  Biso   1.000  N
  N74      1.0000 0.19220  0.26900  0.95302  Biso   1.000  N
  N75      1.0000 0.29870  0.24930  0.92601  Biso   1.000  N
  C126     1.0000 0.75347  0.57993  0.31558  Biso   1.000  C
  H101     1.0000 0.71507  0.59333  0.32703  Biso   1.000  H
  C127     1.0000 0.82187  0.65693  0.30021  Biso   1.000  C
  H102     1.0000 0.83997  0.73113  0.29923  Biso   1.000  H
  C128     1.0000 0.81317  0.49703  0.29435  Biso   1.000  C
  H103     1.0000 0.82617  0.44283  0.28803  Biso   1.000  H
  C129     1.0000 0.93227  0.64763  0.26747  Biso   1.000  C
  C130     1.0000 0.96407  0.75073  0.25891  Biso   1.000  C
  H104     1.0000 0.93747  0.79483  0.26513  Biso   1.000  H
  N76      1.0000 0.74847  0.48063  0.31208  Biso   1.000  N
  N77      1.0000 0.85887  0.60233  0.28635  Biso   1.000  N
  N78      1.0000 0.96537  0.58263  0.25934  Biso   1.000  N
  C131     1.0000 0.42013  0.91327  0.64892  Biso   1.000  C
  H105     1.0000 0.38173  0.92667  0.66037  Biso   1.000  H
  C132     1.0000 0.48853  0.99027  0.63355  Biso   1.000  C
  H106     1.0000 0.50663  0.06447  0.63257  Biso   1.000  H
  C133     1.0000 0.47983  0.83037  0.62769  Biso   1.000  C
  H107     1.0000 0.49283  0.77617  0.62137  Biso   1.000  H
  C134     1.0000 0.59893  0.98097  0.60081  Biso   1.000  C
  C135     1.0000 0.63073  0.08407  0.59225  Biso   1.000  C
  H108     1.0000 0.60413  0.12817  0.59847  Biso   1.000  H
  N79      1.0000 0.41513  0.81397  0.64542  Biso   1.000  N
  N80      1.0000 0.52553  0.93567  0.61969  Biso   1.000  N
  N81      1.0000 0.63203  0.91597  0.59268  Biso   1.000  N
  C136     1.0000 0.84020  0.75340  0.51775  Biso   1.000  C
  H109     1.0000 0.78840  0.74000  0.50630  Biso   1.000  H
  C137     1.0000 0.83160  0.67640  0.53312  Biso   1.000  C
  H110     1.0000 0.77550  0.60220  0.53410  Biso   1.000  H
  C138     1.0000 0.98280  0.83630  0.53898  Biso   1.000  C
  H111     1.0000 0.05000  0.89050  0.54530  Biso   1.000  H
  C139     1.0000 0.95130  0.68570  0.56586  Biso   1.000  C
  C140     1.0000 0.88000  0.58260  0.57442  Biso   1.000  C
  H112     1.0000 0.80930  0.53850  0.56820  Biso   1.000  H
  N82      1.0000 0.93450  0.85270  0.52125  Biso   1.000  N
  N83      1.0000 0.92320  0.73100  0.54698  Biso   1.000  N
  N84      1.0000 0.04940  0.75070  0.57399  Biso   1.000  N
  C141     1.0000 0.50687  0.08673  0.85108  Biso   1.000  C
  H113     1.0000 0.45507  0.07333  0.83963  Biso   1.000  H
  C142     1.0000 0.49827  0.00973  0.86645  Biso   1.000  C
  H114     1.0000 0.44217  0.93553  0.86743  Biso   1.000  H
  C143     1.0000 0.64947  0.16963  0.87231  Biso   1.000  C
  H115     1.0000 0.71667  0.22383  0.87863  Biso   1.000  H
  C144     1.0000 0.61797  0.01903  0.89919  Biso   1.000  C
  C145     1.0000 0.54667  0.91593  0.90775  Biso   1.000  C
  H116     1.0000 0.47597  0.87183  0.90153  Biso   1.000  H
  N85      1.0000 0.60117  0.18603  0.85458  Biso   1.000  N
  N86      1.0000 0.58987  0.06433  0.88031  Biso   1.000  N
  N87      1.0000 0.71607  0.08403  0.90732  Biso   1.000  N
  C146     1.0000 0.17353  0.42007  0.18442  Biso   1.000  C
  H117     1.0000 0.12173  0.40667  0.17297  Biso   1.000  H
  C147     1.0000 0.16493  0.34307  0.19979  Biso   1.000  C
  H118     1.0000 0.10883  0.26887  0.20077  Biso   1.000  H
  C148     1.0000 0.31613  0.50297  0.20565  Biso   1.000  C
  H119     1.0000 0.38333  0.55717  0.21197  Biso   1.000  H
  C149     1.0000 0.28463  0.35237  0.23253  Biso   1.000  C
  C150     1.0000 0.21333  0.24927  0.24109  Biso   1.000  C
  H120     1.0000 0.14263  0.20517  0.23487  Biso   1.000  H
  N88      1.0000 0.26783  0.51937  0.18792  Biso   1.000  N
  N89      1.0000 0.25653  0.39767  0.21365  Biso   1.000  N
  N90      1.0000 0.38273  0.41737  0.24066  Biso   1.000  N
  C151     1.0000 0.91320  0.15980  0.51775  Biso   1.000  C
  H121     1.0000 0.95160  0.21160  0.50630  Biso   1.000  H
  C152     1.0000 0.84480  0.16840  0.53312  Biso   1.000  C
  H122     1.0000 0.82670  0.22450  0.53410  Biso   1.000  H
  C153     1.0000 0.85350  0.01720  0.53898  Biso   1.000  C
  H123     1.0000 0.84050  0.95000  0.54530  Biso   1.000  H
  C154     1.0000 0.73440  0.04870  0.56586  Biso   1.000  C
  C155     1.0000 0.70260  0.12000  0.57442  Biso   1.000  C
  H124     1.0000 0.72920  0.19070  0.56820  Biso   1.000  H
  N91      1.0000 0.91820  0.06550  0.52125  Biso   1.000  N
  N92      1.0000 0.80780  0.07680  0.54698  Biso   1.000  N
  N93      1.0000 0.70130  0.95060  0.57399  Biso   1.000  N
  C156     1.0000 0.57987  0.49313  0.85108  Biso   1.000  C
  H125     1.0000 0.61827  0.54493  0.83963  Biso   1.000  H
  C157     1.0000 0.51147  0.50173  0.86645  Biso   1.000  C
  H126     1.0000 0.49337  0.55783  0.86743  Biso   1.000  H
  C158     1.0000 0.52017  0.35053  0.87231  Biso   1.000  C
  H127     1.0000 0.50717  0.28333  0.87863  Biso   1.000  H
  C159     1.0000 0.40107  0.38203  0.89919  Biso   1.000  C
  C160     1.0000 0.36927  0.45333  0.90775  Biso   1.000  C
  H128     1.0000 0.39587  0.52403  0.90153  Biso   1.000  H
  N94      1.0000 0.58487  0.39883  0.85458  Biso   1.000  N
  N95      1.0000 0.47447  0.41013  0.88031  Biso   1.000  N
  N96      1.0000 0.36797  0.28393  0.90732  Biso   1.000  N
  C161     1.0000 0.24653  0.82647  0.18442  Biso   1.000  C
  H129     1.0000 0.28493  0.87827  0.17297  Biso   1.000  H
  C162     1.0000 0.17813  0.83507  0.19979  Biso   1.000  C
  H130     1.0000 0.16003  0.89117  0.20077  Biso   1.000  H
  C163     1.0000 0.18683  0.68387  0.20565  Biso   1.000  C
  H131     1.0000 0.17383  0.61667  0.21197  Biso   1.000  H
  C164     1.0000 0.06773  0.71537  0.23253  Biso   1.000  C
  C165     1.0000 0.03593  0.78667  0.24109  Biso   1.000  C
  H132     1.0000 0.06253  0.85737  0.23487  Biso   1.000  H
  N97      1.0000 0.25153  0.73217  0.18792  Biso   1.000  N
  N98      1.0000 0.14113  0.74347  0.21365  Biso   1.000  N
  N99      1.0000 0.03463  0.61727  0.24066  Biso   1.000  N
  C166     1.0000 0.24660  0.08680  0.51775  Biso   1.000  C
  H133     1.0000 0.26000  0.04840  0.50630  Biso   1.000  H
  C167     1.0000 0.32360  0.15520  0.53312  Biso   1.000  C
  H134     1.0000 0.39780  0.17330  0.53410  Biso   1.000  H
  C168     1.0000 0.16370  0.14650  0.53898  Biso   1.000  C
  H135     1.0000 0.10950  0.15950  0.54530  Biso   1.000  H
  C169     1.0000 0.31430  0.26560  0.56586  Biso   1.000  C
  C170     1.0000 0.41740  0.29740  0.57442  Biso   1.000  C
  H136     1.0000 0.46150  0.27080  0.56820  Biso   1.000  H
  N100     1.0000 0.14730  0.08180  0.52125  Biso   1.000  N
  N101     1.0000 0.26900  0.19220  0.54698  Biso   1.000  N
  N102     1.0000 0.24930  0.29870  0.57399  Biso   1.000  N
  C171     1.0000 0.91327  0.42013  0.85108  Biso   1.000  C
  H137     1.0000 0.92667  0.38173  0.83963  Biso   1.000  H
  C172     1.0000 0.99027  0.48853  0.86645  Biso   1.000  C
  H138     1.0000 0.06447  0.50663  0.86743  Biso   1.000  H
  C173     1.0000 0.83037  0.47983  0.87231  Biso   1.000  C
  H139     1.0000 0.77617  0.49283  0.87863  Biso   1.000  H
  C174     1.0000 0.98097  0.59893  0.89919  Biso   1.000  C
  C175     1.0000 0.08407  0.63073  0.90775  Biso   1.000  C
  H140     1.0000 0.12817  0.60413  0.90153  Biso   1.000  H
  N103     1.0000 0.81397  0.41513  0.85458  Biso   1.000  N
  N104     1.0000 0.93567  0.52553  0.88031  Biso   1.000  N
  N105     1.0000 0.91597  0.63203  0.90732  Biso   1.000  N
  C176     1.0000 0.57993  0.75347  0.18442  Biso   1.000  C
  H141     1.0000 0.59333  0.71507  0.17297  Biso   1.000  H
  C177     1.0000 0.65693  0.82187  0.19979  Biso   1.000  C
  H142     1.0000 0.73113  0.83997  0.20077  Biso   1.000  H
  C178     1.0000 0.49703  0.81317  0.20565  Biso   1.000  C
  H143     1.0000 0.44283  0.82617  0.21197  Biso   1.000  H
  C179     1.0000 0.64763  0.93227  0.23253  Biso   1.000  C
  C180     1.0000 0.75073  0.96407  0.24109  Biso   1.000  C
  H144     1.0000 0.79483  0.93747  0.23487  Biso   1.000  H
  N106     1.0000 0.48063  0.74847  0.18792  Biso   1.000  N
  N107     1.0000 0.60233  0.85887  0.21365  Biso   1.000  N
  N108     1.0000 0.58263  0.96537  0.24066  Biso   1.000  N
  Co1      1.0000 0.00000  0.00000  0.00000  Biso   1.000  Co
  Co2      1.0000 0.66667  0.33333  0.33333  Biso   1.000  Co
  Co3      1.0000 0.33333  0.66667  0.66667  Biso   1.000  Co
  Co4      1.0000 0.00000  0.00000  0.50000  Biso   1.000  Co
  Co5      1.0000 0.66667  0.33333  0.83333  Biso   1.000  Co
  Co6      1.0000 0.33333  0.66667  0.16667  Biso   1.000  Co
