data_image0
_cell_length_a       17.937
_cell_length_b       6.4299
_cell_length_c       4.4936
_cell_angle_alpha    90
_cell_angle_beta     90
_cell_angle_gamma    90

_symmetry_space_group_name_H-M    "P 1"
_symmetry_int_tables_number       1

loop_
  _symmetry_equiv_pos_as_xyz
  'x, y, z'

loop_
  _atom_site_label
  _atom_site_occupancy
  _atom_site_fract_x
  _atom_site_fract_y
  _atom_site_fract_z
  _atom_site_thermal_displace_type
  _atom_site_B_iso_or_equiv
  _atom_site_type_symbol
  O1       1.0000 0.41760  0.95430  0.70400  Biso   1.000  O
  O2       1.0000 0.08240  0.54570  0.70400  Biso   1.000  O
  O3       1.0000 0.58240  0.45430  0.29600  Biso   1.000  O
  O4       1.0000 0.91760  0.04570  0.29600  Biso   1.000  O
  O5       1.0000 0.58240  0.04570  0.29600  Biso   1.000  O
  O6       1.0000 0.91760  0.45430  0.29600  Biso   1.000  O
  O7       1.0000 0.41760  0.54570  0.70400  Biso   1.000  O
  O8       1.0000 0.08240  0.95430  0.70400  Biso   1.000  O
  Ni1      1.0000 0.50000  0.00000  0.00000  Biso   1.000  Ni
  Ni2      1.0000 0.00000  0.50000  0.00000  Biso   1.000  Ni
  Ni3      1.0000 0.50000  0.50000  0.00000  Biso   1.000  Ni
  Ni4      1.0000 0.00000  0.00000  0.00000  Biso   1.000  Ni
  Ni5      1.0000 0.59170  0.75000  0.36900  Biso   1.000  Ni
  P1       1.0000 0.41060  0.75000  0.51300  Biso   1.000  P
  O9       1.0000 0.56870  0.75000  0.82300  Biso   1.000  O
  O10      1.0000 0.47290  0.75000  0.26200  Biso   1.000  O
  C1       1.0000 0.32270  0.75000  0.34200  Biso   1.000  C
  Ni6      1.0000 0.90830  0.75000  0.36900  Biso   1.000  Ni
  P2       1.0000 0.08940  0.75000  0.51300  Biso   1.000  P
  O11      1.0000 0.93130  0.75000  0.82300  Biso   1.000  O
  O12      1.0000 0.02710  0.75000  0.26200  Biso   1.000  O
  C2       1.0000 0.17730  0.75000  0.34200  Biso   1.000  C
  Ni7      1.0000 0.40830  0.25000  0.63100  Biso   1.000  Ni
  P3       1.0000 0.58940  0.25000  0.48700  Biso   1.000  P
  O13      1.0000 0.43130  0.25000  0.17700  Biso   1.000  O
  O14      1.0000 0.52710  0.25000  0.73800  Biso   1.000  O
  C3       1.0000 0.67730  0.25000  0.65800  Biso   1.000  C
  Ni8      1.0000 0.09170  0.25000  0.63100  Biso   1.000  Ni
  P4       1.0000 0.91060  0.25000  0.48700  Biso   1.000  P
  O15      1.0000 0.06870  0.25000  0.17700  Biso   1.000  O
  O16      1.0000 0.97290  0.25000  0.73800  Biso   1.000  O
  C4       1.0000 0.82270  0.25000  0.65800  Biso   1.000  C
  C5       1.0000 0.25000  0.75000  0.53700  Biso   1.000  C
  C6       1.0000 0.75000  0.25000  0.46300  Biso   1.000  C
