data_WABTOK_clean
_audit_creation_date              2014-07-02
_audit_creation_method            'Materials Studio'
_symmetry_space_group_name_H-M    'P1'
_symmetry_Int_Tables_number       1
_symmetry_cell_setting            triclinic
loop_
_symmetry_equiv_pos_as_xyz
  x,y,z
_cell_length_a                    10.2740
_cell_length_b                    10.2740
_cell_length_c                    11.5943
_cell_angle_alpha                 80.5546
_cell_angle_beta                  80.5546
_cell_angle_gamma                 85.0381
loop_
_atom_site_label
_atom_site_type_symbol
_atom_site_fract_x
_atom_site_fract_y
_atom_site_fract_z
_atom_site_U_iso_or_equiv
_atom_site_adp_type
_atom_site_occupancy
Cd1    Cd    0.85937   0.47968   0.42132   0.01267  Uiso   1.00
Cd2    Cd    0.52032   0.14063   0.07868   0.01267  Uiso   1.00
Cd3    Cd    0.14063   0.52032   0.57868   0.01267  Uiso   1.00
Cd4    Cd    0.47968   0.85937   0.92132   0.01267  Uiso   1.00
Cd5    Cd    0.77411   0.22589   0.25000   0.01267  Uiso   1.00
Cd6    Cd    0.22589   0.77411   0.75000   0.01267  Uiso   1.00
H1     H     0.58550   0.65210   0.34490   0.01267  Uiso   1.00
H2     H     0.50170   0.68350   0.46420   0.01267  Uiso   1.00
H3     H     0.47100   0.46600   0.35430   0.01267  Uiso   1.00
H4     H     0.36990   0.58910   0.36130   0.01267  Uiso   1.00
H5     H     0.34790   0.41450   0.15510   0.01267  Uiso   1.00
H6     H     0.31650   0.49830   0.03580   0.01267  Uiso   1.00
H7     H     0.53400   0.52900   0.14570   0.01267  Uiso   1.00
H8     H     0.41090   0.63010   0.13870   0.01267  Uiso   1.00
H9     H     0.41450   0.34790   0.65510   0.01267  Uiso   1.00
H10    H     0.49830   0.31650   0.53580   0.01267  Uiso   1.00
H11    H     0.52900   0.53400   0.64570   0.01267  Uiso   1.00
H12    H     0.63010   0.41090   0.63870   0.01267  Uiso   1.00
H13    H     0.65210   0.58550   0.84490   0.01267  Uiso   1.00
H14    H     0.68350   0.50170   0.96420   0.01267  Uiso   1.00
H15    H     0.46600   0.47100   0.85430   0.01267  Uiso   1.00
H16    H     0.58910   0.36990   0.86130   0.01267  Uiso   1.00
C1     C     0.54010   0.61270   0.42100   0.01267  Uiso   1.00
C2     C     0.43330   0.53250   0.40280   0.01267  Uiso   1.00
C3     C     0.38730   0.45990   0.07900   0.01267  Uiso   1.00
C4     C     0.46750   0.56670   0.09720   0.01267  Uiso   1.00
C5     C     0.45990   0.38730   0.57900   0.01267  Uiso   1.00
C6     C     0.56670   0.46750   0.59720   0.01267  Uiso   1.00
C7     C     0.61270   0.54010   0.92100   0.01267  Uiso   1.00
C8     C     0.53250   0.43330   0.90280   0.01267  Uiso   1.00
Cl1    Cl    0.80316   0.47706   0.20972   0.01267  Uiso   1.00
Cl2    Cl    0.76786   0.18570   0.03346   0.01267  Uiso   1.00
Cl3    Cl    0.88945   0.51041   0.63572   0.01267  Uiso   1.00
Cl4    Cl    0.52294   0.19684   0.29028   0.01267  Uiso   1.00
Cl5    Cl    0.81430   0.23214   0.46654   0.01267  Uiso   1.00
Cl6    Cl    0.48959   0.11055   0.86428   0.01267  Uiso   1.00
Cl7    Cl    0.19684   0.52294   0.79028   0.01267  Uiso   1.00
Cl8    Cl    0.23214   0.81430   0.96654   0.01267  Uiso   1.00
Cl9    Cl    0.11055   0.48959   0.36428   0.01267  Uiso   1.00
Cl10   Cl    0.47706   0.80316   0.70972   0.01267  Uiso   1.00
Cl11   Cl    0.18570   0.76786   0.53346   0.01267  Uiso   1.00
Cl12   Cl    0.51041   0.88945   0.13572   0.01267  Uiso   1.00
O1     O     0.63313   0.53129   0.48590   0.01267  Uiso   1.00
O2     O     0.46871   0.36687   0.01410   0.01267  Uiso   1.00
O3     O     0.36687   0.46871   0.51410   0.01267  Uiso   1.00
O4     O     0.53129   0.63313   0.98590   0.01267  Uiso   1.00
