data_image0
_cell_length_a       9.0368
_cell_length_b       9.0368
_cell_length_c       12.5364
_cell_angle_alpha    90
_cell_angle_beta     90
_cell_angle_gamma    90

_symmetry_space_group_name_H-M    "P 1"
_symmetry_int_tables_number       1

loop_
  _symmetry_equiv_pos_as_xyz
  'x, y, z'

loop_
  _atom_site_label
  _atom_site_occupancy
  _atom_site_fract_x
  _atom_site_fract_y
  _atom_site_fract_z
  _atom_site_thermal_displace_type
  _atom_site_B_iso_or_equiv
  _atom_site_type_symbol
  O1       1.0000 0.18536  0.90330  0.96126  Biso   1.000  O
  C1       1.0000 0.25580  0.95960  0.88057  Biso   1.000  C
  O2       1.0000 0.20290  0.05940  0.82449  Biso   1.000  O
  O3       1.0000 0.38560  0.90183  0.86202  Biso   1.000  O
  O4       1.0000 0.81464  0.09670  0.96126  Biso   1.000  O
  C2       1.0000 0.74420  0.04040  0.88057  Biso   1.000  C
  O5       1.0000 0.79710  0.94060  0.82449  Biso   1.000  O
  O6       1.0000 0.61440  0.09817  0.86202  Biso   1.000  O
  O7       1.0000 0.90330  0.81464  0.03874  Biso   1.000  O
  C3       1.0000 0.95960  0.74420  0.11943  Biso   1.000  C
  O8       1.0000 0.05940  0.79710  0.17551  Biso   1.000  O
  O9       1.0000 0.90183  0.61440  0.13798  Biso   1.000  O
  O10      1.0000 0.09670  0.18536  0.03874  Biso   1.000  O
  C4       1.0000 0.04040  0.25580  0.11943  Biso   1.000  C
  O11      1.0000 0.94060  0.20290  0.17551  Biso   1.000  O
  O12      1.0000 0.09817  0.38560  0.13798  Biso   1.000  O
  O13      1.0000 0.68536  0.59670  0.46126  Biso   1.000  O
  C5       1.0000 0.75580  0.54040  0.38057  Biso   1.000  C
  O14      1.0000 0.70290  0.44060  0.32449  Biso   1.000  O
  O15      1.0000 0.88560  0.59817  0.36202  Biso   1.000  O
  O16      1.0000 0.31464  0.40330  0.46126  Biso   1.000  O
  C6       1.0000 0.24420  0.45960  0.38057  Biso   1.000  C
  O17      1.0000 0.29710  0.55940  0.32449  Biso   1.000  O
  O18      1.0000 0.11440  0.40183  0.36202  Biso   1.000  O
  O19      1.0000 0.40330  0.68536  0.53874  Biso   1.000  O
  C7       1.0000 0.45960  0.75580  0.61943  Biso   1.000  C
  O20      1.0000 0.55940  0.70290  0.67551  Biso   1.000  O
  O21      1.0000 0.40183  0.88560  0.63798  Biso   1.000  O
  O22      1.0000 0.59670  0.31464  0.53874  Biso   1.000  O
  C8       1.0000 0.54040  0.24420  0.61943  Biso   1.000  C
  O23      1.0000 0.44060  0.29710  0.67551  Biso   1.000  O
  O24      1.0000 0.59817  0.11440  0.63798  Biso   1.000  O
  Cu1      1.0000 0.00000  0.00000  0.00000  Biso   1.000  Cu
  Cu2      1.0000 0.50000  0.50000  0.50000  Biso   1.000  Cu
  Cu3      1.0000 0.50000  0.00000  0.75000  Biso   1.000  Cu
  Cu4      1.0000 0.00000  0.50000  0.25000  Biso   1.000  Cu
