data_image0
_cell_length_a       9.0582
_cell_length_b       9.0582
_cell_length_c       12.566
_cell_angle_alpha    90
_cell_angle_beta     90
_cell_angle_gamma    90

_symmetry_space_group_name_H-M    "P 1"
_symmetry_int_tables_number       1

loop_
  _symmetry_equiv_pos_as_xyz
  'x, y, z'

loop_
  _atom_site_label
  _atom_site_occupancy
  _atom_site_fract_x
  _atom_site_fract_y
  _atom_site_fract_z
  _atom_site_thermal_displace_type
  _atom_site_B_iso_or_equiv
  _atom_site_type_symbol
  C1       1.0000 0.75760  0.54170  0.12020  Biso   1.000  C
  O1       1.0000 0.88560  0.59800  0.13789  Biso   1.000  O
  O2       1.0000 0.68510  0.59680  0.03874  Biso   1.000  O
  O3       1.0000 0.70320  0.44040  0.17585  Biso   1.000  O
  C2       1.0000 0.24240  0.45830  0.12020  Biso   1.000  C
  O4       1.0000 0.11440  0.40200  0.13789  Biso   1.000  O
  O5       1.0000 0.31490  0.40320  0.03874  Biso   1.000  O
  O6       1.0000 0.29680  0.55960  0.17585  Biso   1.000  O
  C3       1.0000 0.54170  0.24240  0.87980  Biso   1.000  C
  O7       1.0000 0.59800  0.11440  0.86211  Biso   1.000  O
  O8       1.0000 0.59680  0.31490  0.96126  Biso   1.000  O
  O9       1.0000 0.44040  0.29680  0.82415  Biso   1.000  O
  C4       1.0000 0.45830  0.75760  0.87980  Biso   1.000  C
  O10      1.0000 0.40200  0.88560  0.86211  Biso   1.000  O
  O11      1.0000 0.40320  0.68510  0.96126  Biso   1.000  O
  O12      1.0000 0.55960  0.70320  0.82415  Biso   1.000  O
  C5       1.0000 0.25760  0.95830  0.62020  Biso   1.000  C
  O13      1.0000 0.38560  0.90200  0.63789  Biso   1.000  O
  O14      1.0000 0.18510  0.90320  0.53874  Biso   1.000  O
  O15      1.0000 0.20320  0.05960  0.67585  Biso   1.000  O
  C6       1.0000 0.74240  0.04170  0.62020  Biso   1.000  C
  O16      1.0000 0.61440  0.09800  0.63789  Biso   1.000  O
  O17      1.0000 0.81490  0.09680  0.53874  Biso   1.000  O
  O18      1.0000 0.79680  0.94040  0.67585  Biso   1.000  O
  C7       1.0000 0.04170  0.25760  0.37980  Biso   1.000  C
  O19      1.0000 0.09800  0.38560  0.36211  Biso   1.000  O
  O20      1.0000 0.09680  0.18510  0.46126  Biso   1.000  O
  O21      1.0000 0.94040  0.20320  0.32415  Biso   1.000  O
  C8       1.0000 0.95830  0.74240  0.37980  Biso   1.000  C
  O22      1.0000 0.90200  0.61440  0.36211  Biso   1.000  O
  O23      1.0000 0.90320  0.81490  0.46126  Biso   1.000  O
  O24      1.0000 0.05960  0.79680  0.32415  Biso   1.000  O
  Cu1      1.0000 0.00000  0.50000  0.25000  Biso   1.000  Cu
  Cu2      1.0000 0.50000  0.00000  0.75000  Biso   1.000  Cu
  Cu3      1.0000 0.50000  0.50000  0.00000  Biso   1.000  Cu
  Cu4      1.0000 0.00000  0.00000  0.50000  Biso   1.000  Cu
