data_image0
_cell_length_a       8.8645
_cell_length_b       8.8645
_cell_length_c       12.1191
_cell_angle_alpha    90
_cell_angle_beta     90
_cell_angle_gamma    90

_symmetry_space_group_name_H-M    "P 1"
_symmetry_int_tables_number       1

loop_
  _symmetry_equiv_pos_as_xyz
  'x, y, z'

loop_
  _atom_site_label
  _atom_site_occupancy
  _atom_site_fract_x
  _atom_site_fract_y
  _atom_site_fract_z
  _atom_site_thermal_displace_type
  _atom_site_B_iso_or_equiv
  _atom_site_type_symbol
  C1       1.0000 0.76470  0.54490  0.11740  Biso   1.000  C
  O1       1.0000 0.88900  0.60810  0.13440  Biso   1.000  O
  O2       1.0000 0.68430  0.60230  0.03380  Biso   1.000  O
  O3       1.0000 0.71310  0.44170  0.17520  Biso   1.000  O
  C2       1.0000 0.23530  0.45510  0.11740  Biso   1.000  C
  O4       1.0000 0.11100  0.39190  0.13440  Biso   1.000  O
  O5       1.0000 0.31570  0.39770  0.03380  Biso   1.000  O
  O6       1.0000 0.28690  0.55830  0.17520  Biso   1.000  O
  C3       1.0000 0.54490  0.23530  0.88260  Biso   1.000  C
  O7       1.0000 0.60810  0.11100  0.86560  Biso   1.000  O
  O8       1.0000 0.60230  0.31570  0.96620  Biso   1.000  O
  O9       1.0000 0.44170  0.28690  0.82480  Biso   1.000  O
  C4       1.0000 0.45510  0.76470  0.88260  Biso   1.000  C
  O10      1.0000 0.39190  0.88900  0.86560  Biso   1.000  O
  O11      1.0000 0.39770  0.68430  0.96620  Biso   1.000  O
  O12      1.0000 0.55830  0.71310  0.82480  Biso   1.000  O
  C5       1.0000 0.26470  0.95510  0.61740  Biso   1.000  C
  O13      1.0000 0.38900  0.89190  0.63440  Biso   1.000  O
  O14      1.0000 0.18430  0.89770  0.53380  Biso   1.000  O
  O15      1.0000 0.21310  0.05830  0.67520  Biso   1.000  O
  C6       1.0000 0.73530  0.04490  0.61740  Biso   1.000  C
  O16      1.0000 0.61100  0.10810  0.63440  Biso   1.000  O
  O17      1.0000 0.81570  0.10230  0.53380  Biso   1.000  O
  O18      1.0000 0.78690  0.94170  0.67520  Biso   1.000  O
  C7       1.0000 0.04490  0.26470  0.38260  Biso   1.000  C
  O19      1.0000 0.10810  0.38900  0.36560  Biso   1.000  O
  O20      1.0000 0.10230  0.18430  0.46620  Biso   1.000  O
  O21      1.0000 0.94170  0.21310  0.32480  Biso   1.000  O
  C8       1.0000 0.95510  0.73530  0.38260  Biso   1.000  C
  O22      1.0000 0.89190  0.61100  0.36560  Biso   1.000  O
  O23      1.0000 0.89770  0.81570  0.46620  Biso   1.000  O
  O24      1.0000 0.05830  0.78690  0.32480  Biso   1.000  O
  Cu1      1.0000 0.00000  0.50000  0.25000  Biso   1.000  Cu
  Cu2      1.0000 0.50000  0.00000  0.75000  Biso   1.000  Cu
  Cu3      1.0000 0.50000  0.50000  0.00000  Biso   1.000  Cu
  Cu4      1.0000 0.00000  0.00000  0.50000  Biso   1.000  Cu
