data_image0
_cell_length_a       8.9664
_cell_length_b       8.9664
_cell_length_c       12.3548
_cell_angle_alpha    90
_cell_angle_beta     90
_cell_angle_gamma    90

_symmetry_space_group_name_H-M    "P 1"
_symmetry_int_tables_number       1

loop_
  _symmetry_equiv_pos_as_xyz
  'x, y, z'

loop_
  _atom_site_label
  _atom_site_occupancy
  _atom_site_fract_x
  _atom_site_fract_y
  _atom_site_fract_z
  _atom_site_thermal_displace_type
  _atom_site_B_iso_or_equiv
  _atom_site_type_symbol
  C1       1.0000 0.76050  0.54420  0.11900  Biso   1.000  C
  O1       1.0000 0.88670  0.60270  0.13710  Biso   1.000  O
  O2       1.0000 0.68530  0.60040  0.03690  Biso   1.000  O
  O3       1.0000 0.70650  0.44060  0.17520  Biso   1.000  O
  C2       1.0000 0.23950  0.45580  0.11900  Biso   1.000  C
  O4       1.0000 0.11330  0.39730  0.13710  Biso   1.000  O
  O5       1.0000 0.31470  0.39960  0.03690  Biso   1.000  O
  O6       1.0000 0.29350  0.55940  0.17520  Biso   1.000  O
  C3       1.0000 0.54420  0.23950  0.88100  Biso   1.000  C
  O7       1.0000 0.60270  0.11330  0.86290  Biso   1.000  O
  O8       1.0000 0.60040  0.31470  0.96310  Biso   1.000  O
  O9       1.0000 0.44060  0.29350  0.82480  Biso   1.000  O
  C4       1.0000 0.45580  0.76050  0.88100  Biso   1.000  C
  O10      1.0000 0.39730  0.88670  0.86290  Biso   1.000  O
  O11      1.0000 0.39960  0.68530  0.96310  Biso   1.000  O
  O12      1.0000 0.55940  0.70650  0.82480  Biso   1.000  O
  C5       1.0000 0.26050  0.95580  0.61900  Biso   1.000  C
  O13      1.0000 0.38670  0.89730  0.63710  Biso   1.000  O
  O14      1.0000 0.18530  0.89960  0.53690  Biso   1.000  O
  O15      1.0000 0.20650  0.05940  0.67520  Biso   1.000  O
  C6       1.0000 0.73950  0.04420  0.61900  Biso   1.000  C
  O16      1.0000 0.61330  0.10270  0.63710  Biso   1.000  O
  O17      1.0000 0.81470  0.10040  0.53690  Biso   1.000  O
  O18      1.0000 0.79350  0.94060  0.67520  Biso   1.000  O
  C7       1.0000 0.04420  0.26050  0.38100  Biso   1.000  C
  O19      1.0000 0.10270  0.38670  0.36290  Biso   1.000  O
  O20      1.0000 0.10040  0.18530  0.46310  Biso   1.000  O
  O21      1.0000 0.94060  0.20650  0.32480  Biso   1.000  O
  C8       1.0000 0.95580  0.73950  0.38100  Biso   1.000  C
  O22      1.0000 0.89730  0.61330  0.36290  Biso   1.000  O
  O23      1.0000 0.89960  0.81470  0.46310  Biso   1.000  O
  O24      1.0000 0.05940  0.79350  0.32480  Biso   1.000  O
  Cu1      1.0000 0.00000  0.50000  0.25000  Biso   1.000  Cu
  Cu2      1.0000 0.50000  0.00000  0.75000  Biso   1.000  Cu
  Cu3      1.0000 0.50000  0.50000  0.00000  Biso   1.000  Cu
  Cu4      1.0000 0.00000  0.00000  0.50000  Biso   1.000  Cu
