data_image0
_cell_length_a       8.8048
_cell_length_b       8.8048
_cell_length_c       12.031
_cell_angle_alpha    90
_cell_angle_beta     90
_cell_angle_gamma    90

_symmetry_space_group_name_H-M    "P 1"
_symmetry_int_tables_number       1

loop_
  _symmetry_equiv_pos_as_xyz
  'x, y, z'

loop_
  _atom_site_label
  _atom_site_occupancy
  _atom_site_fract_x
  _atom_site_fract_y
  _atom_site_fract_z
  _atom_site_thermal_displace_type
  _atom_site_B_iso_or_equiv
  _atom_site_type_symbol
  C1       1.0000 0.76550  0.54520  0.11590  Biso   1.000  C
  O1       1.0000 0.89050  0.61350  0.13380  Biso   1.000  O
  O2       1.0000 0.68500  0.60600  0.03240  Biso   1.000  O
  O3       1.0000 0.71450  0.44140  0.17420  Biso   1.000  O
  C2       1.0000 0.23450  0.45480  0.11590  Biso   1.000  C
  O4       1.0000 0.10950  0.38650  0.13380  Biso   1.000  O
  O5       1.0000 0.31500  0.39400  0.03240  Biso   1.000  O
  O6       1.0000 0.28550  0.55860  0.17420  Biso   1.000  O
  C3       1.0000 0.54520  0.23450  0.88410  Biso   1.000  C
  O7       1.0000 0.61350  0.10950  0.86620  Biso   1.000  O
  O8       1.0000 0.60600  0.31500  0.96760  Biso   1.000  O
  O9       1.0000 0.44140  0.28550  0.82580  Biso   1.000  O
  C4       1.0000 0.45480  0.76550  0.88410  Biso   1.000  C
  O10      1.0000 0.38650  0.89050  0.86620  Biso   1.000  O
  O11      1.0000 0.39400  0.68500  0.96760  Biso   1.000  O
  O12      1.0000 0.55860  0.71450  0.82580  Biso   1.000  O
  C5       1.0000 0.26550  0.95480  0.61590  Biso   1.000  C
  O13      1.0000 0.39050  0.88650  0.63380  Biso   1.000  O
  O14      1.0000 0.18500  0.89400  0.53240  Biso   1.000  O
  O15      1.0000 0.21450  0.05860  0.67420  Biso   1.000  O
  C6       1.0000 0.73450  0.04520  0.61590  Biso   1.000  C
  O16      1.0000 0.60950  0.11350  0.63380  Biso   1.000  O
  O17      1.0000 0.81500  0.10600  0.53240  Biso   1.000  O
  O18      1.0000 0.78550  0.94140  0.67420  Biso   1.000  O
  C7       1.0000 0.04520  0.26550  0.38410  Biso   1.000  C
  O19      1.0000 0.11350  0.39050  0.36620  Biso   1.000  O
  O20      1.0000 0.10600  0.18500  0.46760  Biso   1.000  O
  O21      1.0000 0.94140  0.21450  0.32580  Biso   1.000  O
  C8       1.0000 0.95480  0.73450  0.38410  Biso   1.000  C
  O22      1.0000 0.88650  0.60950  0.36620  Biso   1.000  O
  O23      1.0000 0.89400  0.81500  0.46760  Biso   1.000  O
  O24      1.0000 0.05860  0.78550  0.32580  Biso   1.000  O
  Cu1      1.0000 0.00000  0.50000  0.25000  Biso   1.000  Cu
  Cu2      1.0000 0.50000  0.00000  0.75000  Biso   1.000  Cu
  Cu3      1.0000 0.50000  0.50000  0.00000  Biso   1.000  Cu
  Cu4      1.0000 0.00000  0.00000  0.50000  Biso   1.000  Cu
