data_image0
_cell_length_a       14.4113
_cell_length_b       14.4113
_cell_length_c       14.4113
_cell_angle_alpha    90
_cell_angle_beta     90
_cell_angle_gamma    90

_symmetry_space_group_name_H-M    "P 1"
_symmetry_int_tables_number       1

loop_
  _symmetry_equiv_pos_as_xyz
  'x, y, z'

loop_
  _atom_site_label
  _atom_site_occupancy
  _atom_site_fract_x
  _atom_site_fract_y
  _atom_site_fract_z
  _atom_site_thermal_displace_type
  _atom_site_B_iso_or_equiv
  _atom_site_type_symbol
  Cu1      1.0000 0.50000  0.75000  0.00000  Biso   1.000  Cu
  Cu2      1.0000 0.50000  0.25000  0.00000  Biso   1.000  Cu
  Cu3      1.0000 0.00000  0.50000  0.75000  Biso   1.000  Cu
  Cu4      1.0000 0.00000  0.50000  0.25000  Biso   1.000  Cu
  Cu5      1.0000 0.75000  0.00000  0.50000  Biso   1.000  Cu
  Cu6      1.0000 0.25000  0.00000  0.50000  Biso   1.000  Cu
  Cu7      1.0000 0.75000  0.50000  0.00000  Biso   1.000  Cu
  Cu8      1.0000 0.25000  0.50000  0.00000  Biso   1.000  Cu
  Cu9      1.0000 0.50000  0.00000  0.25000  Biso   1.000  Cu
  Cu10     1.0000 0.50000  0.00000  0.75000  Biso   1.000  Cu
  Cu11     1.0000 0.00000  0.75000  0.50000  Biso   1.000  Cu
  Cu12     1.0000 0.00000  0.25000  0.50000  Biso   1.000  Cu
  C1       1.0000 0.66630  0.66630  0.00000  Biso   1.000  C
  O1       1.0000 0.60490  0.60490  0.00000  Biso   1.000  O
  C2       1.0000 0.16630  0.16630  0.50000  Biso   1.000  C
  O2       1.0000 0.10490  0.10490  0.50000  Biso   1.000  O
  C3       1.0000 0.33370  0.33370  0.00000  Biso   1.000  C
  O3       1.0000 0.39510  0.39510  0.00000  Biso   1.000  O
  C4       1.0000 0.83370  0.83370  0.50000  Biso   1.000  C
  O4       1.0000 0.89510  0.89510  0.50000  Biso   1.000  O
  C5       1.0000 0.33370  0.66630  0.00000  Biso   1.000  C
  O5       1.0000 0.39510  0.60490  0.00000  Biso   1.000  O
  C6       1.0000 0.83370  0.16630  0.50000  Biso   1.000  C
  O6       1.0000 0.89510  0.10490  0.50000  Biso   1.000  O
  C7       1.0000 0.66630  0.33370  0.00000  Biso   1.000  C
  O7       1.0000 0.60490  0.39510  0.00000  Biso   1.000  O
  C8       1.0000 0.16630  0.83370  0.50000  Biso   1.000  C
  O8       1.0000 0.10490  0.89510  0.50000  Biso   1.000  O
  C9       1.0000 0.00000  0.66630  0.66630  Biso   1.000  C
  O9       1.0000 0.00000  0.60490  0.60490  Biso   1.000  O
  C10      1.0000 0.50000  0.16630  0.16630  Biso   1.000  C
  O10      1.0000 0.50000  0.10490  0.10490  Biso   1.000  O
  C11      1.0000 0.00000  0.33370  0.33370  Biso   1.000  C
  O11      1.0000 0.00000  0.39510  0.39510  Biso   1.000  O
  C12      1.0000 0.50000  0.83370  0.83370  Biso   1.000  C
  O12      1.0000 0.50000  0.89510  0.89510  Biso   1.000  O
  C13      1.0000 0.00000  0.33370  0.66630  Biso   1.000  C
  O13      1.0000 0.00000  0.39510  0.60490  Biso   1.000  O
  C14      1.0000 0.50000  0.83370  0.16630  Biso   1.000  C
  O14      1.0000 0.50000  0.89510  0.10490  Biso   1.000  O
  C15      1.0000 0.00000  0.66630  0.33370  Biso   1.000  C
  O15      1.0000 0.00000  0.60490  0.39510  Biso   1.000  O
  C16      1.0000 0.50000  0.16630  0.83370  Biso   1.000  C
  O16      1.0000 0.50000  0.10490  0.89510  Biso   1.000  O
  C17      1.0000 0.66630  0.00000  0.66630  Biso   1.000  C
  O17      1.0000 0.60490  0.00000  0.60490  Biso   1.000  O
  C18      1.0000 0.16630  0.50000  0.16630  Biso   1.000  C
  O18      1.0000 0.10490  0.50000  0.10490  Biso   1.000  O
  C19      1.0000 0.33370  0.00000  0.33370  Biso   1.000  C
  O19      1.0000 0.39510  0.00000  0.39510  Biso   1.000  O
  C20      1.0000 0.83370  0.50000  0.83370  Biso   1.000  C
  O20      1.0000 0.89510  0.50000  0.89510  Biso   1.000  O
  C21      1.0000 0.66630  0.00000  0.33370  Biso   1.000  C
  O21      1.0000 0.60490  0.00000  0.39510  Biso   1.000  O
  C22      1.0000 0.16630  0.50000  0.83370  Biso   1.000  C
  O22      1.0000 0.10490  0.50000  0.89510  Biso   1.000  O
  C23      1.0000 0.33370  0.00000  0.66630  Biso   1.000  C
  O23      1.0000 0.39510  0.00000  0.60490  Biso   1.000  O
  C24      1.0000 0.83370  0.50000  0.16630  Biso   1.000  C
  O24      1.0000 0.89510  0.50000  0.10490  Biso   1.000  O
  O25      1.0000 0.64180  0.75230  0.00000  Biso   1.000  O
  O26      1.0000 0.14180  0.25230  0.50000  Biso   1.000  O
  O27      1.0000 0.35820  0.24770  0.00000  Biso   1.000  O
  O28      1.0000 0.85820  0.74770  0.50000  Biso   1.000  O
  O29      1.0000 0.35820  0.75230  0.00000  Biso   1.000  O
  O30      1.0000 0.85820  0.25230  0.50000  Biso   1.000  O
  O31      1.0000 0.64180  0.24770  0.00000  Biso   1.000  O
  O32      1.0000 0.14180  0.74770  0.50000  Biso   1.000  O
  O33      1.0000 0.00000  0.64180  0.75230  Biso   1.000  O
  O34      1.0000 0.50000  0.14180  0.25230  Biso   1.000  O
  O35      1.0000 0.00000  0.35820  0.24770  Biso   1.000  O
  O36      1.0000 0.50000  0.85820  0.74770  Biso   1.000  O
  O37      1.0000 0.00000  0.35820  0.75230  Biso   1.000  O
  O38      1.0000 0.50000  0.85820  0.25230  Biso   1.000  O
  O39      1.0000 0.00000  0.64180  0.24770  Biso   1.000  O
  O40      1.0000 0.50000  0.14180  0.74770  Biso   1.000  O
  O41      1.0000 0.75230  0.00000  0.64180  Biso   1.000  O
  O42      1.0000 0.25230  0.50000  0.14180  Biso   1.000  O
  O43      1.0000 0.24770  0.00000  0.35820  Biso   1.000  O
  O44      1.0000 0.74770  0.50000  0.85820  Biso   1.000  O
  O45      1.0000 0.75230  0.00000  0.35820  Biso   1.000  O
  O46      1.0000 0.25230  0.50000  0.85820  Biso   1.000  O
  O47      1.0000 0.24770  0.00000  0.64180  Biso   1.000  O
  O48      1.0000 0.74770  0.50000  0.14180  Biso   1.000  O
  O49      1.0000 0.75230  0.64180  0.00000  Biso   1.000  O
  O50      1.0000 0.25230  0.14180  0.50000  Biso   1.000  O
  O51      1.0000 0.24770  0.35820  0.00000  Biso   1.000  O
  O52      1.0000 0.74770  0.85820  0.50000  Biso   1.000  O
  O53      1.0000 0.75230  0.35820  0.00000  Biso   1.000  O
  O54      1.0000 0.25230  0.85820  0.50000  Biso   1.000  O
  O55      1.0000 0.24770  0.64180  0.00000  Biso   1.000  O
  O56      1.0000 0.74770  0.14180  0.50000  Biso   1.000  O
  O57      1.0000 0.64180  0.00000  0.24770  Biso   1.000  O
  O58      1.0000 0.14180  0.50000  0.74770  Biso   1.000  O
  O59      1.0000 0.35820  0.00000  0.75230  Biso   1.000  O
  O60      1.0000 0.85820  0.50000  0.25230  Biso   1.000  O
  O61      1.0000 0.35820  0.00000  0.24770  Biso   1.000  O
  O62      1.0000 0.85820  0.50000  0.74770  Biso   1.000  O
  O63      1.0000 0.64180  0.00000  0.75230  Biso   1.000  O
  O64      1.0000 0.14180  0.50000  0.25230  Biso   1.000  O
  O65      1.0000 0.00000  0.75230  0.35820  Biso   1.000  O
  O66      1.0000 0.50000  0.25230  0.85820  Biso   1.000  O
  O67      1.0000 0.00000  0.24770  0.64180  Biso   1.000  O
  O68      1.0000 0.50000  0.74770  0.14180  Biso   1.000  O
  O69      1.0000 0.00000  0.75230  0.64180  Biso   1.000  O
  O70      1.0000 0.50000  0.25230  0.14180  Biso   1.000  O
  O71      1.0000 0.00000  0.24770  0.35820  Biso   1.000  O
  O72      1.0000 0.50000  0.74770  0.85820  Biso   1.000  O
  Na1      1.0000 0.50000  0.50000  0.00000  Biso   1.000  Na
  Na2      1.0000 0.00000  0.00000  0.50000  Biso   1.000  Na
  Na3      1.0000 0.00000  0.50000  0.50000  Biso   1.000  Na
  Na4      1.0000 0.50000  0.00000  0.00000  Biso   1.000  Na
  Na5      1.0000 0.50000  0.00000  0.50000  Biso   1.000  Na
  Na6      1.0000 0.00000  0.50000  0.00000  Biso   1.000  Na
