data_image0
_cell_length_a       17.088
_cell_length_b       17.088
_cell_length_c       10.745
_cell_angle_alpha    90
_cell_angle_beta     90
_cell_angle_gamma    90

_symmetry_space_group_name_H-M    "P 1"
_symmetry_int_tables_number       1

loop_
  _symmetry_equiv_pos_as_xyz
  'x, y, z'

loop_
  _atom_site_label
  _atom_site_occupancy
  _atom_site_fract_x
  _atom_site_fract_y
  _atom_site_fract_z
  _atom_site_thermal_displace_type
  _atom_site_B_iso_or_equiv
  _atom_site_type_symbol
  Mo1      1.0000 0.30937  0.91064  0.05836  Biso   1.000  Mo
  P1       1.0000 0.41751  0.88548  0.80346  Biso   1.000  P
  O1       1.0000 0.42970  0.81770  0.71450  Biso   1.000  O
  O2       1.0000 0.35543  0.85762  0.89850  Biso   1.000  O
  O3       1.0000 0.39992  0.95659  0.08300  Biso   1.000  O
  O4       1.0000 0.28471  0.00056  0.91610  Biso   1.000  O
  O5       1.0000 0.38263  0.95464  0.72760  Biso   1.000  O
  O6       1.0000 0.32022  0.82332  0.14090  Biso   1.000  O
  O7       1.0000 0.49317  0.91084  0.86840  Biso   1.000  O
  Mo2      1.0000 0.80937  0.41064  0.55836  Biso   1.000  Mo
  P2       1.0000 0.91751  0.38548  0.30346  Biso   1.000  P
  O8       1.0000 0.92970  0.31770  0.21450  Biso   1.000  O
  O9       1.0000 0.85543  0.35762  0.39850  Biso   1.000  O
  O10      1.0000 0.89992  0.45659  0.58300  Biso   1.000  O
  O11      1.0000 0.78471  0.50056  0.41610  Biso   1.000  O
  O12      1.0000 0.88263  0.45464  0.22760  Biso   1.000  O
  O13      1.0000 0.82022  0.32332  0.64090  Biso   1.000  O
  O14      1.0000 0.99317  0.41084  0.36840  Biso   1.000  O
  Mo3      1.0000 0.19063  0.08936  0.55836  Biso   1.000  Mo
  P3       1.0000 0.08249  0.11452  0.30346  Biso   1.000  P
  O15      1.0000 0.07030  0.18230  0.21450  Biso   1.000  O
  O16      1.0000 0.14457  0.14238  0.39850  Biso   1.000  O
  O17      1.0000 0.10008  0.04341  0.58300  Biso   1.000  O
  O18      1.0000 0.21529  0.99944  0.41610  Biso   1.000  O
  O19      1.0000 0.11737  0.04536  0.22760  Biso   1.000  O
  O20      1.0000 0.17978  0.17668  0.64090  Biso   1.000  O
  O21      1.0000 0.00683  0.08916  0.36840  Biso   1.000  O
  Mo4      1.0000 0.69063  0.58936  0.05836  Biso   1.000  Mo
  P4       1.0000 0.58249  0.61452  0.80346  Biso   1.000  P
  O22      1.0000 0.57030  0.68230  0.71450  Biso   1.000  O
  O23      1.0000 0.64457  0.64238  0.89850  Biso   1.000  O
  O24      1.0000 0.60008  0.54341  0.08300  Biso   1.000  O
  O25      1.0000 0.71529  0.49944  0.91610  Biso   1.000  O
  O26      1.0000 0.61737  0.54536  0.72760  Biso   1.000  O
  O27      1.0000 0.67978  0.67668  0.14090  Biso   1.000  O
  O28      1.0000 0.50683  0.58916  0.86840  Biso   1.000  O
  Mo5      1.0000 0.83936  0.55937  0.30836  Biso   1.000  Mo
  P5       1.0000 0.86452  0.66751  0.05346  Biso   1.000  P
  O29      1.0000 0.93230  0.67970  0.96450  Biso   1.000  O
  O30      1.0000 0.89238  0.60543  0.14850  Biso   1.000  O
  O31      1.0000 0.79341  0.64992  0.33300  Biso   1.000  O
  O32      1.0000 0.74944  0.53471  0.16610  Biso   1.000  O
  O33      1.0000 0.79536  0.63263  0.97760  Biso   1.000  O
  O34      1.0000 0.92668  0.57022  0.39090  Biso   1.000  O
  O35      1.0000 0.83916  0.74317  0.11840  Biso   1.000  O
  Mo6      1.0000 0.33936  0.05937  0.80836  Biso   1.000  Mo
  P6       1.0000 0.36452  0.16751  0.55346  Biso   1.000  P
  O36      1.0000 0.43230  0.17970  0.46450  Biso   1.000  O
  O37      1.0000 0.39238  0.10543  0.64850  Biso   1.000  O
  O38      1.0000 0.29341  0.14992  0.83300  Biso   1.000  O
  O39      1.0000 0.24944  0.03471  0.66610  Biso   1.000  O
  O40      1.0000 0.29536  0.13263  0.47760  Biso   1.000  O
  O41      1.0000 0.42668  0.07022  0.89090  Biso   1.000  O
  O42      1.0000 0.33916  0.24317  0.61840  Biso   1.000  O
  Mo7      1.0000 0.66064  0.44063  0.80836  Biso   1.000  Mo
  P7       1.0000 0.63548  0.33249  0.55346  Biso   1.000  P
  O43      1.0000 0.56770  0.32030  0.46450  Biso   1.000  O
  O44      1.0000 0.60762  0.39457  0.64850  Biso   1.000  O
  O45      1.0000 0.70659  0.35008  0.83300  Biso   1.000  O
  O46      1.0000 0.75056  0.46529  0.66610  Biso   1.000  O
  O47      1.0000 0.70464  0.36737  0.47760  Biso   1.000  O
  O48      1.0000 0.57332  0.42978  0.89090  Biso   1.000  O
  O49      1.0000 0.66084  0.25683  0.61840  Biso   1.000  O
  Mo8      1.0000 0.16064  0.94063  0.30836  Biso   1.000  Mo
  P8       1.0000 0.13548  0.83249  0.05346  Biso   1.000  P
  O50      1.0000 0.06770  0.82030  0.96450  Biso   1.000  O
  O51      1.0000 0.10762  0.89457  0.14850  Biso   1.000  O
  O52      1.0000 0.20659  0.85008  0.33300  Biso   1.000  O
  O53      1.0000 0.25056  0.96529  0.16610  Biso   1.000  O
  O54      1.0000 0.20464  0.86737  0.97760  Biso   1.000  O
  O55      1.0000 0.07332  0.92978  0.39090  Biso   1.000  O
  O56      1.0000 0.16084  0.75683  0.11840  Biso   1.000  O
  Mo9      1.0000 0.69063  0.08936  0.94164  Biso   1.000  Mo
  P9       1.0000 0.58249  0.11452  0.19654  Biso   1.000  P
  O57      1.0000 0.57030  0.18230  0.28550  Biso   1.000  O
  O58      1.0000 0.64457  0.14238  0.10150  Biso   1.000  O
  O59      1.0000 0.60008  0.04341  0.91700  Biso   1.000  O
  O60      1.0000 0.71529  0.99944  0.08390  Biso   1.000  O
  O61      1.0000 0.61737  0.04536  0.27240  Biso   1.000  O
  O62      1.0000 0.67978  0.17668  0.85910  Biso   1.000  O
  O63      1.0000 0.50683  0.08916  0.13160  Biso   1.000  O
  Mo10     1.0000 0.19063  0.58936  0.44164  Biso   1.000  Mo
  P10      1.0000 0.08249  0.61452  0.69654  Biso   1.000  P
  O64      1.0000 0.07030  0.68230  0.78550  Biso   1.000  O
  O65      1.0000 0.14457  0.64238  0.60150  Biso   1.000  O
  O66      1.0000 0.10008  0.54341  0.41700  Biso   1.000  O
  O67      1.0000 0.21529  0.49944  0.58390  Biso   1.000  O
  O68      1.0000 0.11737  0.54536  0.77240  Biso   1.000  O
  O69      1.0000 0.17978  0.67668  0.35910  Biso   1.000  O
  O70      1.0000 0.00683  0.58916  0.63160  Biso   1.000  O
  Mo11     1.0000 0.80937  0.91064  0.44164  Biso   1.000  Mo
  P11      1.0000 0.91751  0.88548  0.69654  Biso   1.000  P
  O71      1.0000 0.92970  0.81770  0.78550  Biso   1.000  O
  O72      1.0000 0.85543  0.85762  0.60150  Biso   1.000  O
  O73      1.0000 0.89992  0.95659  0.41700  Biso   1.000  O
  O74      1.0000 0.78471  0.00056  0.58390  Biso   1.000  O
  O75      1.0000 0.88263  0.95464  0.77240  Biso   1.000  O
  O76      1.0000 0.82022  0.82332  0.35910  Biso   1.000  O
  O77      1.0000 0.99317  0.91084  0.63160  Biso   1.000  O
  Mo12     1.0000 0.30937  0.41064  0.94164  Biso   1.000  Mo
  P12      1.0000 0.41751  0.38548  0.19654  Biso   1.000  P
  O78      1.0000 0.42970  0.31770  0.28550  Biso   1.000  O
  O79      1.0000 0.35543  0.35762  0.10150  Biso   1.000  O
  O80      1.0000 0.39992  0.45659  0.91700  Biso   1.000  O
  O81      1.0000 0.28471  0.50056  0.08390  Biso   1.000  O
  O82      1.0000 0.38263  0.45464  0.27240  Biso   1.000  O
  O83      1.0000 0.32022  0.32332  0.85910  Biso   1.000  O
  O84      1.0000 0.49317  0.41084  0.13160  Biso   1.000  O
  Mo13     1.0000 0.16064  0.44063  0.69164  Biso   1.000  Mo
  P13      1.0000 0.13548  0.33249  0.94654  Biso   1.000  P
  O85      1.0000 0.06770  0.32030  0.03550  Biso   1.000  O
  O86      1.0000 0.10762  0.39457  0.85150  Biso   1.000  O
  O87      1.0000 0.20659  0.35008  0.66700  Biso   1.000  O
  O88      1.0000 0.25056  0.46529  0.83390  Biso   1.000  O
  O89      1.0000 0.20464  0.36737  0.02240  Biso   1.000  O
  O90      1.0000 0.07332  0.42978  0.60910  Biso   1.000  O
  O91      1.0000 0.16084  0.25683  0.88160  Biso   1.000  O
  Mo14     1.0000 0.66064  0.94063  0.19164  Biso   1.000  Mo
  P14      1.0000 0.63548  0.83249  0.44654  Biso   1.000  P
  O92      1.0000 0.56770  0.82030  0.53550  Biso   1.000  O
  O93      1.0000 0.60762  0.89457  0.35150  Biso   1.000  O
  O94      1.0000 0.70659  0.85008  0.16700  Biso   1.000  O
  O95      1.0000 0.75056  0.96529  0.33390  Biso   1.000  O
  O96      1.0000 0.70464  0.86737  0.52240  Biso   1.000  O
  O97      1.0000 0.57332  0.92978  0.10910  Biso   1.000  O
  O98      1.0000 0.66084  0.75683  0.38160  Biso   1.000  O
  Mo15     1.0000 0.33936  0.55937  0.19164  Biso   1.000  Mo
  P15      1.0000 0.36452  0.66751  0.44654  Biso   1.000  P
  O99      1.0000 0.43230  0.67970  0.53550  Biso   1.000  O
  O100     1.0000 0.39238  0.60543  0.35150  Biso   1.000  O
  O101     1.0000 0.29341  0.64992  0.16700  Biso   1.000  O
  O102     1.0000 0.24944  0.53471  0.33390  Biso   1.000  O
  O103     1.0000 0.29536  0.63263  0.52240  Biso   1.000  O
  O104     1.0000 0.42668  0.57022  0.10910  Biso   1.000  O
  O105     1.0000 0.33916  0.74317  0.38160  Biso   1.000  O
  Mo16     1.0000 0.83936  0.05937  0.69164  Biso   1.000  Mo
  P16      1.0000 0.86452  0.16751  0.94654  Biso   1.000  P
  O106     1.0000 0.93230  0.17970  0.03550  Biso   1.000  O
  O107     1.0000 0.89238  0.10543  0.85150  Biso   1.000  O
  O108     1.0000 0.79341  0.14992  0.66700  Biso   1.000  O
  O109     1.0000 0.74944  0.03471  0.83390  Biso   1.000  O
  O110     1.0000 0.79536  0.13263  0.02240  Biso   1.000  O
  O111     1.0000 0.92668  0.07022  0.60910  Biso   1.000  O
  O112     1.0000 0.83916  0.24317  0.88160  Biso   1.000  O
  Co1      1.0000 0.50000  0.75000  0.62500  Biso   1.000  Co
  Co2      1.0000 0.00000  0.25000  0.12500  Biso   1.000  Co
  Co3      1.0000 0.00000  0.75000  0.87500  Biso   1.000  Co
  Co4      1.0000 0.50000  0.25000  0.37500  Biso   1.000  Co
  Co5      1.0000 0.50000  0.00000  0.00000  Biso   1.000  Co
  Co6      1.0000 0.00000  0.50000  0.50000  Biso   1.000  Co
  Co7      1.0000 0.00000  0.00000  0.50000  Biso   1.000  Co
  Co8      1.0000 0.50000  0.50000  0.00000  Biso   1.000  Co
  Co9      1.0000 0.75000  0.75000  0.25000  Biso   1.000  Co
  Co10     1.0000 0.75000  0.25000  0.75000  Biso   1.000  Co
  Co11     1.0000 0.25000  0.25000  0.75000  Biso   1.000  Co
  Co12     1.0000 0.25000  0.75000  0.25000  Biso   1.000  Co
