data_image0
_cell_length_a       9.6271
_cell_length_b       13.1172
_cell_length_c       10.5726
_cell_angle_alpha    90
_cell_angle_beta     110.084
_cell_angle_gamma    90

_symmetry_space_group_name_H-M    "P 1"
_symmetry_int_tables_number       1

loop_
  _symmetry_equiv_pos_as_xyz
  'x, y, z'

loop_
  _atom_site_label
  _atom_site_occupancy
  _atom_site_fract_x
  _atom_site_fract_y
  _atom_site_fract_z
  _atom_site_thermal_displace_type
  _atom_site_B_iso_or_equiv
  _atom_site_type_symbol
  Mn1      1.0000 0.20533  0.38397  0.36015  Biso   1.000  Mn
  Mn2      1.0000 0.25222  0.63431  0.54889  Biso   1.000  Mn
  C1       1.0000 0.43610  0.56870  0.41380  Biso   1.000  C
  C2       1.0000 0.54570  0.53490  0.34900  Biso   1.000  C
  C3       1.0000 0.49240  0.48110  0.22980  Biso   1.000  C
  H1       1.0000 0.39140  0.46970  0.18930  Biso   1.000  H
  C4       1.0000 0.59100  0.44400  0.17050  Biso   1.000  C
  C5       1.0000 0.73950  0.46450  0.23130  Biso   1.000  C
  H2       1.0000 0.80570  0.43880  0.19280  Biso   1.000  H
  C6       1.0000 0.79320  0.52170  0.34770  Biso   1.000  C
  C7       1.0000 0.69530  0.55820  0.40770  Biso   1.000  C
  H3       1.0000 0.72910  0.59750  0.48550  Biso   1.000  H
  C8       1.0000 0.95840  0.53890  0.40550  Biso   1.000  C
  C9       1.0000 0.54310  0.38050  0.04620  Biso   1.000  C
  C10      1.0000 0.45570  0.42140  0.92330  Biso   1.000  C
  H4       1.0000 0.42010  0.48760  0.92040  Biso   1.000  H
  C11      1.0000 0.42040  0.36570  0.80520  Biso   1.000  C
  C12      1.0000 0.46930  0.26470  0.81170  Biso   1.000  C
  H5       1.0000 0.44330  0.22540  0.73380  Biso   1.000  H
  C13      1.0000 0.55670  0.22290  0.93390  Biso   1.000  C
  H6       1.0000 0.59160  0.15650  0.93690  Biso   1.000  H
  C14      1.0000 0.59180  0.27880  0.05010  Biso   1.000  C
  C15      1.0000 0.33580  0.41230  0.67310  Biso   1.000  C
  C16      1.0000 0.68710  0.23020  0.18270  Biso   1.000  C
  O1       1.0000 0.30500  0.53380  0.36820  Biso   1.000  O
  O2       1.0000 0.47650  0.62950  0.51230  Biso   1.000  O
  O3       1.0000 0.29880  0.35540  0.57140  Biso   1.000  O
  O4       1.0000 0.30890  0.50540  0.67220  Biso   1.000  O
  O5       1.0000 0.63730  0.22940  0.27880  Biso   1.000  O
  O6       1.0000 0.80520  0.19180  0.18590  Biso   1.000  O
  O7       1.0000 0.03140  0.47800  0.36860  Biso   1.000  O
  O8       1.0000 0.01040  0.61240  0.48430  Biso   1.000  O
  Mn3      1.0000 0.79467  0.88397  0.63985  Biso   1.000  Mn
  Mn4      1.0000 0.74778  0.13431  0.45111  Biso   1.000  Mn
  C17      1.0000 0.56390  0.06870  0.58620  Biso   1.000  C
  C18      1.0000 0.45430  0.03490  0.65100  Biso   1.000  C
  C19      1.0000 0.50760  0.98110  0.77020  Biso   1.000  C
  H7       1.0000 0.60860  0.96970  0.81070  Biso   1.000  H
  C20      1.0000 0.40900  0.94400  0.82950  Biso   1.000  C
  C21      1.0000 0.26050  0.96450  0.76870  Biso   1.000  C
  H8       1.0000 0.19430  0.93880  0.80720  Biso   1.000  H
  C22      1.0000 0.20680  0.02170  0.65230  Biso   1.000  C
  C23      1.0000 0.30470  0.05820  0.59230  Biso   1.000  C
  H9       1.0000 0.27090  0.09750  0.51450  Biso   1.000  H
  C24      1.0000 0.04160  0.03890  0.59450  Biso   1.000  C
  C25      1.0000 0.45690  0.88050  0.95380  Biso   1.000  C
  C26      1.0000 0.54430  0.92140  0.07670  Biso   1.000  C
  H10      1.0000 0.57990  0.98760  0.07960  Biso   1.000  H
  C27      1.0000 0.57960  0.86570  0.19480  Biso   1.000  C
  C28      1.0000 0.53070  0.76470  0.18830  Biso   1.000  C
  H11      1.0000 0.55670  0.72540  0.26620  Biso   1.000  H
  C29      1.0000 0.44330  0.72290  0.06610  Biso   1.000  C
  H12      1.0000 0.40840  0.65650  0.06310  Biso   1.000  H
  C30      1.0000 0.40820  0.77880  0.94990  Biso   1.000  C
  C31      1.0000 0.66420  0.91230  0.32690  Biso   1.000  C
  C32      1.0000 0.31290  0.73020  0.81730  Biso   1.000  C
  O9       1.0000 0.69500  0.03380  0.63180  Biso   1.000  O
  O10      1.0000 0.52350  0.12950  0.48770  Biso   1.000  O
  O11      1.0000 0.70120  0.85540  0.42860  Biso   1.000  O
  O12      1.0000 0.69110  0.00540  0.32780  Biso   1.000  O
  O13      1.0000 0.36270  0.72940  0.72120  Biso   1.000  O
  O14      1.0000 0.19480  0.69180  0.81410  Biso   1.000  O
  O15      1.0000 0.96860  0.97800  0.63140  Biso   1.000  O
  O16      1.0000 0.98960  0.11240  0.51570  Biso   1.000  O
