data_WAFKAQ_clean
_audit_creation_date              2014-07-02
_audit_creation_method            'Materials Studio'
_symmetry_space_group_name_H-M    'P1'
_symmetry_Int_Tables_number       1
_symmetry_cell_setting            triclinic
loop_
_symmetry_equiv_pos_as_xyz
  x,y,z
_cell_length_a                    14.3547
_cell_length_b                    14.3547
_cell_length_c                    14.3547
_cell_angle_alpha                 63.2920
_cell_angle_beta                  84.1968
_cell_angle_gamma                 116.7080
loop_
_atom_site_label
_atom_site_type_symbol
_atom_site_fract_x
_atom_site_fract_y
_atom_site_fract_z
_atom_site_U_iso_or_equiv
_atom_site_adp_type
_atom_site_occupancy
Zn1    Zn    0.42331   0.00000   0.57669   0.01267  Uiso   1.00
Zn2    Zn    0.07669  -0.00000   0.92331   0.01267  Uiso   1.00
Zn3    Zn    0.57669   0.00000   0.42331   0.01267  Uiso   1.00
Zn4    Zn    0.92331   0.00000   0.07669   0.01267  Uiso   1.00
H1     H     0.24660   0.09320   0.36260   0.01267  Uiso   1.00
H2     H     0.42500   0.07300   0.74200   0.01267  Uiso   1.00
H3     H     0.33100   0.91700   0.81800   0.01267  Uiso   1.00
H4     H     0.54420   0.90680   0.84660   0.01267  Uiso   1.00
H5     H     0.18500   0.92700   0.64800   0.01267  Uiso   1.00
H6     H     0.26500   0.08300   0.58600   0.01267  Uiso   1.00
H7     H     0.15340   0.60920   0.75340   0.01267  Uiso   1.00
H8     H     0.35200   0.16700   0.57500   0.01267  Uiso   1.00
H9     H     0.41400   0.14900   0.66900   0.01267  Uiso   1.00
H10    H     0.63740   0.39080   0.45580   0.01267  Uiso   1.00
H11    H     0.25800   0.83300   0.81500   0.01267  Uiso   1.00
H12    H     0.18200   0.85100   0.73500   0.01267  Uiso   1.00
H13    H     0.95580   0.60920   0.13740   0.01267  Uiso   1.00
H14    H     0.31500   0.16700   0.75800   0.01267  Uiso   1.00
H15    H     0.23500   0.14900   0.68200   0.01267  Uiso   1.00
H16    H     0.25340   0.39080   0.65340   0.01267  Uiso   1.00
H17    H     0.07500   0.83300   0.85200   0.01267  Uiso   1.00
H18    H     0.16900   0.85100   0.91400   0.01267  Uiso   1.00
H19    H     0.86260   0.90680   0.74660   0.01267  Uiso   1.00
H20    H     0.24200   0.92700   0.92500   0.01267  Uiso   1.00
H21    H     0.31800   0.08300   0.83100   0.01267  Uiso   1.00
H22    H     0.34660   0.09320   0.04420   0.01267  Uiso   1.00
H23    H     0.14800   0.07300   0.68500   0.01267  Uiso   1.00
H24    H     0.08600   0.91700   0.76500   0.01267  Uiso   1.00
H25    H     0.75340   0.90680   0.63740   0.01267  Uiso   1.00
H26    H     0.57500   0.92700   0.25800   0.01267  Uiso   1.00
H27    H     0.66900   0.08300   0.18200   0.01267  Uiso   1.00
H28    H     0.45580   0.09320   0.15340   0.01267  Uiso   1.00
H29    H     0.81500   0.07300   0.35200   0.01267  Uiso   1.00
H30    H     0.73500   0.91700   0.41400   0.01267  Uiso   1.00
H31    H     0.84660   0.39080   0.24660   0.01267  Uiso   1.00
H32    H     0.64800   0.83300   0.42500   0.01267  Uiso   1.00
H33    H     0.58600   0.85100   0.33100   0.01267  Uiso   1.00
H34    H     0.36260   0.60920   0.54420   0.01267  Uiso   1.00
H35    H     0.74200   0.16700   0.18500   0.01267  Uiso   1.00
H36    H     0.81800   0.14900   0.26500   0.01267  Uiso   1.00
H37    H     0.04420   0.39080   0.86260   0.01267  Uiso   1.00
H38    H     0.68500   0.83300   0.24200   0.01267  Uiso   1.00
H39    H     0.76500   0.85100   0.31800   0.01267  Uiso   1.00
H40    H     0.74660   0.60920   0.34660   0.01267  Uiso   1.00
H41    H     0.92500   0.16700   0.14800   0.01267  Uiso   1.00
H42    H     0.83100   0.14900   0.08600   0.01267  Uiso   1.00
H43    H     0.13740   0.09320   0.25340   0.01267  Uiso   1.00
H44    H     0.75800   0.07300   0.07500   0.01267  Uiso   1.00
H45    H     0.68200   0.91700   0.16900   0.01267  Uiso   1.00
H46    H     0.65340   0.90680   0.95580   0.01267  Uiso   1.00
H47    H     0.85200   0.92700   0.31500   0.01267  Uiso   1.00
H48    H     0.91400   0.08300   0.23500   0.01267  Uiso   1.00
C1     C     0.26580   0.09102   0.29940   0.01267  Uiso   1.00
C2     C     0.36690   0.02850   0.75560   0.01267  Uiso   1.00
C3     C     0.60958   0.90898   0.82522   0.01267  Uiso   1.00
C4     C     0.21590   0.97150   0.66160   0.01267  Uiso   1.00
C5     C     0.17478   0.56520   0.73420   0.01267  Uiso   1.00
C6     C     0.33840   0.12250   0.63310   0.01267  Uiso   1.00
C7     C     0.70060   0.43480   0.39042   0.01267  Uiso   1.00
C8     C     0.24440   0.87750   0.78410   0.01267  Uiso   1.00
C9     C     0.89042   0.56520   0.20060   0.01267  Uiso   1.00
C10    C     0.28410   0.12250   0.74440   0.01267  Uiso   1.00
C11    C     0.23420   0.43480   0.67478   0.01267  Uiso   1.00
C12    C     0.13310   0.87750   0.83840   0.01267  Uiso   1.00
C13    C     0.79940   0.90898   0.76580   0.01267  Uiso   1.00
C14    C     0.25560   0.97150   0.86690   0.01267  Uiso   1.00
C15    C     0.32522   0.09102   0.10958   0.01267  Uiso   1.00
C16    C     0.16160   0.02850   0.71590   0.01267  Uiso   1.00
C17    C     0.73420   0.90898   0.70060   0.01267  Uiso   1.00
C18    C     0.63310   0.97150   0.24440   0.01267  Uiso   1.00
C19    C     0.39042   0.09102   0.17478   0.01267  Uiso   1.00
C20    C     0.78410   0.02850   0.33840   0.01267  Uiso   1.00
C21    C     0.82522   0.43480   0.26580   0.01267  Uiso   1.00
C22    C     0.66160   0.87750   0.36690   0.01267  Uiso   1.00
C23    C     0.29940   0.56520   0.60958   0.01267  Uiso   1.00
C24    C     0.75560   0.12250   0.21590   0.01267  Uiso   1.00
C25    C     0.10958   0.43480   0.79940   0.01267  Uiso   1.00
C26    C     0.71590   0.87750   0.25560   0.01267  Uiso   1.00
C27    C     0.76580   0.56520   0.32522   0.01267  Uiso   1.00
C28    C     0.86690   0.12250   0.16160   0.01267  Uiso   1.00
C29    C     0.20060   0.09102   0.23420   0.01267  Uiso   1.00
C30    C     0.74440   0.02850   0.13310   0.01267  Uiso   1.00
C31    C     0.67478   0.90898   0.89042   0.01267  Uiso   1.00
C32    C     0.83840   0.97150   0.28410   0.01267  Uiso   1.00
C33    C     0.35912   0.08781   0.27131   0.01267  Uiso   1.00
C34    C     0.42122   0.07168   0.34954   0.01267  Uiso   1.00
C35    C     0.64088   0.91219   0.72869   0.01267  Uiso   1.00
C36    C     0.57878   0.92832   0.65046   0.01267  Uiso   1.00
C37    C     0.27131   0.63043   0.64088   0.01267  Uiso   1.00
C38    C     0.34954   0.77076   0.57878   0.01267  Uiso   1.00
C39    C     0.72869   0.36957   0.35912   0.01267  Uiso   1.00
C40    C     0.65046   0.22924   0.42122   0.01267  Uiso   1.00
C41    C     0.85912   0.63043   0.22869   0.01267  Uiso   1.00
C42    C     0.92122   0.77076   0.15046   0.01267  Uiso   1.00
C43    C     0.14088   0.36957   0.77131   0.01267  Uiso   1.00
C44    C     0.07878   0.22924   0.84954   0.01267  Uiso   1.00
C45    C     0.77131   0.91219   0.85912   0.01267  Uiso   1.00
C46    C     0.84954   0.92832   0.92122   0.01267  Uiso   1.00
C47    C     0.22869   0.08781   0.14088   0.01267  Uiso   1.00
C48    C     0.15046   0.07168   0.07878   0.01267  Uiso   1.00
N1     N     0.31711  -0.00000   0.68289   0.01267  Uiso   1.00
N2     N     0.18289  -0.00000   0.81711   0.01267  Uiso   1.00
N3     N     0.68289  -0.00000   0.31711   0.01267  Uiso   1.00
N4     N     0.81711  -0.00000   0.18289   0.01267  Uiso   1.00
O1     O     0.38674   0.06477   0.43721   0.01267  Uiso   1.00
O2     O     0.49802   0.93523   0.67803   0.01267  Uiso   1.00
O3     O     0.32197   0.82395   0.61326   0.01267  Uiso   1.00
O4     O     0.56279   0.17605   0.50198   0.01267  Uiso   1.00
O5     O     0.00198   0.82395   0.06279   0.01267  Uiso   1.00
O6     O     0.11326   0.17605   0.82197   0.01267  Uiso   1.00
O7     O     0.93721   0.93523   0.88674   0.01267  Uiso   1.00
O8     O     0.17803   0.06477   0.99802   0.01267  Uiso   1.00
O9     O     0.61326   0.93523   0.56279   0.01267  Uiso   1.00
O10    O     0.50198   0.06477   0.32197   0.01267  Uiso   1.00
O11    O     0.67803   0.17605   0.38674   0.01267  Uiso   1.00
O12    O     0.43721   0.82395   0.49802   0.01267  Uiso   1.00
O13    O     0.99802   0.17605   0.93721   0.01267  Uiso   1.00
O14    O     0.88674   0.82395   0.17803   0.01267  Uiso   1.00
O15    O     0.06279   0.06477   0.11326   0.01267  Uiso   1.00
O16    O     0.82197   0.93523   0.00198   0.01267  Uiso   1.00
