data_image0
_cell_length_a       21.5554
_cell_length_b       23.9367
_cell_length_c       10.3787
_cell_angle_alpha    90
_cell_angle_beta     99.838
_cell_angle_gamma    90

_symmetry_space_group_name_H-M    "P 1"
_symmetry_int_tables_number       1

loop_
  _symmetry_equiv_pos_as_xyz
  'x, y, z'

loop_
  _atom_site_label
  _atom_site_occupancy
  _atom_site_fract_x
  _atom_site_fract_y
  _atom_site_fract_z
  _atom_site_thermal_displace_type
  _atom_site_B_iso_or_equiv
  _atom_site_type_symbol
  U1       1.0000 0.50983  0.36662  0.79295  Biso   1.000  U
  P1       1.0000 0.39800  0.37160  0.46940  Biso   1.000  P
  P2       1.0000 0.30710  0.11714  0.41190  Biso   1.000  P
  P3       1.0000 0.36500  0.35076  0.92750  Biso   1.000  P
  P4       1.0000 0.32600  0.08541  0.92930  Biso   1.000  P
  O1       1.0000 0.41790  0.39030  0.34220  Biso   1.000  O
  O2       1.0000 0.33880  0.40730  0.48280  Biso   1.000  O
  O3       1.0000 0.44830  0.37680  0.58810  Biso   1.000  O
  O4       1.0000 0.32290  0.09240  0.54710  Biso   1.000  O
  O5       1.0000 0.34400  0.09050  0.31290  Biso   1.000  O
  O6       1.0000 0.23620  0.11600  0.35720  Biso   1.000  O
  O7       1.0000 0.39130  0.37020  0.06440  Biso   1.000  O
  O8       1.0000 0.29820  0.37730  0.88670  Biso   1.000  O
  O9       1.0000 0.40260  0.36450  0.81950  Biso   1.000  O
  O10      1.0000 0.36120  0.06160  0.05750  Biso   1.000  O
  O11      1.0000 0.25430  0.07800  0.91750  Biso   1.000  O
  O12      1.0000 0.34780  0.06040  0.81110  Biso   1.000  O
  O13      1.0000 0.50470  0.43860  0.82710  Biso   1.000  O
  C1       1.0000 0.37320  0.29980  0.45310  Biso   1.000  C
  C2       1.0000 0.41080  0.25660  0.50520  Biso   1.000  C
  H1       1.0000 0.45170  0.26440  0.55210  Biso   1.000  H
  C3       1.0000 0.39100  0.20280  0.49110  Biso   1.000  C
  H2       1.0000 0.41870  0.17370  0.52650  Biso   1.000  H
  C4       1.0000 0.33180  0.18920  0.42720  Biso   1.000  C
  C5       1.0000 0.29280  0.23330  0.37220  Biso   1.000  C
  H3       1.0000 0.25210  0.22520  0.32500  Biso   1.000  H
  C6       1.0000 0.31220  0.28730  0.38540  Biso   1.000  C
  H4       1.0000 0.28490  0.31650  0.34910  Biso   1.000  H
  C7       1.0000 0.35440  0.27610  0.92870  Biso   1.000  C
  C8       1.0000 0.35770  0.24500  0.81800  Biso   1.000  C
  H5       1.0000 0.36690  0.26310  0.74190  Biso   1.000  H
  C9       1.0000 0.34760  0.18690  0.81620  Biso   1.000  C
  H6       1.0000 0.34780  0.16610  0.73840  Biso   1.000  H
  C10      1.0000 0.33710  0.16000  0.93060  Biso   1.000  C
  C11      1.0000 0.33730  0.19050  0.04320  Biso   1.000  C
  H7       1.0000 0.33300  0.17210  0.12240  Biso   1.000  H
  C12      1.0000 0.34370  0.24780  0.04060  Biso   1.000  C
  H8       1.0000 0.34080  0.26860  0.11720  Biso   1.000  H
  U2       1.0000 0.00983  0.86662  0.79295  Biso   1.000  U
  P5       1.0000 0.89800  0.87160  0.46940  Biso   1.000  P
  P6       1.0000 0.80710  0.61714  0.41190  Biso   1.000  P
  P7       1.0000 0.86500  0.85076  0.92750  Biso   1.000  P
  P8       1.0000 0.82600  0.58541  0.92930  Biso   1.000  P
  O14      1.0000 0.91790  0.89030  0.34220  Biso   1.000  O
  O15      1.0000 0.83880  0.90730  0.48280  Biso   1.000  O
  O16      1.0000 0.94830  0.87680  0.58810  Biso   1.000  O
  O17      1.0000 0.82290  0.59240  0.54710  Biso   1.000  O
  O18      1.0000 0.84400  0.59050  0.31290  Biso   1.000  O
  O19      1.0000 0.73620  0.61600  0.35720  Biso   1.000  O
  O20      1.0000 0.89130  0.87020  0.06440  Biso   1.000  O
  O21      1.0000 0.79820  0.87730  0.88670  Biso   1.000  O
  O22      1.0000 0.90260  0.86450  0.81950  Biso   1.000  O
  O23      1.0000 0.86120  0.56160  0.05750  Biso   1.000  O
  O24      1.0000 0.75430  0.57800  0.91750  Biso   1.000  O
  O25      1.0000 0.84780  0.56040  0.81110  Biso   1.000  O
  O26      1.0000 0.00470  0.93860  0.82710  Biso   1.000  O
  C13      1.0000 0.87320  0.79980  0.45310  Biso   1.000  C
  C14      1.0000 0.91080  0.75660  0.50520  Biso   1.000  C
  H9       1.0000 0.95170  0.76440  0.55210  Biso   1.000  H
  C15      1.0000 0.89100  0.70280  0.49110  Biso   1.000  C
  H10      1.0000 0.91870  0.67370  0.52650  Biso   1.000  H
  C16      1.0000 0.83180  0.68920  0.42720  Biso   1.000  C
  C17      1.0000 0.79280  0.73330  0.37220  Biso   1.000  C
  H11      1.0000 0.75210  0.72520  0.32500  Biso   1.000  H
  C18      1.0000 0.81220  0.78730  0.38540  Biso   1.000  C
  H12      1.0000 0.78490  0.81650  0.34910  Biso   1.000  H
  C19      1.0000 0.85440  0.77610  0.92870  Biso   1.000  C
  C20      1.0000 0.85770  0.74500  0.81800  Biso   1.000  C
  H13      1.0000 0.86690  0.76310  0.74190  Biso   1.000  H
  C21      1.0000 0.84760  0.68690  0.81620  Biso   1.000  C
  H14      1.0000 0.84780  0.66610  0.73840  Biso   1.000  H
  C22      1.0000 0.83710  0.66000  0.93060  Biso   1.000  C
  C23      1.0000 0.83730  0.69050  0.04320  Biso   1.000  C
  H15      1.0000 0.83300  0.67210  0.12240  Biso   1.000  H
  C24      1.0000 0.84370  0.74780  0.04060  Biso   1.000  C
  H16      1.0000 0.84080  0.76860  0.11720  Biso   1.000  H
  U3       1.0000 0.49017  0.36662  0.20705  Biso   1.000  U
  P9       1.0000 0.60200  0.37160  0.53060  Biso   1.000  P
  P10      1.0000 0.69290  0.11714  0.58810  Biso   1.000  P
  P11      1.0000 0.63500  0.35076  0.07250  Biso   1.000  P
  P12      1.0000 0.67400  0.08541  0.07070  Biso   1.000  P
  O27      1.0000 0.58210  0.39030  0.65780  Biso   1.000  O
  O28      1.0000 0.66120  0.40730  0.51720  Biso   1.000  O
  O29      1.0000 0.55170  0.37680  0.41190  Biso   1.000  O
  O30      1.0000 0.67710  0.09240  0.45290  Biso   1.000  O
  O31      1.0000 0.65600  0.09050  0.68710  Biso   1.000  O
  O32      1.0000 0.76380  0.11600  0.64280  Biso   1.000  O
  O33      1.0000 0.60870  0.37020  0.93560  Biso   1.000  O
  O34      1.0000 0.70180  0.37730  0.11330  Biso   1.000  O
  O35      1.0000 0.59740  0.36450  0.18050  Biso   1.000  O
  O36      1.0000 0.63880  0.06160  0.94250  Biso   1.000  O
  O37      1.0000 0.74570  0.07800  0.08250  Biso   1.000  O
  O38      1.0000 0.65220  0.06040  0.18890  Biso   1.000  O
  O39      1.0000 0.49530  0.43860  0.17290  Biso   1.000  O
  C25      1.0000 0.62680  0.29980  0.54690  Biso   1.000  C
  C26      1.0000 0.58920  0.25660  0.49480  Biso   1.000  C
  H17      1.0000 0.54830  0.26440  0.44790  Biso   1.000  H
  C27      1.0000 0.60900  0.20280  0.50890  Biso   1.000  C
  H18      1.0000 0.58130  0.17370  0.47350  Biso   1.000  H
  C28      1.0000 0.66820  0.18920  0.57280  Biso   1.000  C
  C29      1.0000 0.70720  0.23330  0.62780  Biso   1.000  C
  H19      1.0000 0.74790  0.22520  0.67500  Biso   1.000  H
  C30      1.0000 0.68780  0.28730  0.61460  Biso   1.000  C
  H20      1.0000 0.71510  0.31650  0.65090  Biso   1.000  H
  C31      1.0000 0.64560  0.27610  0.07130  Biso   1.000  C
  C32      1.0000 0.64230  0.24500  0.18200  Biso   1.000  C
  H21      1.0000 0.63310  0.26310  0.25810  Biso   1.000  H
  C33      1.0000 0.65240  0.18690  0.18380  Biso   1.000  C
  H22      1.0000 0.65220  0.16610  0.26160  Biso   1.000  H
  C34      1.0000 0.66290  0.16000  0.06940  Biso   1.000  C
  C35      1.0000 0.66270  0.19050  0.95680  Biso   1.000  C
  H23      1.0000 0.66700  0.17210  0.87760  Biso   1.000  H
  C36      1.0000 0.65630  0.24780  0.95940  Biso   1.000  C
  H24      1.0000 0.65920  0.26860  0.88280  Biso   1.000  H
  U4       1.0000 0.99017  0.86662  0.20705  Biso   1.000  U
  P13      1.0000 0.10200  0.87160  0.53060  Biso   1.000  P
  P14      1.0000 0.19290  0.61714  0.58810  Biso   1.000  P
  P15      1.0000 0.13500  0.85076  0.07250  Biso   1.000  P
  P16      1.0000 0.17400  0.58541  0.07070  Biso   1.000  P
  O40      1.0000 0.08210  0.89030  0.65780  Biso   1.000  O
  O41      1.0000 0.16120  0.90730  0.51720  Biso   1.000  O
  O42      1.0000 0.05170  0.87680  0.41190  Biso   1.000  O
  O43      1.0000 0.17710  0.59240  0.45290  Biso   1.000  O
  O44      1.0000 0.15600  0.59050  0.68710  Biso   1.000  O
  O45      1.0000 0.26380  0.61600  0.64280  Biso   1.000  O
  O46      1.0000 0.10870  0.87020  0.93560  Biso   1.000  O
  O47      1.0000 0.20180  0.87730  0.11330  Biso   1.000  O
  O48      1.0000 0.09740  0.86450  0.18050  Biso   1.000  O
  O49      1.0000 0.13880  0.56160  0.94250  Biso   1.000  O
  O50      1.0000 0.24570  0.57800  0.08250  Biso   1.000  O
  O51      1.0000 0.15220  0.56040  0.18890  Biso   1.000  O
  O52      1.0000 0.99530  0.93860  0.17290  Biso   1.000  O
  C37      1.0000 0.12680  0.79980  0.54690  Biso   1.000  C
  C38      1.0000 0.08920  0.75660  0.49480  Biso   1.000  C
  H25      1.0000 0.04830  0.76440  0.44790  Biso   1.000  H
  C39      1.0000 0.10900  0.70280  0.50890  Biso   1.000  C
  H26      1.0000 0.08130  0.67370  0.47350  Biso   1.000  H
  C40      1.0000 0.16820  0.68920  0.57280  Biso   1.000  C
  C41      1.0000 0.20720  0.73330  0.62780  Biso   1.000  C
  H27      1.0000 0.24790  0.72520  0.67500  Biso   1.000  H
  C42      1.0000 0.18780  0.78730  0.61460  Biso   1.000  C
  H28      1.0000 0.21510  0.81650  0.65090  Biso   1.000  H
  C43      1.0000 0.14560  0.77610  0.07130  Biso   1.000  C
  C44      1.0000 0.14230  0.74500  0.18200  Biso   1.000  C
  H29      1.0000 0.13310  0.76310  0.25810  Biso   1.000  H
  C45      1.0000 0.15240  0.68690  0.18380  Biso   1.000  C
  H30      1.0000 0.15220  0.66610  0.26160  Biso   1.000  H
  C46      1.0000 0.16290  0.66000  0.06940  Biso   1.000  C
  C47      1.0000 0.16270  0.69050  0.95680  Biso   1.000  C
  H31      1.0000 0.16700  0.67210  0.87760  Biso   1.000  H
  C48      1.0000 0.15630  0.74780  0.95940  Biso   1.000  C
  H32      1.0000 0.15920  0.76860  0.88280  Biso   1.000  H
  U5       1.0000 0.49017  0.63338  0.20705  Biso   1.000  U
  P17      1.0000 0.60200  0.62840  0.53060  Biso   1.000  P
  P18      1.0000 0.69290  0.88286  0.58810  Biso   1.000  P
  P19      1.0000 0.63500  0.64924  0.07250  Biso   1.000  P
  P20      1.0000 0.67400  0.91459  0.07070  Biso   1.000  P
  O53      1.0000 0.58210  0.60970  0.65780  Biso   1.000  O
  O54      1.0000 0.66120  0.59270  0.51720  Biso   1.000  O
  O55      1.0000 0.55170  0.62320  0.41190  Biso   1.000  O
  O56      1.0000 0.67710  0.90760  0.45290  Biso   1.000  O
  O57      1.0000 0.65600  0.90950  0.68710  Biso   1.000  O
  O58      1.0000 0.76380  0.88400  0.64280  Biso   1.000  O
  O59      1.0000 0.60870  0.62980  0.93560  Biso   1.000  O
  O60      1.0000 0.70180  0.62270  0.11330  Biso   1.000  O
  O61      1.0000 0.59740  0.63550  0.18050  Biso   1.000  O
  O62      1.0000 0.63880  0.93840  0.94250  Biso   1.000  O
  O63      1.0000 0.74570  0.92200  0.08250  Biso   1.000  O
  O64      1.0000 0.65220  0.93960  0.18890  Biso   1.000  O
  O65      1.0000 0.49530  0.56140  0.17290  Biso   1.000  O
  C49      1.0000 0.62680  0.70020  0.54690  Biso   1.000  C
  C50      1.0000 0.58920  0.74340  0.49480  Biso   1.000  C
  H33      1.0000 0.54830  0.73560  0.44790  Biso   1.000  H
  C51      1.0000 0.60900  0.79720  0.50890  Biso   1.000  C
  H34      1.0000 0.58130  0.82630  0.47350  Biso   1.000  H
  C52      1.0000 0.66820  0.81080  0.57280  Biso   1.000  C
  C53      1.0000 0.70720  0.76670  0.62780  Biso   1.000  C
  H35      1.0000 0.74790  0.77480  0.67500  Biso   1.000  H
  C54      1.0000 0.68780  0.71270  0.61460  Biso   1.000  C
  H36      1.0000 0.71510  0.68350  0.65090  Biso   1.000  H
  C55      1.0000 0.64560  0.72390  0.07130  Biso   1.000  C
  C56      1.0000 0.64230  0.75500  0.18200  Biso   1.000  C
  H37      1.0000 0.63310  0.73690  0.25810  Biso   1.000  H
  C57      1.0000 0.65240  0.81310  0.18380  Biso   1.000  C
  H38      1.0000 0.65220  0.83390  0.26160  Biso   1.000  H
  C58      1.0000 0.66290  0.84000  0.06940  Biso   1.000  C
  C59      1.0000 0.66270  0.80950  0.95680  Biso   1.000  C
  H39      1.0000 0.66700  0.82790  0.87760  Biso   1.000  H
  C60      1.0000 0.65630  0.75220  0.95940  Biso   1.000  C
  H40      1.0000 0.65920  0.73140  0.88280  Biso   1.000  H
  U6       1.0000 0.99017  0.13338  0.20705  Biso   1.000  U
  P21      1.0000 0.10200  0.12840  0.53060  Biso   1.000  P
  P22      1.0000 0.19290  0.38286  0.58810  Biso   1.000  P
  P23      1.0000 0.13500  0.14924  0.07250  Biso   1.000  P
  P24      1.0000 0.17400  0.41459  0.07070  Biso   1.000  P
  O66      1.0000 0.08210  0.10970  0.65780  Biso   1.000  O
  O67      1.0000 0.16120  0.09270  0.51720  Biso   1.000  O
  O68      1.0000 0.05170  0.12320  0.41190  Biso   1.000  O
  O69      1.0000 0.17710  0.40760  0.45290  Biso   1.000  O
  O70      1.0000 0.15600  0.40950  0.68710  Biso   1.000  O
  O71      1.0000 0.26380  0.38400  0.64280  Biso   1.000  O
  O72      1.0000 0.10870  0.12980  0.93560  Biso   1.000  O
  O73      1.0000 0.20180  0.12270  0.11330  Biso   1.000  O
  O74      1.0000 0.09740  0.13550  0.18050  Biso   1.000  O
  O75      1.0000 0.13880  0.43840  0.94250  Biso   1.000  O
  O76      1.0000 0.24570  0.42200  0.08250  Biso   1.000  O
  O77      1.0000 0.15220  0.43960  0.18890  Biso   1.000  O
  O78      1.0000 0.99530  0.06140  0.17290  Biso   1.000  O
  C61      1.0000 0.12680  0.20020  0.54690  Biso   1.000  C
  C62      1.0000 0.08920  0.24340  0.49480  Biso   1.000  C
  H41      1.0000 0.04830  0.23560  0.44790  Biso   1.000  H
  C63      1.0000 0.10900  0.29720  0.50890  Biso   1.000  C
  H42      1.0000 0.08130  0.32630  0.47350  Biso   1.000  H
  C64      1.0000 0.16820  0.31080  0.57280  Biso   1.000  C
  C65      1.0000 0.20720  0.26670  0.62780  Biso   1.000  C
  H43      1.0000 0.24790  0.27480  0.67500  Biso   1.000  H
  C66      1.0000 0.18780  0.21270  0.61460  Biso   1.000  C
  H44      1.0000 0.21510  0.18350  0.65090  Biso   1.000  H
  C67      1.0000 0.14560  0.22390  0.07130  Biso   1.000  C
  C68      1.0000 0.14230  0.25500  0.18200  Biso   1.000  C
  H45      1.0000 0.13310  0.23690  0.25810  Biso   1.000  H
  C69      1.0000 0.15240  0.31310  0.18380  Biso   1.000  C
  H46      1.0000 0.15220  0.33390  0.26160  Biso   1.000  H
  C70      1.0000 0.16290  0.34000  0.06940  Biso   1.000  C
  C71      1.0000 0.16270  0.30950  0.95680  Biso   1.000  C
  H47      1.0000 0.16700  0.32790  0.87760  Biso   1.000  H
  C72      1.0000 0.15630  0.25220  0.95940  Biso   1.000  C
  H48      1.0000 0.15920  0.23140  0.88280  Biso   1.000  H
  U7       1.0000 0.50983  0.63338  0.79295  Biso   1.000  U
  P25      1.0000 0.39800  0.62840  0.46940  Biso   1.000  P
  P26      1.0000 0.30710  0.88286  0.41190  Biso   1.000  P
  P27      1.0000 0.36500  0.64924  0.92750  Biso   1.000  P
  P28      1.0000 0.32600  0.91459  0.92930  Biso   1.000  P
  O79      1.0000 0.41790  0.60970  0.34220  Biso   1.000  O
  O80      1.0000 0.33880  0.59270  0.48280  Biso   1.000  O
  O81      1.0000 0.44830  0.62320  0.58810  Biso   1.000  O
  O82      1.0000 0.32290  0.90760  0.54710  Biso   1.000  O
  O83      1.0000 0.34400  0.90950  0.31290  Biso   1.000  O
  O84      1.0000 0.23620  0.88400  0.35720  Biso   1.000  O
  O85      1.0000 0.39130  0.62980  0.06440  Biso   1.000  O
  O86      1.0000 0.29820  0.62270  0.88670  Biso   1.000  O
  O87      1.0000 0.40260  0.63550  0.81950  Biso   1.000  O
  O88      1.0000 0.36120  0.93840  0.05750  Biso   1.000  O
  O89      1.0000 0.25430  0.92200  0.91750  Biso   1.000  O
  O90      1.0000 0.34780  0.93960  0.81110  Biso   1.000  O
  O91      1.0000 0.50470  0.56140  0.82710  Biso   1.000  O
  C73      1.0000 0.37320  0.70020  0.45310  Biso   1.000  C
  C74      1.0000 0.41080  0.74340  0.50520  Biso   1.000  C
  H49      1.0000 0.45170  0.73560  0.55210  Biso   1.000  H
  C75      1.0000 0.39100  0.79720  0.49110  Biso   1.000  C
  H50      1.0000 0.41870  0.82630  0.52650  Biso   1.000  H
  C76      1.0000 0.33180  0.81080  0.42720  Biso   1.000  C
  C77      1.0000 0.29280  0.76670  0.37220  Biso   1.000  C
  H51      1.0000 0.25210  0.77480  0.32500  Biso   1.000  H
  C78      1.0000 0.31220  0.71270  0.38540  Biso   1.000  C
  H52      1.0000 0.28490  0.68350  0.34910  Biso   1.000  H
  C79      1.0000 0.35440  0.72390  0.92870  Biso   1.000  C
  C80      1.0000 0.35770  0.75500  0.81800  Biso   1.000  C
  H53      1.0000 0.36690  0.73690  0.74190  Biso   1.000  H
  C81      1.0000 0.34760  0.81310  0.81620  Biso   1.000  C
  H54      1.0000 0.34780  0.83390  0.73840  Biso   1.000  H
  C82      1.0000 0.33710  0.84000  0.93060  Biso   1.000  C
  C83      1.0000 0.33730  0.80950  0.04320  Biso   1.000  C
  H55      1.0000 0.33300  0.82790  0.12240  Biso   1.000  H
  C84      1.0000 0.34370  0.75220  0.04060  Biso   1.000  C
  H56      1.0000 0.34080  0.73140  0.11720  Biso   1.000  H
  U8       1.0000 0.00983  0.13338  0.79295  Biso   1.000  U
  P29      1.0000 0.89800  0.12840  0.46940  Biso   1.000  P
  P30      1.0000 0.80710  0.38286  0.41190  Biso   1.000  P
  P31      1.0000 0.86500  0.14924  0.92750  Biso   1.000  P
  P32      1.0000 0.82600  0.41459  0.92930  Biso   1.000  P
  O92      1.0000 0.91790  0.10970  0.34220  Biso   1.000  O
  O93      1.0000 0.83880  0.09270  0.48280  Biso   1.000  O
  O94      1.0000 0.94830  0.12320  0.58810  Biso   1.000  O
  O95      1.0000 0.82290  0.40760  0.54710  Biso   1.000  O
  O96      1.0000 0.84400  0.40950  0.31290  Biso   1.000  O
  O97      1.0000 0.73620  0.38400  0.35720  Biso   1.000  O
  O98      1.0000 0.89130  0.12980  0.06440  Biso   1.000  O
  O99      1.0000 0.79820  0.12270  0.88670  Biso   1.000  O
  O100     1.0000 0.90260  0.13550  0.81950  Biso   1.000  O
  O101     1.0000 0.86120  0.43840  0.05750  Biso   1.000  O
  O102     1.0000 0.75430  0.42200  0.91750  Biso   1.000  O
  O103     1.0000 0.84780  0.43960  0.81110  Biso   1.000  O
  O104     1.0000 0.00470  0.06140  0.82710  Biso   1.000  O
  C85      1.0000 0.87320  0.20020  0.45310  Biso   1.000  C
  C86      1.0000 0.91080  0.24340  0.50520  Biso   1.000  C
  H57      1.0000 0.95170  0.23560  0.55210  Biso   1.000  H
  C87      1.0000 0.89100  0.29720  0.49110  Biso   1.000  C
  H58      1.0000 0.91870  0.32630  0.52650  Biso   1.000  H
  C88      1.0000 0.83180  0.31080  0.42720  Biso   1.000  C
  C89      1.0000 0.79280  0.26670  0.37220  Biso   1.000  C
  H59      1.0000 0.75210  0.27480  0.32500  Biso   1.000  H
  C90      1.0000 0.81220  0.21270  0.38540  Biso   1.000  C
  H60      1.0000 0.78490  0.18350  0.34910  Biso   1.000  H
  C91      1.0000 0.85440  0.22390  0.92870  Biso   1.000  C
  C92      1.0000 0.85770  0.25500  0.81800  Biso   1.000  C
  H61      1.0000 0.86690  0.23690  0.74190  Biso   1.000  H
  C93      1.0000 0.84760  0.31310  0.81620  Biso   1.000  C
  H62      1.0000 0.84780  0.33390  0.73840  Biso   1.000  H
  C94      1.0000 0.83710  0.34000  0.93060  Biso   1.000  C
  C95      1.0000 0.83730  0.30950  0.04320  Biso   1.000  C
  H63      1.0000 0.83300  0.32790  0.12240  Biso   1.000  H
  C96      1.0000 0.84370  0.25220  0.04060  Biso   1.000  C
  H64      1.0000 0.84080  0.23140  0.11720  Biso   1.000  H
  U9       1.0000 0.32762  0.00000  0.63185  Biso   1.000  U
  U10      1.0000 0.34215  0.00000  0.22100  Biso   1.000  U
  F1       1.0000 0.29540  0.00000  0.40870  Biso   1.000  F
  O105     1.0000 0.24700  0.00000  0.64630  Biso   1.000  O
  U11      1.0000 0.82762  0.50000  0.63185  Biso   1.000  U
  U12      1.0000 0.84215  0.50000  0.22100  Biso   1.000  U
  F2       1.0000 0.79540  0.50000  0.40870  Biso   1.000  F
  O106     1.0000 0.74700  0.50000  0.64630  Biso   1.000  O
  U13      1.0000 0.67238  0.00000  0.36815  Biso   1.000  U
  U14      1.0000 0.65785  0.00000  0.77900  Biso   1.000  U
  F3       1.0000 0.70460  0.00000  0.59130  Biso   1.000  F
  O107     1.0000 0.75300  0.00000  0.35370  Biso   1.000  O
  U15      1.0000 0.17238  0.50000  0.36815  Biso   1.000  U
  U16      1.0000 0.15785  0.50000  0.77900  Biso   1.000  U
  F4       1.0000 0.20460  0.50000  0.59130  Biso   1.000  F
  O108     1.0000 0.25300  0.50000  0.35370  Biso   1.000  O
  Cs1      1.0000 0.36121  0.50000  0.21283  Biso   1.000  Cs
  Cs2      1.0000 0.86121  0.00000  0.21283  Biso   1.000  Cs
  Cs3      1.0000 0.63879  0.50000  0.78717  Biso   1.000  Cs
  Cs4      1.0000 0.13879  0.00000  0.78717  Biso   1.000  Cs
  F5       1.0000 0.50000  0.33350  0.00000  Biso   1.000  F
  F6       1.0000 0.00000  0.83350  0.00000  Biso   1.000  F
  F7       1.0000 0.50000  0.66650  0.00000  Biso   1.000  F
  F8       1.0000 0.00000  0.16650  0.00000  Biso   1.000  F
