data_image0
_cell_length_a       8.857
_cell_length_b       10.021
_cell_length_c       12.993
_cell_angle_alpha    82.284
_cell_angle_beta     84.145
_cell_angle_gamma    89.896

_symmetry_space_group_name_H-M    "P 1"
_symmetry_int_tables_number       1

loop_
  _symmetry_equiv_pos_as_xyz
  'x, y, z'

loop_
  _atom_site_label
  _atom_site_occupancy
  _atom_site_fract_x
  _atom_site_fract_y
  _atom_site_fract_z
  _atom_site_thermal_displace_type
  _atom_site_B_iso_or_equiv
  _atom_site_type_symbol
  S1       1.0000 0.95399  0.11062  0.25590  Biso   1.000  S
  N1       1.0000 0.09970  0.21030  0.92740  Biso   1.000  N
  N2       1.0000 0.21620  0.38060  0.82550  Biso   1.000  N
  N3       1.0000 0.91860  0.19540  0.54920  Biso   1.000  N
  N4       1.0000 0.87280  0.35980  0.64360  Biso   1.000  N
  N5       1.0000 0.24490  0.91570  0.99650  Biso   1.000  N
  N6       1.0000 0.46750  0.85210  0.93120  Biso   1.000  N
  O1       1.0000 0.02330  0.04500  0.16980  Biso   1.000  O
  O2       1.0000 0.81820  0.03200  0.30060  Biso   1.000  O
  O3       1.0000 0.06170  0.10660  0.33420  Biso   1.000  O
  O4       1.0000 0.91360  0.24850  0.22150  Biso   1.000  O
  C1       1.0000 0.44550  0.51750  0.75470  Biso   1.000  C
  C2       1.0000 0.58000  0.44950  0.73450  Biso   1.000  C
  H1       1.0000 0.57830  0.36750  0.70860  Biso   1.000  H
  C3       1.0000 0.71730  0.50460  0.75320  Biso   1.000  C
  C4       1.0000 0.71840  0.62670  0.79290  Biso   1.000  C
  H2       1.0000 0.81040  0.66320  0.80510  Biso   1.000  H
  C5       1.0000 0.58520  0.69510  0.81460  Biso   1.000  C
  C6       1.0000 0.44800  0.64040  0.79420  Biso   1.000  C
  H3       1.0000 0.35790  0.68600  0.80690  Biso   1.000  H
  C7       1.0000 0.29640  0.46020  0.73320  Biso   1.000  C
  H4       1.0000 0.23220  0.53350  0.70830  Biso   1.000  H
  H5       1.0000 0.31500  0.40360  0.67830  Biso   1.000  H
  C8       1.0000 0.86670  0.43640  0.73260  Biso   1.000  C
  H6       1.0000 0.94690  0.50410  0.71960  Biso   1.000  H
  H7       1.0000 0.88560  0.37580  0.79460  Biso   1.000  H
  C9       1.0000 0.59320  0.83070  0.85260  Biso   1.000  C
  H8       1.0000 0.68850  0.83820  0.88240  Biso   1.000  H
  H9       1.0000 0.59220  0.90090  0.79350  Biso   1.000  H
  C10      1.0000 0.15910  0.42880  0.91500  Biso   1.000  C
  H10      1.0000 0.16790  0.51630  0.93020  Biso   1.000  H
  C11      1.0000 0.08710  0.32320  0.97730  Biso   1.000  C
  H11      1.0000 0.03720  0.32670  0.04340  Biso   1.000  H
  C12      1.0000 0.17780  0.24840  0.83650  Biso   1.000  C
  H12      1.0000 0.20330  0.19180  0.78640  Biso   1.000  H
  C13      1.0000 0.84570  0.40890  0.54370  Biso   1.000  C
  H13      1.0000 0.81420  0.49520  0.52010  Biso   1.000  H
  C14      1.0000 0.87420  0.30610  0.48560  Biso   1.000  C
  H14      1.0000 0.86500  0.31030  0.41460  Biso   1.000  H
  C15      1.0000 0.91610  0.23070  0.64320  Biso   1.000  C
  H15      1.0000 0.94090  0.17410  0.70160  Biso   1.000  H
  C16      1.0000 0.31800  0.84760  0.07450  Biso   1.000  C
  H16      1.0000 0.27980  0.83160  0.14450  Biso   1.000  H
  C17      1.0000 0.45500  0.80670  0.03430  Biso   1.000  C
  H17      1.0000 0.52630  0.75710  0.07060  Biso   1.000  H
  C18      1.0000 0.33890  0.91720  0.91130  Biso   1.000  C
  H18      1.0000 0.31880  0.95820  0.84560  Biso   1.000  H
  S2       1.0000 0.04601  0.88938  0.74410  Biso   1.000  S
  N7       1.0000 0.90030  0.78970  0.07260  Biso   1.000  N
  N8       1.0000 0.78380  0.61940  0.17450  Biso   1.000  N
  N9       1.0000 0.08140  0.80460  0.45080  Biso   1.000  N
  N10      1.0000 0.12720  0.64020  0.35640  Biso   1.000  N
  N11      1.0000 0.75510  0.08430  0.00350  Biso   1.000  N
  N12      1.0000 0.53250  0.14790  0.06880  Biso   1.000  N
  O5       1.0000 0.97670  0.95500  0.83020  Biso   1.000  O
  O6       1.0000 0.18180  0.96800  0.69940  Biso   1.000  O
  O7       1.0000 0.93830  0.89340  0.66580  Biso   1.000  O
  O8       1.0000 0.08640  0.75150  0.77850  Biso   1.000  O
  C19      1.0000 0.55450  0.48250  0.24530  Biso   1.000  C
  C20      1.0000 0.42000  0.55050  0.26550  Biso   1.000  C
  H19      1.0000 0.42170  0.63250  0.29140  Biso   1.000  H
  C21      1.0000 0.28270  0.49540  0.24680  Biso   1.000  C
  C22      1.0000 0.28160  0.37330  0.20710  Biso   1.000  C
  H20      1.0000 0.18960  0.33680  0.19490  Biso   1.000  H
  C23      1.0000 0.41480  0.30490  0.18540  Biso   1.000  C
  C24      1.0000 0.55200  0.35960  0.20580  Biso   1.000  C
  H21      1.0000 0.64210  0.31400  0.19310  Biso   1.000  H
  C25      1.0000 0.70360  0.53980  0.26680  Biso   1.000  C
  H22      1.0000 0.76780  0.46650  0.29170  Biso   1.000  H
  H23      1.0000 0.68500  0.59640  0.32170  Biso   1.000  H
  C26      1.0000 0.13330  0.56360  0.26740  Biso   1.000  C
  H24      1.0000 0.05310  0.49590  0.28040  Biso   1.000  H
  H25      1.0000 0.11440  0.62420  0.20540  Biso   1.000  H
  C27      1.0000 0.40680  0.16930  0.14740  Biso   1.000  C
  H26      1.0000 0.31150  0.16180  0.11760  Biso   1.000  H
  H27      1.0000 0.40780  0.09910  0.20650  Biso   1.000  H
  C28      1.0000 0.84090  0.57120  0.08500  Biso   1.000  C
  H28      1.0000 0.83210  0.48370  0.06980  Biso   1.000  H
  C29      1.0000 0.91290  0.67680  0.02270  Biso   1.000  C
  H29      1.0000 0.96280  0.67330  0.95660  Biso   1.000  H
  C30      1.0000 0.82220  0.75160  0.16350  Biso   1.000  C
  H30      1.0000 0.79670  0.80820  0.21360  Biso   1.000  H
  C31      1.0000 0.15430  0.59110  0.45630  Biso   1.000  C
  H31      1.0000 0.18580  0.50480  0.47990  Biso   1.000  H
  C32      1.0000 0.12580  0.69390  0.51440  Biso   1.000  C
  H32      1.0000 0.13500  0.68970  0.58540  Biso   1.000  H
  C33      1.0000 0.08390  0.76930  0.35680  Biso   1.000  C
  H33      1.0000 0.05910  0.82590  0.29840  Biso   1.000  H
  C34      1.0000 0.68200  0.15240  0.92550  Biso   1.000  C
  H34      1.0000 0.72020  0.16840  0.85550  Biso   1.000  H
  C35      1.0000 0.54500  0.19330  0.96570  Biso   1.000  C
  H35      1.0000 0.47370  0.24290  0.92940  Biso   1.000  H
  C36      1.0000 0.66110  0.08280  0.08870  Biso   1.000  C
  H36      1.0000 0.68120  0.04180  0.15440  Biso   1.000  H
  Cd1      1.0000 0.00000  0.00000  0.00000  Biso   1.000  Cd
  Cd2      1.0000 0.00000  0.00000  0.50000  Biso   1.000  Cd
