data_WAGZEL_clean
_audit_creation_date              2014-07-02
_audit_creation_method            'Materials Studio'
_symmetry_space_group_name_H-M    'P1'
_symmetry_Int_Tables_number       1
_symmetry_cell_setting            triclinic
loop_
_symmetry_equiv_pos_as_xyz
  x,y,z
_cell_length_a                    9.0970
_cell_length_b                    10.9230
_cell_length_c                    17.8770
_cell_angle_alpha                 90.0000
_cell_angle_beta                  90.0000
_cell_angle_gamma                 111.2640
loop_
_atom_site_label
_atom_site_type_symbol
_atom_site_fract_x
_atom_site_fract_y
_atom_site_fract_z
_atom_site_U_iso_or_equiv
_atom_site_adp_type
_atom_site_occupancy
Nd1    Nd    0.43230   0.39299   0.69867   0.01267  Uiso   1.00
Nd2    Nd    0.06770   0.60701   0.19867   0.01267  Uiso   1.00
Nd3    Nd    0.56770   0.60701   0.30133   0.01267  Uiso   1.00
Nd4    Nd    0.93230   0.39299   0.80133   0.01267  Uiso   1.00
H1     H     0.20360   0.17750   0.45020   0.01267  Uiso   1.00
H2     H     0.96270   0.98130   0.62790   0.01267  Uiso   1.00
H3     H     0.44900   0.87210   0.47210   0.01267  Uiso   1.00
H4     H     0.12760   0.77160   0.63350   0.01267  Uiso   1.00
H5     H     0.24530   0.90690   0.53330   0.01267  Uiso   1.00
H6     H     0.79300   0.57130   0.52250   0.01267  Uiso   1.00
H7     H     0.04090   0.34660   0.57820   0.01267  Uiso   1.00
H8     H     0.29640   0.82250   0.95020   0.01267  Uiso   1.00
H9     H     0.53730   0.01870   0.12790   0.01267  Uiso   1.00
H10    H     0.05100   0.12790   0.97210   0.01267  Uiso   1.00
H11    H     0.37240   0.22840   0.13350   0.01267  Uiso   1.00
H12    H     0.25470   0.09310   0.03330   0.01267  Uiso   1.00
H13    H     0.70700   0.42870   0.02250   0.01267  Uiso   1.00
H14    H     0.45910   0.65340   0.07820   0.01267  Uiso   1.00
H15    H     0.79640   0.82250   0.54980   0.01267  Uiso   1.00
H16    H     0.03730   0.01870   0.37210   0.01267  Uiso   1.00
H17    H     0.55100   0.12790   0.52790   0.01267  Uiso   1.00
H18    H     0.87240   0.22840   0.36650   0.01267  Uiso   1.00
H19    H     0.75470   0.09310   0.46670   0.01267  Uiso   1.00
H20    H     0.20700   0.42870   0.47750   0.01267  Uiso   1.00
H21    H     0.95910   0.65340   0.42180   0.01267  Uiso   1.00
H22    H     0.70360   0.17750   0.04980   0.01267  Uiso   1.00
H23    H     0.46270   0.98130   0.87210   0.01267  Uiso   1.00
H24    H     0.94900   0.87210   0.02790   0.01267  Uiso   1.00
H25    H     0.62760   0.77160   0.86650   0.01267  Uiso   1.00
H26    H     0.74530   0.90690   0.96670   0.01267  Uiso   1.00
H27    H     0.29300   0.57130   0.97750   0.01267  Uiso   1.00
H28    H     0.54090   0.34660   0.92180   0.01267  Uiso   1.00
C1     C     0.89920   0.44950   0.56053   0.01267  Uiso   1.00
C2     C     0.26430   0.66460   0.63432   0.01267  Uiso   1.00
C3     C     0.39550   0.64680   0.59713   0.01267  Uiso   1.00
C4     C     0.10020   0.09590   0.54731   0.01267  Uiso   1.00
C5     C     0.20930   0.19680   0.59872   0.01267  Uiso   1.00
C6     C     0.12200   0.10640   0.47039   0.01267  Uiso   1.00
C7     C     0.97780   0.98900   0.57642   0.01267  Uiso   1.00
C8     C     0.40220   0.82100   0.51330   0.01267  Uiso   1.00
C9     C     0.17700   0.57390   0.69543   0.01267  Uiso   1.00
C10    C     0.21220   0.76030   0.60920   0.01267  Uiso   1.00
C11    C     0.28110   0.84130   0.54880   0.01267  Uiso   1.00
C12    C     0.87580   0.54240   0.51353   0.01267  Uiso   1.00
C13    C     0.02420   0.40810   0.54674   0.01267  Uiso   1.00
C14    C     0.79100   0.39550   0.62604   0.01267  Uiso   1.00
C15    C     0.60080   0.55050   0.06053   0.01267  Uiso   1.00
C16    C     0.23570   0.33540   0.13432   0.01267  Uiso   1.00
C17    C     0.10450   0.35320   0.09713   0.01267  Uiso   1.00
C18    C     0.39980   0.90410   0.04731   0.01267  Uiso   1.00
C19    C     0.29070   0.80320   0.09872   0.01267  Uiso   1.00
C20    C     0.37800   0.89360   0.97039   0.01267  Uiso   1.00
C21    C     0.52220   0.01100   0.07642   0.01267  Uiso   1.00
C22    C     0.09780   0.17900   0.01330   0.01267  Uiso   1.00
C23    C     0.32300   0.42610   0.19543   0.01267  Uiso   1.00
C24    C     0.28780   0.23970   0.10920   0.01267  Uiso   1.00
C25    C     0.21890   0.15870   0.04880   0.01267  Uiso   1.00
C26    C     0.62420   0.45760   0.01353   0.01267  Uiso   1.00
C27    C     0.47580   0.59190   0.04674   0.01267  Uiso   1.00
C28    C     0.70900   0.60450   0.12604   0.01267  Uiso   1.00
C29    C     0.10080   0.55050   0.43947   0.01267  Uiso   1.00
C30    C     0.73570   0.33540   0.36568   0.01267  Uiso   1.00
C31    C     0.60450   0.35320   0.40287   0.01267  Uiso   1.00
C32    C     0.89980   0.90410   0.45269   0.01267  Uiso   1.00
C33    C     0.79070   0.80320   0.40128   0.01267  Uiso   1.00
C34    C     0.87800   0.89360   0.52961   0.01267  Uiso   1.00
C35    C     0.02220   0.01100   0.42358   0.01267  Uiso   1.00
C36    C     0.59780   0.17900   0.48670   0.01267  Uiso   1.00
C37    C     0.82300   0.42610   0.30457   0.01267  Uiso   1.00
C38    C     0.78780   0.23970   0.39080   0.01267  Uiso   1.00
C39    C     0.71890   0.15870   0.45120   0.01267  Uiso   1.00
C40    C     0.12420   0.45760   0.48647   0.01267  Uiso   1.00
C41    C     0.97580   0.59190   0.45326   0.01267  Uiso   1.00
C42    C     0.20900   0.60450   0.37396   0.01267  Uiso   1.00
C43    C     0.39920   0.44950   0.93947   0.01267  Uiso   1.00
C44    C     0.76430   0.66460   0.86568   0.01267  Uiso   1.00
C45    C     0.89550   0.64680   0.90287   0.01267  Uiso   1.00
C46    C     0.60020   0.09590   0.95269   0.01267  Uiso   1.00
C47    C     0.70930   0.19680   0.90128   0.01267  Uiso   1.00
C48    C     0.62200   0.10640   0.02961   0.01267  Uiso   1.00
C49    C     0.47780   0.98900   0.92358   0.01267  Uiso   1.00
C50    C     0.90220   0.82100   0.98670   0.01267  Uiso   1.00
C51    C     0.67700   0.57390   0.80457   0.01267  Uiso   1.00
C52    C     0.71220   0.76030   0.89080   0.01267  Uiso   1.00
C53    C     0.78110   0.84130   0.95120   0.01267  Uiso   1.00
C54    C     0.37580   0.54240   0.98647   0.01267  Uiso   1.00
C55    C     0.52420   0.40810   0.95326   0.01267  Uiso   1.00
C56    C     0.29100   0.39550   0.87396   0.01267  Uiso   1.00
N1     N     0.45550   0.72720   0.53729   0.01267  Uiso   1.00
N2     N     0.04450   0.27280   0.03729   0.01267  Uiso   1.00
N3     N     0.54450   0.27280   0.46271   0.01267  Uiso   1.00
N4     N     0.95550   0.72720   0.96271   0.01267  Uiso   1.00
O1     O     0.66240   0.41160   0.62657   0.01267  Uiso   1.00
O2     O     0.20730   0.47310   0.71224   0.01267  Uiso   1.00
O3     O     0.17220   0.20130   0.66562   0.01267  Uiso   1.00
O4     O     0.45840   0.56570   0.61286   0.01267  Uiso   1.00
O5     O     0.33760   0.27610   0.57401   0.01267  Uiso   1.00
O6     O     0.83680   0.33520   0.67592   0.01267  Uiso   1.00
O7     O     0.06780   0.59790   0.72809   0.01267  Uiso   1.00
O8     O     0.83760   0.58840   0.12657   0.01267  Uiso   1.00
O9     O     0.29270   0.52690   0.21224   0.01267  Uiso   1.00
O10    O     0.32780   0.79870   0.16562   0.01267  Uiso   1.00
O11    O     0.04160   0.43430   0.11286   0.01267  Uiso   1.00
O12    O     0.16240   0.72390   0.07401   0.01267  Uiso   1.00
O13    O     0.66320   0.66480   0.17592   0.01267  Uiso   1.00
O14    O     0.43220   0.40210   0.22809   0.01267  Uiso   1.00
O15    O     0.33760   0.58840   0.37343   0.01267  Uiso   1.00
O16    O     0.79270   0.52690   0.28776   0.01267  Uiso   1.00
O17    O     0.82780   0.79870   0.33438   0.01267  Uiso   1.00
O18    O     0.54160   0.43430   0.38714   0.01267  Uiso   1.00
O19    O     0.66240   0.72390   0.42599   0.01267  Uiso   1.00
O20    O     0.16320   0.66480   0.32408   0.01267  Uiso   1.00
O21    O     0.93220   0.40210   0.27191   0.01267  Uiso   1.00
O22    O     0.16240   0.41160   0.87343   0.01267  Uiso   1.00
O23    O     0.70730   0.47310   0.78776   0.01267  Uiso   1.00
O24    O     0.67220   0.20130   0.83438   0.01267  Uiso   1.00
O25    O     0.95840   0.56570   0.88714   0.01267  Uiso   1.00
O26    O     0.83760   0.27610   0.92599   0.01267  Uiso   1.00
O27    O     0.33680   0.33520   0.82408   0.01267  Uiso   1.00
O28    O     0.56780   0.59790   0.77191   0.01267  Uiso   1.00
