data_image0
_cell_length_a       10.782
_cell_length_b       8.781
_cell_length_c       25.017
_cell_angle_alpha    90
_cell_angle_beta     98.139
_cell_angle_gamma    90

_symmetry_space_group_name_H-M    "P 1"
_symmetry_int_tables_number       1

loop_
  _symmetry_equiv_pos_as_xyz
  'x, y, z'

loop_
  _atom_site_label
  _atom_site_occupancy
  _atom_site_fract_x
  _atom_site_fract_y
  _atom_site_fract_z
  _atom_site_thermal_displace_type
  _atom_site_B_iso_or_equiv
  _atom_site_type_symbol
  Cu1      1.0000 0.16107  0.22060  0.73650  Biso   1.000  Cu
  N1       1.0000 0.22520  0.18280  0.81467  Biso   1.000  N
  O1       1.0000 0.98970  0.18010  0.74837  Biso   1.000  O
  O2       1.0000 0.96800  0.99730  0.68564  Biso   1.000  O
  N2       1.0000 0.60210  0.23360  0.15807  Biso   1.000  N
  O3       1.0000 0.39520  0.97330  0.62610  Biso   1.000  O
  N3       1.0000 0.36680  0.13640  0.97900  Biso   1.000  N
  N4       1.0000 0.50190  0.92910  0.63975  Biso   1.000  N
  C1       1.0000 0.58060  0.01190  0.68240  Biso   1.000  C
  C2       1.0000 0.78780  0.08570  0.71995  Biso   1.000  C
  C3       1.0000 0.37390  0.25670  0.88939  Biso   1.000  C
  H1       1.0000 0.44190  0.31700  0.90320  Biso   1.000  H
  O4       1.0000 0.54600  0.81670  0.62045  Biso   1.000  O
  C4       1.0000 0.22350  0.06510  0.90017  Biso   1.000  C
  H2       1.0000 0.18810  0.99480  0.92140  Biso   1.000  H
  C5       1.0000 0.52690  0.09080  0.72158  Biso   1.000  C
  C6       1.0000 0.32250  0.26740  0.83633  Biso   1.000  C
  H3       1.0000 0.35680  0.33660  0.81440  Biso   1.000  H
  C7       1.0000 0.32270  0.15450  0.92214  Biso   1.000  C
  C8       1.0000 0.49920  0.21460  0.05074  Biso   1.000  C
  C9       1.0000 0.73720  0.16260  0.76006  Biso   1.000  C
  H4       1.0000 0.79020  0.21240  0.78710  Biso   1.000  H
  C10      1.0000 0.70760  0.00860  0.68094  Biso   1.000  C
  H5       1.0000 0.73950  0.95480  0.65390  Biso   1.000  H
  C11      1.0000 0.17770  0.08160  0.84618  Biso   1.000  C
  H6       1.0000 0.11150  0.02020  0.83120  Biso   1.000  H
  N5       1.0000 0.45240  0.22120  0.99438  Biso   1.000  N
  C12      1.0000 0.92670  0.08380  0.71719  Biso   1.000  C
  C13      1.0000 0.60860  0.16680  0.76075  Biso   1.000  C
  H7       1.0000 0.57680  0.22100  0.78770  Biso   1.000  H
  C14      1.0000 0.45040  0.12880  0.08894  Biso   1.000  C
  H8       1.0000 0.38290  0.06390  0.07910  Biso   1.000  H
  C15      1.0000 0.50410  0.14150  0.14223  Biso   1.000  C
  H9       1.0000 0.47120  0.08430  0.16820  Biso   1.000  H
  C16      1.0000 0.64850  0.31360  0.12042  Biso   1.000  C
  H10      1.0000 0.71700  0.37660  0.13090  Biso   1.000  H
  C17      1.0000 0.60020  0.30750  0.06678  Biso   1.000  C
  H11      1.0000 0.63520  0.36540  0.04160  Biso   1.000  H
  C18      1.0000 0.38900  0.09160  0.72690  Biso   1.000  C
  O5       1.0000 0.33562  0.22000  0.71968  Biso   1.000  O
  O6       1.0000 0.33990  0.97360  0.74016  Biso   1.000  O
  Cu2      1.0000 0.66107  0.27940  0.23650  Biso   1.000  Cu
  N6       1.0000 0.72520  0.31720  0.31467  Biso   1.000  N
  O7       1.0000 0.48970  0.31990  0.24837  Biso   1.000  O
  O8       1.0000 0.46800  0.50270  0.18564  Biso   1.000  O
  N7       1.0000 0.10210  0.26640  0.65807  Biso   1.000  N
  O9       1.0000 0.89520  0.52670  0.12610  Biso   1.000  O
  N8       1.0000 0.86680  0.36360  0.47900  Biso   1.000  N
  N9       1.0000 0.00190  0.57090  0.13975  Biso   1.000  N
  C19      1.0000 0.08060  0.48810  0.18240  Biso   1.000  C
  C20      1.0000 0.28780  0.41430  0.21995  Biso   1.000  C
  C21      1.0000 0.87390  0.24330  0.38939  Biso   1.000  C
  H12      1.0000 0.94190  0.18300  0.40320  Biso   1.000  H
  O10      1.0000 0.04600  0.68330  0.12045  Biso   1.000  O
  C22      1.0000 0.72350  0.43490  0.40017  Biso   1.000  C
  H13      1.0000 0.68810  0.50520  0.42140  Biso   1.000  H
  C23      1.0000 0.02690  0.40920  0.22158  Biso   1.000  C
  C24      1.0000 0.82250  0.23260  0.33633  Biso   1.000  C
  H14      1.0000 0.85680  0.16340  0.31440  Biso   1.000  H
  C25      1.0000 0.82270  0.34550  0.42214  Biso   1.000  C
  C26      1.0000 0.99920  0.28540  0.55074  Biso   1.000  C
  C27      1.0000 0.23720  0.33740  0.26006  Biso   1.000  C
  H15      1.0000 0.29020  0.28760  0.28710  Biso   1.000  H
  C28      1.0000 0.20760  0.49140  0.18094  Biso   1.000  C
  H16      1.0000 0.23950  0.54520  0.15390  Biso   1.000  H
  C29      1.0000 0.67770  0.41840  0.34618  Biso   1.000  C
  H17      1.0000 0.61150  0.47980  0.33120  Biso   1.000  H
  N10      1.0000 0.95240  0.27880  0.49438  Biso   1.000  N
  C30      1.0000 0.42670  0.41620  0.21719  Biso   1.000  C
  C31      1.0000 0.10860  0.33320  0.26075  Biso   1.000  C
  H18      1.0000 0.07680  0.27900  0.28770  Biso   1.000  H
  C32      1.0000 0.95040  0.37120  0.58894  Biso   1.000  C
  H19      1.0000 0.88290  0.43610  0.57910  Biso   1.000  H
  C33      1.0000 0.00410  0.35850  0.64223  Biso   1.000  C
  H20      1.0000 0.97120  0.41570  0.66820  Biso   1.000  H
  C34      1.0000 0.14850  0.18640  0.62042  Biso   1.000  C
  H21      1.0000 0.21700  0.12340  0.63090  Biso   1.000  H
  C35      1.0000 0.10020  0.19250  0.56678  Biso   1.000  C
  H22      1.0000 0.13520  0.13460  0.54160  Biso   1.000  H
  C36      1.0000 0.88900  0.40840  0.22690  Biso   1.000  C
  O11      1.0000 0.83562  0.28000  0.21968  Biso   1.000  O
  O12      1.0000 0.83990  0.52640  0.24016  Biso   1.000  O
  Cu3      1.0000 0.33893  0.72060  0.76350  Biso   1.000  Cu
  N11      1.0000 0.27480  0.68280  0.68533  Biso   1.000  N
  O13      1.0000 0.51030  0.68010  0.75163  Biso   1.000  O
  O14      1.0000 0.53200  0.49730  0.81436  Biso   1.000  O
  N12      1.0000 0.89790  0.73360  0.34193  Biso   1.000  N
  O15      1.0000 0.10480  0.47330  0.87390  Biso   1.000  O
  N13      1.0000 0.13320  0.63640  0.52100  Biso   1.000  N
  N14      1.0000 0.99810  0.42910  0.86025  Biso   1.000  N
  C37      1.0000 0.91940  0.51190  0.81760  Biso   1.000  C
  C38      1.0000 0.71220  0.58570  0.78005  Biso   1.000  C
  C39      1.0000 0.12610  0.75670  0.61061  Biso   1.000  C
  H23      1.0000 0.05810  0.81700  0.59680  Biso   1.000  H
  O16      1.0000 0.95400  0.31670  0.87955  Biso   1.000  O
  C40      1.0000 0.27650  0.56510  0.59983  Biso   1.000  C
  H24      1.0000 0.31190  0.49480  0.57860  Biso   1.000  H
  C41      1.0000 0.97310  0.59080  0.77842  Biso   1.000  C
  C42      1.0000 0.17750  0.76740  0.66367  Biso   1.000  C
  H25      1.0000 0.14320  0.83660  0.68560  Biso   1.000  H
  C43      1.0000 0.17730  0.65450  0.57786  Biso   1.000  C
  C44      1.0000 0.00080  0.71460  0.44926  Biso   1.000  C
  C45      1.0000 0.76280  0.66260  0.73994  Biso   1.000  C
  H26      1.0000 0.70980  0.71240  0.71290  Biso   1.000  H
  C46      1.0000 0.79240  0.50860  0.81906  Biso   1.000  C
  H27      1.0000 0.76050  0.45480  0.84610  Biso   1.000  H
  C47      1.0000 0.32230  0.58160  0.65382  Biso   1.000  C
  H28      1.0000 0.38850  0.52020  0.66880  Biso   1.000  H
  N15      1.0000 0.04760  0.72120  0.50562  Biso   1.000  N
  C48      1.0000 0.57330  0.58380  0.78281  Biso   1.000  C
  C49      1.0000 0.89140  0.66680  0.73925  Biso   1.000  C
  H29      1.0000 0.92320  0.72100  0.71230  Biso   1.000  H
  C50      1.0000 0.04960  0.62880  0.41106  Biso   1.000  C
  H30      1.0000 0.11710  0.56390  0.42090  Biso   1.000  H
  C51      1.0000 0.99590  0.64150  0.35777  Biso   1.000  C
  H31      1.0000 0.02880  0.58430  0.33180  Biso   1.000  H
  C52      1.0000 0.85150  0.81360  0.37958  Biso   1.000  C
  H32      1.0000 0.78300  0.87660  0.36910  Biso   1.000  H
  C53      1.0000 0.89980  0.80750  0.43322  Biso   1.000  C
  H33      1.0000 0.86480  0.86540  0.45840  Biso   1.000  H
  C54      1.0000 0.11100  0.59160  0.77310  Biso   1.000  C
  O17      1.0000 0.16438  0.72000  0.78032  Biso   1.000  O
  O18      1.0000 0.16010  0.47360  0.75984  Biso   1.000  O
  Cu4      1.0000 0.83893  0.77940  0.26350  Biso   1.000  Cu
  N16      1.0000 0.77480  0.81720  0.18533  Biso   1.000  N
  O19      1.0000 0.01030  0.81990  0.25163  Biso   1.000  O
  O20      1.0000 0.03200  0.00270  0.31436  Biso   1.000  O
  N17      1.0000 0.39790  0.76640  0.84193  Biso   1.000  N
  O21      1.0000 0.60480  0.02670  0.37390  Biso   1.000  O
  N18      1.0000 0.63320  0.86360  0.02100  Biso   1.000  N
  N19      1.0000 0.49810  0.07090  0.36025  Biso   1.000  N
  C55      1.0000 0.41940  0.98810  0.31760  Biso   1.000  C
  C56      1.0000 0.21220  0.91430  0.28005  Biso   1.000  C
  C57      1.0000 0.62610  0.74330  0.11061  Biso   1.000  C
  H34      1.0000 0.55810  0.68300  0.09680  Biso   1.000  H
  O22      1.0000 0.45400  0.18330  0.37955  Biso   1.000  O
  C58      1.0000 0.77650  0.93490  0.09983  Biso   1.000  C
  H35      1.0000 0.81190  0.00520  0.07860  Biso   1.000  H
  C59      1.0000 0.47310  0.90920  0.27842  Biso   1.000  C
  C60      1.0000 0.67750  0.73260  0.16367  Biso   1.000  C
  H36      1.0000 0.64320  0.66340  0.18560  Biso   1.000  H
  C61      1.0000 0.67730  0.84550  0.07786  Biso   1.000  C
  C62      1.0000 0.50080  0.78540  0.94926  Biso   1.000  C
  C63      1.0000 0.26280  0.83740  0.23994  Biso   1.000  C
  H37      1.0000 0.20980  0.78760  0.21290  Biso   1.000  H
  C64      1.0000 0.29240  0.99140  0.31906  Biso   1.000  C
  H38      1.0000 0.26050  0.04520  0.34610  Biso   1.000  H
  C65      1.0000 0.82230  0.91840  0.15382  Biso   1.000  C
  H39      1.0000 0.88850  0.97980  0.16880  Biso   1.000  H
  N20      1.0000 0.54760  0.77880  0.00562  Biso   1.000  N
  C66      1.0000 0.07330  0.91620  0.28281  Biso   1.000  C
  C67      1.0000 0.39140  0.83320  0.23925  Biso   1.000  C
  H40      1.0000 0.42320  0.77900  0.21230  Biso   1.000  H
  C68      1.0000 0.54960  0.87120  0.91106  Biso   1.000  C
  H41      1.0000 0.61710  0.93610  0.92090  Biso   1.000  H
  C69      1.0000 0.49590  0.85850  0.85777  Biso   1.000  C
  H42      1.0000 0.52880  0.91570  0.83180  Biso   1.000  H
  C70      1.0000 0.35150  0.68640  0.87958  Biso   1.000  C
  H43      1.0000 0.28300  0.62340  0.86910  Biso   1.000  H
  C71      1.0000 0.39980  0.69250  0.93322  Biso   1.000  C
  H44      1.0000 0.36480  0.63460  0.95840  Biso   1.000  H
  C72      1.0000 0.61100  0.90840  0.27310  Biso   1.000  C
  O23      1.0000 0.66438  0.78000  0.28032  Biso   1.000  O
  O24      1.0000 0.66010  0.02640  0.25984  Biso   1.000  O
