data_image0
_cell_length_a       11.3018
_cell_length_b       10.3583
_cell_length_c       21.3661
_cell_angle_alpha    90
_cell_angle_beta     95.066
_cell_angle_gamma    90

_symmetry_space_group_name_H-M    "P 1"
_symmetry_int_tables_number       1

loop_
  _symmetry_equiv_pos_as_xyz
  'x, y, z'

loop_
  _atom_site_label
  _atom_site_occupancy
  _atom_site_fract_x
  _atom_site_fract_y
  _atom_site_fract_z
  _atom_site_thermal_displace_type
  _atom_site_B_iso_or_equiv
  _atom_site_type_symbol
  C1       1.0000 0.79810  0.00980  0.52480  Biso   1.000  C
  H1       1.0000 0.80350  0.06920  0.49250  Biso   1.000  H
  C2       1.0000 0.87680  0.90880  0.52980  Biso   1.000  C
  H2       1.0000 0.93290  0.89950  0.50070  Biso   1.000  H
  C3       1.0000 0.87250  0.82080  0.57810  Biso   1.000  C
  C4       1.0000 0.78680  0.83900  0.61950  Biso   1.000  C
  H3       1.0000 0.78100  0.78260  0.65300  Biso   1.000  H
  C5       1.0000 0.71030  0.94120  0.61064  Biso   1.000  C
  H4       1.0000 0.65240  0.95200  0.63850  Biso   1.000  H
  C6       1.0000 0.95610  0.71080  0.58490  Biso   1.000  C
  C7       1.0000 0.17020  0.56480  0.51690  Biso   1.000  C
  C8       1.0000 0.26050  0.46320  0.52340  Biso   1.000  C
  C9       1.0000 0.27650  0.38300  0.57470  Biso   1.000  C
  H5       1.0000 0.22530  0.38810  0.60640  Biso   1.000  H
  C10      1.0000 0.36810  0.29520  0.57920  Biso   1.000  C
  H6       1.0000 0.37690  0.24150  0.61420  Biso   1.000  H
  C11      1.0000 0.42690  0.35840  0.48457  Biso   1.000  C
  H7       1.0000 0.47780  0.35000  0.45290  Biso   1.000  H
  C12      1.0000 0.33680  0.44710  0.47705  Biso   1.000  C
  H8       1.0000 0.32710  0.49650  0.44060  Biso   1.000  H
  C13      1.0000 0.61800  0.13130  0.35564  Biso   1.000  C
  C14      1.0000 0.65720  0.25220  0.33867  Biso   1.000  C
  H9       1.0000 0.67350  0.31510  0.36930  Biso   1.000  H
  C15      1.0000 0.67210  0.27960  0.27667  Biso   1.000  C
  H10      1.0000 0.69820  0.36110  0.26590  Biso   1.000  H
  C16      1.0000 0.64870  0.18720  0.23009  Biso   1.000  C
  C17      1.0000 0.61350  0.06640  0.24868  Biso   1.000  C
  C18      1.0000 0.59720  0.03640  0.31006  Biso   1.000  C
  H11      1.0000 0.57280  0.95430  0.32080  Biso   1.000  H
  C19      1.0000 0.66070  0.22180  0.16181  Biso   1.000  C
  C20      1.0000 0.59620  0.09960  0.42262  Biso   1.000  C
  N1       1.0000 0.71500  0.02640  0.56378  Biso   1.000  N
  N2       1.0000 0.02930  0.69340  0.54530  Biso   1.000  N
  N3       1.0000 0.10410  0.58690  0.56012  Biso   1.000  N
  N4       1.0000 0.44490  0.28350  0.53550  Biso   1.000  N
  N5       1.0000 0.58850  0.96440  0.20250  Biso   1.000  N
  O1       1.0000 0.62080  0.18850  0.46279  Biso   1.000  O
  O2       1.0000 0.55740  0.99210  0.43435  Biso   1.000  O
  O3       1.0000 0.58990  0.30810  0.14012  Biso   1.000  O
  O4       1.0000 0.73550  0.16640  0.13296  Biso   1.000  O
  O5       1.0000 0.53800  0.99190  0.15148  Biso   1.000  O
  O6       1.0000 0.61550  0.85350  0.21650  Biso   1.000  O
  Cu1      1.0000 0.58435  0.15969  0.54935  Biso   1.000  Cu
  H12      1.0000 0.16000  0.62300  0.48100  Biso   1.000  H
  H13      1.0000 0.95000  0.65200  0.62100  Biso   1.000  H
  C21      1.0000 0.79810  0.49020  0.02480  Biso   1.000  C
  H14      1.0000 0.80350  0.43080  0.99250  Biso   1.000  H
  C22      1.0000 0.87680  0.59120  0.02980  Biso   1.000  C
  H15      1.0000 0.93290  0.60050  0.00070  Biso   1.000  H
  C23      1.0000 0.87250  0.67920  0.07810  Biso   1.000  C
  C24      1.0000 0.78680  0.66100  0.11950  Biso   1.000  C
  H16      1.0000 0.78100  0.71740  0.15300  Biso   1.000  H
  C25      1.0000 0.71030  0.55880  0.11064  Biso   1.000  C
  H17      1.0000 0.65240  0.54800  0.13850  Biso   1.000  H
  C26      1.0000 0.95610  0.78920  0.08490  Biso   1.000  C
  C27      1.0000 0.17020  0.93520  0.01690  Biso   1.000  C
  C28      1.0000 0.26050  0.03680  0.02340  Biso   1.000  C
  C29      1.0000 0.27650  0.11700  0.07470  Biso   1.000  C
  H18      1.0000 0.22530  0.11190  0.10640  Biso   1.000  H
  C30      1.0000 0.36810  0.20480  0.07920  Biso   1.000  C
  H19      1.0000 0.37690  0.25850  0.11420  Biso   1.000  H
  C31      1.0000 0.42690  0.14160  0.98457  Biso   1.000  C
  H20      1.0000 0.47780  0.15000  0.95290  Biso   1.000  H
  C32      1.0000 0.33680  0.05290  0.97705  Biso   1.000  C
  H21      1.0000 0.32710  0.00350  0.94060  Biso   1.000  H
  C33      1.0000 0.61800  0.36870  0.85564  Biso   1.000  C
  C34      1.0000 0.65720  0.24780  0.83867  Biso   1.000  C
  H22      1.0000 0.67350  0.18490  0.86930  Biso   1.000  H
  C35      1.0000 0.67210  0.22040  0.77667  Biso   1.000  C
  H23      1.0000 0.69820  0.13890  0.76590  Biso   1.000  H
  C36      1.0000 0.64870  0.31280  0.73009  Biso   1.000  C
  C37      1.0000 0.61350  0.43360  0.74868  Biso   1.000  C
  C38      1.0000 0.59720  0.46360  0.81006  Biso   1.000  C
  H24      1.0000 0.57280  0.54570  0.82080  Biso   1.000  H
  C39      1.0000 0.66070  0.27820  0.66181  Biso   1.000  C
  C40      1.0000 0.59620  0.40040  0.92262  Biso   1.000  C
  N6       1.0000 0.71500  0.47360  0.06378  Biso   1.000  N
  N7       1.0000 0.02930  0.80660  0.04530  Biso   1.000  N
  N8       1.0000 0.10410  0.91310  0.06012  Biso   1.000  N
  N9       1.0000 0.44490  0.21650  0.03550  Biso   1.000  N
  N10      1.0000 0.58850  0.53560  0.70250  Biso   1.000  N
  O7       1.0000 0.62080  0.31150  0.96279  Biso   1.000  O
  O8       1.0000 0.55740  0.50790  0.93435  Biso   1.000  O
  O9       1.0000 0.58990  0.19190  0.64012  Biso   1.000  O
  O10      1.0000 0.73550  0.33360  0.63296  Biso   1.000  O
  O11      1.0000 0.53800  0.50810  0.65148  Biso   1.000  O
  O12      1.0000 0.61550  0.64650  0.71650  Biso   1.000  O
  Cu2      1.0000 0.58435  0.34031  0.04935  Biso   1.000  Cu
  H25      1.0000 0.16000  0.87700  0.98100  Biso   1.000  H
  H26      1.0000 0.95000  0.84800  0.12100  Biso   1.000  H
  C41      1.0000 0.20190  0.50980  0.97520  Biso   1.000  C
  H27      1.0000 0.19650  0.56920  0.00750  Biso   1.000  H
  C42      1.0000 0.12320  0.40880  0.97020  Biso   1.000  C
  H28      1.0000 0.06710  0.39950  0.99930  Biso   1.000  H
  C43      1.0000 0.12750  0.32080  0.92190  Biso   1.000  C
  C44      1.0000 0.21320  0.33900  0.88050  Biso   1.000  C
  H29      1.0000 0.21900  0.28260  0.84700  Biso   1.000  H
  C45      1.0000 0.28970  0.44120  0.88936  Biso   1.000  C
  H30      1.0000 0.34760  0.45200  0.86150  Biso   1.000  H
  C46      1.0000 0.04390  0.21080  0.91510  Biso   1.000  C
  C47      1.0000 0.82980  0.06480  0.98310  Biso   1.000  C
  C48      1.0000 0.73950  0.96320  0.97660  Biso   1.000  C
  C49      1.0000 0.72350  0.88300  0.92530  Biso   1.000  C
  H31      1.0000 0.77470  0.88810  0.89360  Biso   1.000  H
  C50      1.0000 0.63190  0.79520  0.92080  Biso   1.000  C
  H32      1.0000 0.62310  0.74150  0.88580  Biso   1.000  H
  C51      1.0000 0.57310  0.85840  0.01543  Biso   1.000  C
  H33      1.0000 0.52220  0.85000  0.04710  Biso   1.000  H
  C52      1.0000 0.66320  0.94710  0.02295  Biso   1.000  C
  H34      1.0000 0.67290  0.99650  0.05940  Biso   1.000  H
  C53      1.0000 0.38200  0.63130  0.14436  Biso   1.000  C
  C54      1.0000 0.34280  0.75220  0.16133  Biso   1.000  C
  H35      1.0000 0.32650  0.81510  0.13070  Biso   1.000  H
  C55      1.0000 0.32790  0.77960  0.22333  Biso   1.000  C
  H36      1.0000 0.30180  0.86110  0.23410  Biso   1.000  H
  C56      1.0000 0.35130  0.68720  0.26991  Biso   1.000  C
  C57      1.0000 0.38650  0.56640  0.25132  Biso   1.000  C
  C58      1.0000 0.40280  0.53640  0.18994  Biso   1.000  C
  H37      1.0000 0.42720  0.45430  0.17920  Biso   1.000  H
  C59      1.0000 0.33930  0.72180  0.33819  Biso   1.000  C
  C60      1.0000 0.40380  0.59960  0.07738  Biso   1.000  C
  N11      1.0000 0.28500  0.52640  0.93622  Biso   1.000  N
  N12      1.0000 0.97070  0.19340  0.95470  Biso   1.000  N
  N13      1.0000 0.89590  0.08690  0.93988  Biso   1.000  N
  N14      1.0000 0.55510  0.78350  0.96450  Biso   1.000  N
  N15      1.0000 0.41150  0.46440  0.29750  Biso   1.000  N
  O13      1.0000 0.37920  0.68850  0.03721  Biso   1.000  O
  O14      1.0000 0.44260  0.49210  0.06565  Biso   1.000  O
  O15      1.0000 0.41010  0.80810  0.35988  Biso   1.000  O
  O16      1.0000 0.26450  0.66640  0.36704  Biso   1.000  O
  O17      1.0000 0.46200  0.49190  0.34852  Biso   1.000  O
  O18      1.0000 0.38450  0.35350  0.28350  Biso   1.000  O
  Cu3      1.0000 0.41565  0.65969  0.95065  Biso   1.000  Cu
  H38      1.0000 0.84000  0.12300  0.01900  Biso   1.000  H
  H39      1.0000 0.05000  0.15200  0.87900  Biso   1.000  H
  C61      1.0000 0.20190  0.99020  0.47520  Biso   1.000  C
  H40      1.0000 0.19650  0.93080  0.50750  Biso   1.000  H
  C62      1.0000 0.12320  0.09120  0.47020  Biso   1.000  C
  H41      1.0000 0.06710  0.10050  0.49930  Biso   1.000  H
  C63      1.0000 0.12750  0.17920  0.42190  Biso   1.000  C
  C64      1.0000 0.21320  0.16100  0.38050  Biso   1.000  C
  H42      1.0000 0.21900  0.21740  0.34700  Biso   1.000  H
  C65      1.0000 0.28970  0.05880  0.38936  Biso   1.000  C
  H43      1.0000 0.34760  0.04800  0.36150  Biso   1.000  H
  C66      1.0000 0.04390  0.28920  0.41510  Biso   1.000  C
  C67      1.0000 0.82980  0.43520  0.48310  Biso   1.000  C
  C68      1.0000 0.73950  0.53680  0.47660  Biso   1.000  C
  C69      1.0000 0.72350  0.61700  0.42530  Biso   1.000  C
  H44      1.0000 0.77470  0.61190  0.39360  Biso   1.000  H
  C70      1.0000 0.63190  0.70480  0.42080  Biso   1.000  C
  H45      1.0000 0.62310  0.75850  0.38580  Biso   1.000  H
  C71      1.0000 0.57310  0.64160  0.51543  Biso   1.000  C
  H46      1.0000 0.52220  0.65000  0.54710  Biso   1.000  H
  C72      1.0000 0.66320  0.55290  0.52295  Biso   1.000  C
  H47      1.0000 0.67290  0.50350  0.55940  Biso   1.000  H
  C73      1.0000 0.38200  0.86870  0.64436  Biso   1.000  C
  C74      1.0000 0.34280  0.74780  0.66133  Biso   1.000  C
  H48      1.0000 0.32650  0.68490  0.63070  Biso   1.000  H
  C75      1.0000 0.32790  0.72040  0.72333  Biso   1.000  C
  H49      1.0000 0.30180  0.63890  0.73410  Biso   1.000  H
  C76      1.0000 0.35130  0.81280  0.76991  Biso   1.000  C
  C77      1.0000 0.38650  0.93360  0.75132  Biso   1.000  C
  C78      1.0000 0.40280  0.96360  0.68994  Biso   1.000  C
  H50      1.0000 0.42720  0.04570  0.67920  Biso   1.000  H
  C79      1.0000 0.33930  0.77820  0.83819  Biso   1.000  C
  C80      1.0000 0.40380  0.90040  0.57738  Biso   1.000  C
  N16      1.0000 0.28500  0.97360  0.43622  Biso   1.000  N
  N17      1.0000 0.97070  0.30660  0.45470  Biso   1.000  N
  N18      1.0000 0.89590  0.41310  0.43988  Biso   1.000  N
  N19      1.0000 0.55510  0.71650  0.46450  Biso   1.000  N
  N20      1.0000 0.41150  0.03560  0.79750  Biso   1.000  N
  O19      1.0000 0.37920  0.81150  0.53721  Biso   1.000  O
  O20      1.0000 0.44260  0.00790  0.56565  Biso   1.000  O
  O21      1.0000 0.41010  0.69190  0.85988  Biso   1.000  O
  O22      1.0000 0.26450  0.83360  0.86704  Biso   1.000  O
  O23      1.0000 0.46200  0.00810  0.84852  Biso   1.000  O
  O24      1.0000 0.38450  0.14650  0.78350  Biso   1.000  O
  Cu4      1.0000 0.41565  0.84031  0.45065  Biso   1.000  Cu
  H51      1.0000 0.84000  0.37700  0.51900  Biso   1.000  H
  H52      1.0000 0.05000  0.34800  0.37900  Biso   1.000  H
