data_image0
_cell_length_a       15.673
_cell_length_b       15.673
_cell_length_c       6.95
_cell_angle_alpha    90
_cell_angle_beta     90
_cell_angle_gamma    120

_symmetry_space_group_name_H-M    "P 1"
_symmetry_int_tables_number       1

loop_
  _symmetry_equiv_pos_as_xyz
  'x, y, z'

loop_
  _atom_site_label
  _atom_site_occupancy
  _atom_site_fract_x
  _atom_site_fract_y
  _atom_site_fract_z
  _atom_site_thermal_displace_type
  _atom_site_B_iso_or_equiv
  _atom_site_type_symbol
  Au1      1.0000 0.26100  0.73875  0.99981  Biso   1.000  Au
  N1       1.0000 0.40590  0.89140  0.69400  Biso   1.000  N
  C1       1.0000 0.35000  0.83070  0.79900  Biso   1.000  C
  N2       1.0000 0.51500  0.10980  0.69300  Biso   1.000  N
  C2       1.0000 0.51970  0.16650  0.80200  Biso   1.000  C
  N3       1.0000 0.37360  0.00050  0.37900  Biso   1.000  N
  C3       1.0000 0.28570  0.91470  0.33900  Biso   1.000  C
  C4       1.0000 0.20600  0.92020  0.26600  Biso   1.000  C
  C5       1.0000 0.21420  0.01150  0.23300  Biso   1.000  C
  C6       1.0000 0.30210  0.09730  0.27300  Biso   1.000  C
  C7       1.0000 0.38190  0.09180  0.34600  Biso   1.000  C
  C8       1.0000 0.10940  0.85200  0.24700  Biso   1.000  C
  N4       1.0000 0.02070  0.78700  0.22700  Biso   1.000  N
  Au2      1.0000 0.26125  0.52225  0.99981  Biso   1.000  Au
  N5       1.0000 0.10860  0.51450  0.69400  Biso   1.000  N
  C9       1.0000 0.16930  0.51930  0.79900  Biso   1.000  C
  N6       1.0000 0.89020  0.40520  0.69300  Biso   1.000  N
  C10      1.0000 0.83350  0.35320  0.80200  Biso   1.000  C
  N7       1.0000 0.99950  0.37310  0.37900  Biso   1.000  N
  C11      1.0000 0.08530  0.37100  0.33900  Biso   1.000  C
  C12      1.0000 0.07980  0.28580  0.26600  Biso   1.000  C
  C13      1.0000 0.98850  0.20270  0.23300  Biso   1.000  C
  C14      1.0000 0.90270  0.20480  0.27300  Biso   1.000  C
  C15      1.0000 0.90820  0.29010  0.34600  Biso   1.000  C
  C16      1.0000 0.14800  0.25740  0.24700  Biso   1.000  C
  N8       1.0000 0.21300  0.23370  0.22700  Biso   1.000  N
  Au3      1.0000 0.47775  0.73900  0.99981  Biso   1.000  Au
  N9       1.0000 0.48550  0.59410  0.69400  Biso   1.000  N
  C17      1.0000 0.48070  0.65000  0.79900  Biso   1.000  C
  N10      1.0000 0.59480  0.48500  0.69300  Biso   1.000  N
  C18      1.0000 0.64680  0.48030  0.80200  Biso   1.000  C
  N11      1.0000 0.62690  0.62640  0.37900  Biso   1.000  N
  C19      1.0000 0.62900  0.71430  0.33900  Biso   1.000  C
  C20      1.0000 0.71420  0.79400  0.26600  Biso   1.000  C
  C21      1.0000 0.79730  0.78580  0.23300  Biso   1.000  C
  C22      1.0000 0.79520  0.69790  0.27300  Biso   1.000  C
  C23      1.0000 0.70990  0.61810  0.34600  Biso   1.000  C
  C24      1.0000 0.74260  0.89060  0.24700  Biso   1.000  C
  N12      1.0000 0.76630  0.97930  0.22700  Biso   1.000  N
  Au4      1.0000 0.73900  0.26125  0.00019  Biso   1.000  Au
  N13      1.0000 0.59410  0.10860  0.30600  Biso   1.000  N
  C25      1.0000 0.65000  0.16930  0.20100  Biso   1.000  C
  N14      1.0000 0.48500  0.89020  0.30700  Biso   1.000  N
  C26      1.0000 0.48030  0.83350  0.19800  Biso   1.000  C
  N15      1.0000 0.62640  0.99950  0.62100  Biso   1.000  N
  C27      1.0000 0.71430  0.08530  0.66100  Biso   1.000  C
  C28      1.0000 0.79400  0.07980  0.73400  Biso   1.000  C
  C29      1.0000 0.78580  0.98850  0.76700  Biso   1.000  C
  C30      1.0000 0.69790  0.90270  0.72700  Biso   1.000  C
  C31      1.0000 0.61810  0.90820  0.65400  Biso   1.000  C
  C32      1.0000 0.89060  0.14800  0.75300  Biso   1.000  C
  N16      1.0000 0.97930  0.21300  0.77300  Biso   1.000  N
  Au5      1.0000 0.73875  0.47775  0.00019  Biso   1.000  Au
  N17      1.0000 0.89140  0.48550  0.30600  Biso   1.000  N
  C33      1.0000 0.83070  0.48070  0.20100  Biso   1.000  C
  N18      1.0000 0.10980  0.59480  0.30700  Biso   1.000  N
  C34      1.0000 0.16650  0.64680  0.19800  Biso   1.000  C
  N19      1.0000 0.00050  0.62690  0.62100  Biso   1.000  N
  C35      1.0000 0.91470  0.62900  0.66100  Biso   1.000  C
  C36      1.0000 0.92020  0.71420  0.73400  Biso   1.000  C
  C37      1.0000 0.01150  0.79730  0.76700  Biso   1.000  C
  C38      1.0000 0.09730  0.79520  0.72700  Biso   1.000  C
  C39      1.0000 0.09180  0.70990  0.65400  Biso   1.000  C
  C40      1.0000 0.85200  0.74260  0.75300  Biso   1.000  C
  N20      1.0000 0.78700  0.76630  0.77300  Biso   1.000  N
  Au6      1.0000 0.52225  0.26100  0.00019  Biso   1.000  Au
  N21      1.0000 0.51450  0.40590  0.30600  Biso   1.000  N
  C41      1.0000 0.51930  0.35000  0.20100  Biso   1.000  C
  N22      1.0000 0.40520  0.51500  0.30700  Biso   1.000  N
  C42      1.0000 0.35320  0.51970  0.19800  Biso   1.000  C
  N23      1.0000 0.37310  0.37360  0.62100  Biso   1.000  N
  C43      1.0000 0.37100  0.28570  0.66100  Biso   1.000  C
  C44      1.0000 0.28580  0.20600  0.73400  Biso   1.000  C
  C45      1.0000 0.20270  0.21420  0.76700  Biso   1.000  C
  C46      1.0000 0.20480  0.30210  0.72700  Biso   1.000  C
  C47      1.0000 0.29010  0.38190  0.65400  Biso   1.000  C
  C48      1.0000 0.25740  0.10940  0.75300  Biso   1.000  C
  N24      1.0000 0.23370  0.02070  0.77300  Biso   1.000  N
  Fe1      1.0000 0.50000  0.00000  0.50000  Biso   1.000  Fe
  Fe2      1.0000 0.00000  0.50000  0.50000  Biso   1.000  Fe
  Fe3      1.0000 0.50000  0.50000  0.50000  Biso   1.000  Fe
