data_WAHMEY01_clean_h
_audit_creation_date              2014-07-02
_audit_creation_method            'Materials Studio'
_symmetry_space_group_name_H-M    'P1'
_symmetry_Int_Tables_number       1
_symmetry_cell_setting            triclinic
loop_
_symmetry_equiv_pos_as_xyz
  x,y,z
_cell_length_a                    7.0130
_cell_length_b                    15.7900
_cell_length_c                    15.7900
_cell_angle_alpha                 120.0000
_cell_angle_beta                  90.0000
_cell_angle_gamma                 90.0000
loop_
_atom_site_label
_atom_site_type_symbol
_atom_site_fract_x
_atom_site_fract_y
_atom_site_fract_z
_atom_site_U_iso_or_equiv
_atom_site_adp_type
_atom_site_occupancy
Fe1    Fe    0.50000   0.50000   0.50000   0.01267  Uiso   1.00
Fe2    Fe    0.50000  -0.00000   0.50000   0.01267  Uiso   1.00
Fe3    Fe    0.50000   0.50000   0.00000   0.01267  Uiso   1.00
Au1    Au    0.00008   0.73886   0.47778   0.01267  Uiso   1.00
Au2    Au    0.00008   0.73892   0.26114   0.01267  Uiso   1.00
Au3    Au    0.00008   0.52222   0.26108   0.01267  Uiso   1.00
Au4    Au    0.99992   0.26114   0.52222   0.01267  Uiso   1.00
Au5    Au    0.99992   0.26108   0.73886   0.01267  Uiso   1.00
Au6    Au    0.99992   0.47778   0.73892   0.01267  Uiso   1.00
C1     C     0.19600   0.64890   0.48160   0.01267  Uiso   1.00
C2     C     0.19300   0.48230   0.65030   0.01267  Uiso   1.00
C3     C     0.66400   0.71900   0.63870   0.01267  Uiso   1.00
C4     C     0.73000   0.79370   0.72790   0.01267  Uiso   1.00
C5     C     0.76000   0.77660   0.80510   0.01267  Uiso   1.00
C6     C     0.72300   0.68470   0.79310   0.01267  Uiso   1.00
C7     C     0.65600   0.61000   0.70380   0.01267  Uiso   1.00
C8     C     0.75900   0.88580   0.74580   0.01267  Uiso   1.00
C9     C     0.19600   0.83270   0.35110   0.01267  Uiso   1.00
C10    C     0.19300   0.16800   0.51770   0.01267  Uiso   1.00
C11    C     0.66400   0.91970   0.28100   0.01267  Uiso   1.00
C12    C     0.73000   0.93420   0.20630   0.01267  Uiso   1.00
C13    C     0.76000   0.02850   0.22340   0.01267  Uiso   1.00
C14    C     0.72300   0.10840   0.31530   0.01267  Uiso   1.00
C15    C     0.65600   0.09380   0.39000   0.01267  Uiso   1.00
C16    C     0.75900   0.86000   0.11420   0.01267  Uiso   1.00
C17    C     0.19600   0.51840   0.16730   0.01267  Uiso   1.00
C18    C     0.19300   0.34970   0.83200   0.01267  Uiso   1.00
C19    C     0.66400   0.36130   0.08030   0.01267  Uiso   1.00
C20    C     0.73000   0.27210   0.06580   0.01267  Uiso   1.00
C21    C     0.76000   0.19490   0.97150   0.01267  Uiso   1.00
C22    C     0.72300   0.20690   0.89160   0.01267  Uiso   1.00
C23    C     0.65600   0.29620   0.90620   0.01267  Uiso   1.00
C24    C     0.75900   0.25420   0.14000   0.01267  Uiso   1.00
C25    C     0.80400   0.35110   0.51840   0.01267  Uiso   1.00
C26    C     0.80700   0.51770   0.34970   0.01267  Uiso   1.00
C27    C     0.33600   0.28100   0.36130   0.01267  Uiso   1.00
C28    C     0.27000   0.20630   0.27210   0.01267  Uiso   1.00
C29    C     0.24000   0.22340   0.19490   0.01267  Uiso   1.00
C30    C     0.27700   0.31530   0.20690   0.01267  Uiso   1.00
C31    C     0.34400   0.39000   0.29620   0.01267  Uiso   1.00
C32    C     0.24100   0.11420   0.25420   0.01267  Uiso   1.00
C33    C     0.80400   0.16730   0.64890   0.01267  Uiso   1.00
C34    C     0.80700   0.83200   0.48230   0.01267  Uiso   1.00
C35    C     0.33600   0.08030   0.71900   0.01267  Uiso   1.00
C36    C     0.27000   0.06580   0.79370   0.01267  Uiso   1.00
C37    C     0.24000   0.97150   0.77660   0.01267  Uiso   1.00
C38    C     0.27700   0.89160   0.68470   0.01267  Uiso   1.00
C39    C     0.34400   0.90620   0.61000   0.01267  Uiso   1.00
C40    C     0.24100   0.14000   0.88580   0.01267  Uiso   1.00
C41    C     0.80400   0.48160   0.83270   0.01267  Uiso   1.00
C42    C     0.80700   0.65030   0.16800   0.01267  Uiso   1.00
C43    C     0.33600   0.63870   0.91970   0.01267  Uiso   1.00
C44    C     0.27000   0.72790   0.93420   0.01267  Uiso   1.00
C45    C     0.24000   0.80510   0.02850   0.01267  Uiso   1.00
C46    C     0.27700   0.79310   0.10840   0.01267  Uiso   1.00
C47    C     0.34400   0.70380   0.09380   0.01267  Uiso   1.00
C48    C     0.24100   0.74580   0.86000   0.01267  Uiso   1.00
N1     N     0.30500   0.59740   0.48480   0.01267  Uiso   1.00
N2     N     0.30730   0.48470   0.59690   0.01267  Uiso   1.00
N3     N     0.62690   0.62720   0.62670   0.01267  Uiso   1.00
N4     N     0.77200   0.97420   0.76920   0.01267  Uiso   1.00
N5     N     0.30500   0.88740   0.40260   0.01267  Uiso   1.00
N6     N     0.30730   0.11220   0.51530   0.01267  Uiso   1.00
N7     N     0.62690   0.99950   0.37280   0.01267  Uiso   1.00
N8     N     0.77200   0.79500   0.02580   0.01267  Uiso   1.00
N9     N     0.30500   0.51520   0.11260   0.01267  Uiso   1.00
N10    N     0.30730   0.40310   0.88780   0.01267  Uiso   1.00
N11    N     0.62690   0.37330   0.00050   0.01267  Uiso   1.00
N12    N     0.77200   0.23080   0.20500   0.01267  Uiso   1.00
N13    N     0.69500   0.40260   0.51520   0.01267  Uiso   1.00
N14    N     0.69270   0.51530   0.40310   0.01267  Uiso   1.00
N15    N     0.37310   0.37280   0.37330   0.01267  Uiso   1.00
N16    N     0.22800   0.02580   0.23080   0.01267  Uiso   1.00
N17    N     0.69500   0.11260   0.59740   0.01267  Uiso   1.00
N18    N     0.69270   0.88780   0.48470   0.01267  Uiso   1.00
N19    N     0.37310   0.00050   0.62720   0.01267  Uiso   1.00
N20    N     0.22800   0.20500   0.97420   0.01267  Uiso   1.00
N21    N     0.69500   0.48480   0.88740   0.01267  Uiso   1.00
N22    N     0.69270   0.59690   0.11220   0.01267  Uiso   1.00
N23    N     0.37310   0.62670   0.99950   0.01267  Uiso   1.00
N24    N     0.22800   0.76920   0.79500   0.01267  Uiso   1.00
H1     H     0.64026   0.73300   0.57531   0.01267  Uiso   1.00
H2     H     0.81489   0.83789   0.87818   0.01267  Uiso   1.00
H3     H     0.74755   0.67061   0.85637   0.01267  Uiso   1.00
H4     H     0.62503   0.53472   0.69397   0.01267  Uiso   1.00
H5     H     0.64026   0.84231   0.26700   0.01267  Uiso   1.00
H6     H     0.81489   0.04029   0.16211   0.01267  Uiso   1.00
H7     H     0.74755   0.18576   0.32939   0.01267  Uiso   1.00
H8     H     0.62503   0.15925   0.46528   0.01267  Uiso   1.00
H9     H     0.64026   0.42469   0.15769   0.01267  Uiso   1.00
H10    H     0.81489   0.12182   0.95971   0.01267  Uiso   1.00
H11    H     0.74755   0.14363   0.81424   0.01267  Uiso   1.00
H12    H     0.62503   0.30603   0.84075   0.01267  Uiso   1.00
H13    H     0.35974   0.26700   0.42469   0.01267  Uiso   1.00
H14    H     0.18511   0.16211   0.12182   0.01267  Uiso   1.00
H15    H     0.25245   0.32939   0.14363   0.01267  Uiso   1.00
H16    H     0.37497   0.46528   0.30603   0.01267  Uiso   1.00
H17    H     0.35974   0.15769   0.73300   0.01267  Uiso   1.00
H18    H     0.18511   0.95971   0.83789   0.01267  Uiso   1.00
H19    H     0.25245   0.81424   0.67061   0.01267  Uiso   1.00
H20    H     0.37497   0.84075   0.53472   0.01267  Uiso   1.00
H21    H     0.35974   0.57531   0.84231   0.01267  Uiso   1.00
H22    H     0.18511   0.87818   0.04029   0.01267  Uiso   1.00
H23    H     0.25245   0.85637   0.18576   0.01267  Uiso   1.00
H24    H     0.37497   0.69397   0.15925   0.01267  Uiso   1.00
