data_image0
_cell_length_a       21.165
_cell_length_b       21.165
_cell_length_c       21.165
_cell_angle_alpha    90
_cell_angle_beta     90
_cell_angle_gamma    90

_symmetry_space_group_name_H-M    "P 1"
_symmetry_int_tables_number       1

loop_
  _symmetry_equiv_pos_as_xyz
  'x, y, z'

loop_
  _atom_site_label
  _atom_site_occupancy
  _atom_site_fract_x
  _atom_site_fract_y
  _atom_site_fract_z
  _atom_site_thermal_displace_type
  _atom_site_B_iso_or_equiv
  _atom_site_type_symbol
  N1       1.0000 0.56890  0.69920  0.06720  Biso   1.000  N
  C1       1.0000 0.58840  0.75840  0.08790  Biso   1.000  C
  H1       1.0000 0.57250  0.79540  0.06810  Biso   1.000  H
  C2       1.0000 0.63110  0.76350  0.13760  Biso   1.000  C
  H2       1.0000 0.64440  0.80390  0.15170  Biso   1.000  H
  C3       1.0000 0.65440  0.70930  0.16650  Biso   1.000  C
  C4       1.0000 0.63490  0.65010  0.14580  Biso   1.000  C
  H3       1.0000 0.65080  0.61310  0.16560  Biso   1.000  H
  C5       1.0000 0.59220  0.64500  0.09620  Biso   1.000  C
  H4       1.0000 0.57890  0.60450  0.08210  Biso   1.000  H
  C6       1.0000 0.69500  0.72390  0.21720  Biso   1.000  C
  C7       1.0000 0.68480  0.77100  0.25670  Biso   1.000  C
  H5       1.0000 0.64870  0.79710  0.25080  Biso   1.000  H
  N2       1.0000 0.43110  0.30080  0.06720  Biso   1.000  N
  C8       1.0000 0.41160  0.24160  0.08790  Biso   1.000  C
  H6       1.0000 0.42750  0.20460  0.06810  Biso   1.000  H
  C9       1.0000 0.36890  0.23650  0.13760  Biso   1.000  C
  H7       1.0000 0.35560  0.19610  0.15170  Biso   1.000  H
  C10      1.0000 0.34560  0.29070  0.16650  Biso   1.000  C
  C11      1.0000 0.36510  0.34990  0.14580  Biso   1.000  C
  H8       1.0000 0.34920  0.38690  0.16560  Biso   1.000  H
  C12      1.0000 0.40780  0.35500  0.09620  Biso   1.000  C
  H9       1.0000 0.42110  0.39550  0.08210  Biso   1.000  H
  C13      1.0000 0.30500  0.27610  0.21720  Biso   1.000  C
  C14      1.0000 0.31520  0.22900  0.25670  Biso   1.000  C
  H10      1.0000 0.35130  0.20290  0.25080  Biso   1.000  H
  N3       1.0000 0.43110  0.69920  0.93280  Biso   1.000  N
  C15      1.0000 0.41160  0.75840  0.91210  Biso   1.000  C
  H11      1.0000 0.42750  0.79540  0.93190  Biso   1.000  H
  C16      1.0000 0.36890  0.76350  0.86240  Biso   1.000  C
  H12      1.0000 0.35560  0.80390  0.84830  Biso   1.000  H
  C17      1.0000 0.34560  0.70930  0.83350  Biso   1.000  C
  C18      1.0000 0.36510  0.65010  0.85420  Biso   1.000  C
  H13      1.0000 0.34920  0.61310  0.83440  Biso   1.000  H
  C19      1.0000 0.40780  0.64500  0.90380  Biso   1.000  C
  H14      1.0000 0.42110  0.60450  0.91790  Biso   1.000  H
  C20      1.0000 0.30500  0.72390  0.78280  Biso   1.000  C
  C21      1.0000 0.31520  0.77100  0.74330  Biso   1.000  C
  H15      1.0000 0.35130  0.79710  0.74920  Biso   1.000  H
  N4       1.0000 0.56890  0.30080  0.93280  Biso   1.000  N
  C22      1.0000 0.58840  0.24160  0.91210  Biso   1.000  C
  H16      1.0000 0.57250  0.20460  0.93190  Biso   1.000  H
  C23      1.0000 0.63110  0.23650  0.86240  Biso   1.000  C
  H17      1.0000 0.64440  0.19610  0.84830  Biso   1.000  H
  C24      1.0000 0.65440  0.29070  0.83350  Biso   1.000  C
  C25      1.0000 0.63490  0.34990  0.85420  Biso   1.000  C
  H18      1.0000 0.65080  0.38690  0.83440  Biso   1.000  H
  C26      1.0000 0.59220  0.35500  0.90380  Biso   1.000  C
  H19      1.0000 0.57890  0.39550  0.91790  Biso   1.000  H
  C27      1.0000 0.69500  0.27610  0.78280  Biso   1.000  C
  C28      1.0000 0.68480  0.22900  0.74330  Biso   1.000  C
  H20      1.0000 0.64870  0.20290  0.74920  Biso   1.000  H
  N5       1.0000 0.06720  0.56890  0.69920  Biso   1.000  N
  C29      1.0000 0.08790  0.58840  0.75840  Biso   1.000  C
  H21      1.0000 0.06810  0.57250  0.79540  Biso   1.000  H
  C30      1.0000 0.13760  0.63110  0.76350  Biso   1.000  C
  H22      1.0000 0.15170  0.64440  0.80390  Biso   1.000  H
  C31      1.0000 0.16650  0.65440  0.70930  Biso   1.000  C
  C32      1.0000 0.14580  0.63490  0.65010  Biso   1.000  C
  H23      1.0000 0.16560  0.65080  0.61310  Biso   1.000  H
  C33      1.0000 0.09620  0.59220  0.64500  Biso   1.000  C
  H24      1.0000 0.08210  0.57890  0.60450  Biso   1.000  H
  C34      1.0000 0.21720  0.69500  0.72390  Biso   1.000  C
  C35      1.0000 0.25670  0.68480  0.77100  Biso   1.000  C
  H25      1.0000 0.25080  0.64870  0.79710  Biso   1.000  H
  N6       1.0000 0.06720  0.43110  0.30080  Biso   1.000  N
  C36      1.0000 0.08790  0.41160  0.24160  Biso   1.000  C
  H26      1.0000 0.06810  0.42750  0.20460  Biso   1.000  H
  C37      1.0000 0.13760  0.36890  0.23650  Biso   1.000  C
  H27      1.0000 0.15170  0.35560  0.19610  Biso   1.000  H
  C38      1.0000 0.16650  0.34560  0.29070  Biso   1.000  C
  C39      1.0000 0.14580  0.36510  0.34990  Biso   1.000  C
  H28      1.0000 0.16560  0.34920  0.38690  Biso   1.000  H
  C40      1.0000 0.09620  0.40780  0.35500  Biso   1.000  C
  H29      1.0000 0.08210  0.42110  0.39550  Biso   1.000  H
  C41      1.0000 0.21720  0.30500  0.27610  Biso   1.000  C
  C42      1.0000 0.25670  0.31520  0.22900  Biso   1.000  C
  H30      1.0000 0.25080  0.35130  0.20290  Biso   1.000  H
  N7       1.0000 0.93280  0.43110  0.69920  Biso   1.000  N
  C43      1.0000 0.91210  0.41160  0.75840  Biso   1.000  C
  H31      1.0000 0.93190  0.42750  0.79540  Biso   1.000  H
  C44      1.0000 0.86240  0.36890  0.76350  Biso   1.000  C
  H32      1.0000 0.84830  0.35560  0.80390  Biso   1.000  H
  C45      1.0000 0.83350  0.34560  0.70930  Biso   1.000  C
  C46      1.0000 0.85420  0.36510  0.65010  Biso   1.000  C
  H33      1.0000 0.83440  0.34920  0.61310  Biso   1.000  H
  C47      1.0000 0.90380  0.40780  0.64500  Biso   1.000  C
  H34      1.0000 0.91790  0.42110  0.60450  Biso   1.000  H
  C48      1.0000 0.78280  0.30500  0.72390  Biso   1.000  C
  C49      1.0000 0.74330  0.31520  0.77100  Biso   1.000  C
  H35      1.0000 0.74920  0.35130  0.79710  Biso   1.000  H
  N8       1.0000 0.93280  0.56890  0.30080  Biso   1.000  N
  C50      1.0000 0.91210  0.58840  0.24160  Biso   1.000  C
  H36      1.0000 0.93190  0.57250  0.20460  Biso   1.000  H
  C51      1.0000 0.86240  0.63110  0.23650  Biso   1.000  C
  H37      1.0000 0.84830  0.64440  0.19610  Biso   1.000  H
  C52      1.0000 0.83350  0.65440  0.29070  Biso   1.000  C
  C53      1.0000 0.85420  0.63490  0.34990  Biso   1.000  C
  H38      1.0000 0.83440  0.65080  0.38690  Biso   1.000  H
  C54      1.0000 0.90380  0.59220  0.35500  Biso   1.000  C
  H39      1.0000 0.91790  0.57890  0.39550  Biso   1.000  H
  C55      1.0000 0.78280  0.69500  0.27610  Biso   1.000  C
  C56      1.0000 0.74330  0.68480  0.22900  Biso   1.000  C
  H40      1.0000 0.74920  0.64870  0.20290  Biso   1.000  H
  N9       1.0000 0.69920  0.06720  0.56890  Biso   1.000  N
  C57      1.0000 0.75840  0.08790  0.58840  Biso   1.000  C
  H41      1.0000 0.79540  0.06810  0.57250  Biso   1.000  H
  C58      1.0000 0.76350  0.13760  0.63110  Biso   1.000  C
  H42      1.0000 0.80390  0.15170  0.64440  Biso   1.000  H
  C59      1.0000 0.70930  0.16650  0.65440  Biso   1.000  C
  C60      1.0000 0.65010  0.14580  0.63490  Biso   1.000  C
  H43      1.0000 0.61310  0.16560  0.65080  Biso   1.000  H
  C61      1.0000 0.64500  0.09620  0.59220  Biso   1.000  C
  H44      1.0000 0.60450  0.08210  0.57890  Biso   1.000  H
  C62      1.0000 0.72390  0.21720  0.69500  Biso   1.000  C
  C63      1.0000 0.77100  0.25670  0.68480  Biso   1.000  C
  H45      1.0000 0.79710  0.25080  0.64870  Biso   1.000  H
  N10      1.0000 0.30080  0.06720  0.43110  Biso   1.000  N
  C64      1.0000 0.24160  0.08790  0.41160  Biso   1.000  C
  H46      1.0000 0.20460  0.06810  0.42750  Biso   1.000  H
  C65      1.0000 0.23650  0.13760  0.36890  Biso   1.000  C
  H47      1.0000 0.19610  0.15170  0.35560  Biso   1.000  H
  C66      1.0000 0.29070  0.16650  0.34560  Biso   1.000  C
  C67      1.0000 0.34990  0.14580  0.36510  Biso   1.000  C
  H48      1.0000 0.38690  0.16560  0.34920  Biso   1.000  H
  C68      1.0000 0.35500  0.09620  0.40780  Biso   1.000  C
  H49      1.0000 0.39550  0.08210  0.42110  Biso   1.000  H
  C69      1.0000 0.27610  0.21720  0.30500  Biso   1.000  C
  C70      1.0000 0.22900  0.25670  0.31520  Biso   1.000  C
  H50      1.0000 0.20290  0.25080  0.35130  Biso   1.000  H
  N11      1.0000 0.69920  0.93280  0.43110  Biso   1.000  N
  C71      1.0000 0.75840  0.91210  0.41160  Biso   1.000  C
  H51      1.0000 0.79540  0.93190  0.42750  Biso   1.000  H
  C72      1.0000 0.76350  0.86240  0.36890  Biso   1.000  C
  H52      1.0000 0.80390  0.84830  0.35560  Biso   1.000  H
  C73      1.0000 0.70930  0.83350  0.34560  Biso   1.000  C
  C74      1.0000 0.65010  0.85420  0.36510  Biso   1.000  C
  H53      1.0000 0.61310  0.83440  0.34920  Biso   1.000  H
  C75      1.0000 0.64500  0.90380  0.40780  Biso   1.000  C
  H54      1.0000 0.60450  0.91790  0.42110  Biso   1.000  H
  C76      1.0000 0.72390  0.78280  0.30500  Biso   1.000  C
  C77      1.0000 0.77100  0.74330  0.31520  Biso   1.000  C
  H55      1.0000 0.79710  0.74920  0.35130  Biso   1.000  H
  N12      1.0000 0.30080  0.93280  0.56890  Biso   1.000  N
  C78      1.0000 0.24160  0.91210  0.58840  Biso   1.000  C
  H56      1.0000 0.20460  0.93190  0.57250  Biso   1.000  H
  C79      1.0000 0.23650  0.86240  0.63110  Biso   1.000  C
  H57      1.0000 0.19610  0.84830  0.64440  Biso   1.000  H
  C80      1.0000 0.29070  0.83350  0.65440  Biso   1.000  C
  C81      1.0000 0.34990  0.85420  0.63490  Biso   1.000  C
  H58      1.0000 0.38690  0.83440  0.65080  Biso   1.000  H
  C82      1.0000 0.35500  0.90380  0.59220  Biso   1.000  C
  H59      1.0000 0.39550  0.91790  0.57890  Biso   1.000  H
  C83      1.0000 0.27610  0.78280  0.69500  Biso   1.000  C
  C84      1.0000 0.22900  0.74330  0.68480  Biso   1.000  C
  H60      1.0000 0.20290  0.74920  0.64870  Biso   1.000  H
  N13      1.0000 0.43110  0.30080  0.93280  Biso   1.000  N
  C85      1.0000 0.41160  0.24160  0.91210  Biso   1.000  C
  H61      1.0000 0.42750  0.20460  0.93190  Biso   1.000  H
  C86      1.0000 0.36890  0.23650  0.86240  Biso   1.000  C
  H62      1.0000 0.35560  0.19610  0.84830  Biso   1.000  H
  C87      1.0000 0.34560  0.29070  0.83350  Biso   1.000  C
  C88      1.0000 0.36510  0.34990  0.85420  Biso   1.000  C
  H63      1.0000 0.34920  0.38690  0.83440  Biso   1.000  H
  C89      1.0000 0.40780  0.35500  0.90380  Biso   1.000  C
  H64      1.0000 0.42110  0.39550  0.91790  Biso   1.000  H
  C90      1.0000 0.30500  0.27610  0.78280  Biso   1.000  C
  C91      1.0000 0.31520  0.22900  0.74330  Biso   1.000  C
  H65      1.0000 0.35130  0.20290  0.74920  Biso   1.000  H
  N14      1.0000 0.56890  0.69920  0.93280  Biso   1.000  N
  C92      1.0000 0.58840  0.75840  0.91210  Biso   1.000  C
  H66      1.0000 0.57250  0.79540  0.93190  Biso   1.000  H
  C93      1.0000 0.63110  0.76350  0.86240  Biso   1.000  C
  H67      1.0000 0.64440  0.80390  0.84830  Biso   1.000  H
  C94      1.0000 0.65440  0.70930  0.83350  Biso   1.000  C
  C95      1.0000 0.63490  0.65010  0.85420  Biso   1.000  C
  H68      1.0000 0.65080  0.61310  0.83440  Biso   1.000  H
  C96      1.0000 0.59220  0.64500  0.90380  Biso   1.000  C
  H69      1.0000 0.57890  0.60450  0.91790  Biso   1.000  H
  C97      1.0000 0.69500  0.72390  0.78280  Biso   1.000  C
  C98      1.0000 0.68480  0.77100  0.74330  Biso   1.000  C
  H70      1.0000 0.64870  0.79710  0.74920  Biso   1.000  H
  N15      1.0000 0.56890  0.30080  0.06720  Biso   1.000  N
  C99      1.0000 0.58840  0.24160  0.08790  Biso   1.000  C
  H71      1.0000 0.57250  0.20460  0.06810  Biso   1.000  H
  C100     1.0000 0.63110  0.23650  0.13760  Biso   1.000  C
  H72      1.0000 0.64440  0.19610  0.15170  Biso   1.000  H
  C101     1.0000 0.65440  0.29070  0.16650  Biso   1.000  C
  C102     1.0000 0.63490  0.34990  0.14580  Biso   1.000  C
  H73      1.0000 0.65080  0.38690  0.16560  Biso   1.000  H
  C103     1.0000 0.59220  0.35500  0.09620  Biso   1.000  C
  H74      1.0000 0.57890  0.39550  0.08210  Biso   1.000  H
  C104     1.0000 0.69500  0.27610  0.21720  Biso   1.000  C
  C105     1.0000 0.68480  0.22900  0.25670  Biso   1.000  C
  H75      1.0000 0.64870  0.20290  0.25080  Biso   1.000  H
  N16      1.0000 0.43110  0.69920  0.06720  Biso   1.000  N
  C106     1.0000 0.41160  0.75840  0.08790  Biso   1.000  C
  H76      1.0000 0.42750  0.79540  0.06810  Biso   1.000  H
  C107     1.0000 0.36890  0.76350  0.13760  Biso   1.000  C
  H77      1.0000 0.35560  0.80390  0.15170  Biso   1.000  H
  C108     1.0000 0.34560  0.70930  0.16650  Biso   1.000  C
  C109     1.0000 0.36510  0.65010  0.14580  Biso   1.000  C
  H78      1.0000 0.34920  0.61310  0.16560  Biso   1.000  H
  C110     1.0000 0.40780  0.64500  0.09620  Biso   1.000  C
  H79      1.0000 0.42110  0.60450  0.08210  Biso   1.000  H
  C111     1.0000 0.30500  0.72390  0.21720  Biso   1.000  C
  C112     1.0000 0.31520  0.77100  0.25670  Biso   1.000  C
  H80      1.0000 0.35130  0.79710  0.25080  Biso   1.000  H
  N17      1.0000 0.93280  0.43110  0.30080  Biso   1.000  N
  C113     1.0000 0.91210  0.41160  0.24160  Biso   1.000  C
  H81      1.0000 0.93190  0.42750  0.20460  Biso   1.000  H
  C114     1.0000 0.86240  0.36890  0.23650  Biso   1.000  C
  H82      1.0000 0.84830  0.35560  0.19610  Biso   1.000  H
  C115     1.0000 0.83350  0.34560  0.29070  Biso   1.000  C
  C116     1.0000 0.85420  0.36510  0.34990  Biso   1.000  C
  H83      1.0000 0.83440  0.34920  0.38690  Biso   1.000  H
  C117     1.0000 0.90380  0.40780  0.35500  Biso   1.000  C
  H84      1.0000 0.91790  0.42110  0.39550  Biso   1.000  H
  C118     1.0000 0.78280  0.30500  0.27610  Biso   1.000  C
  C119     1.0000 0.74330  0.31520  0.22900  Biso   1.000  C
  H85      1.0000 0.74920  0.35130  0.20290  Biso   1.000  H
  N18      1.0000 0.93280  0.56890  0.69920  Biso   1.000  N
  C120     1.0000 0.91210  0.58840  0.75840  Biso   1.000  C
  H86      1.0000 0.93190  0.57250  0.79540  Biso   1.000  H
  C121     1.0000 0.86240  0.63110  0.76350  Biso   1.000  C
  H87      1.0000 0.84830  0.64440  0.80390  Biso   1.000  H
  C122     1.0000 0.83350  0.65440  0.70930  Biso   1.000  C
  C123     1.0000 0.85420  0.63490  0.65010  Biso   1.000  C
  H88      1.0000 0.83440  0.65080  0.61310  Biso   1.000  H
  C124     1.0000 0.90380  0.59220  0.64500  Biso   1.000  C
  H89      1.0000 0.91790  0.57890  0.60450  Biso   1.000  H
  C125     1.0000 0.78280  0.69500  0.72390  Biso   1.000  C
  C126     1.0000 0.74330  0.68480  0.77100  Biso   1.000  C
  H90      1.0000 0.74920  0.64870  0.79710  Biso   1.000  H
  N19      1.0000 0.06720  0.56890  0.30080  Biso   1.000  N
  C127     1.0000 0.08790  0.58840  0.24160  Biso   1.000  C
  H91      1.0000 0.06810  0.57250  0.20460  Biso   1.000  H
  C128     1.0000 0.13760  0.63110  0.23650  Biso   1.000  C
  H92      1.0000 0.15170  0.64440  0.19610  Biso   1.000  H
  C129     1.0000 0.16650  0.65440  0.29070  Biso   1.000  C
  C130     1.0000 0.14580  0.63490  0.34990  Biso   1.000  C
  H93      1.0000 0.16560  0.65080  0.38690  Biso   1.000  H
  C131     1.0000 0.09620  0.59220  0.35500  Biso   1.000  C
  H94      1.0000 0.08210  0.57890  0.39550  Biso   1.000  H
  C132     1.0000 0.21720  0.69500  0.27610  Biso   1.000  C
  C133     1.0000 0.25670  0.68480  0.22900  Biso   1.000  C
  H95      1.0000 0.25080  0.64870  0.20290  Biso   1.000  H
  N20      1.0000 0.06720  0.43110  0.69920  Biso   1.000  N
  C134     1.0000 0.08790  0.41160  0.75840  Biso   1.000  C
  H96      1.0000 0.06810  0.42750  0.79540  Biso   1.000  H
  C135     1.0000 0.13760  0.36890  0.76350  Biso   1.000  C
  H97      1.0000 0.15170  0.35560  0.80390  Biso   1.000  H
  C136     1.0000 0.16650  0.34560  0.70930  Biso   1.000  C
  C137     1.0000 0.14580  0.36510  0.65010  Biso   1.000  C
  H98      1.0000 0.16560  0.34920  0.61310  Biso   1.000  H
  C138     1.0000 0.09620  0.40780  0.64500  Biso   1.000  C
  H99      1.0000 0.08210  0.42110  0.60450  Biso   1.000  H
  C139     1.0000 0.21720  0.30500  0.72390  Biso   1.000  C
  C140     1.0000 0.25670  0.31520  0.77100  Biso   1.000  C
  H100     1.0000 0.25080  0.35130  0.79710  Biso   1.000  H
  N21      1.0000 0.30080  0.93280  0.43110  Biso   1.000  N
  C141     1.0000 0.24160  0.91210  0.41160  Biso   1.000  C
  H101     1.0000 0.20460  0.93190  0.42750  Biso   1.000  H
  C142     1.0000 0.23650  0.86240  0.36890  Biso   1.000  C
  H102     1.0000 0.19610  0.84830  0.35560  Biso   1.000  H
  C143     1.0000 0.29070  0.83350  0.34560  Biso   1.000  C
  C144     1.0000 0.34990  0.85420  0.36510  Biso   1.000  C
  H103     1.0000 0.38690  0.83440  0.34920  Biso   1.000  H
  C145     1.0000 0.35500  0.90380  0.40780  Biso   1.000  C
  H104     1.0000 0.39550  0.91790  0.42110  Biso   1.000  H
  C146     1.0000 0.27610  0.78280  0.30500  Biso   1.000  C
  C147     1.0000 0.22900  0.74330  0.31520  Biso   1.000  C
  H105     1.0000 0.20290  0.74920  0.35130  Biso   1.000  H
  N22      1.0000 0.69920  0.93280  0.56890  Biso   1.000  N
  C148     1.0000 0.75840  0.91210  0.58840  Biso   1.000  C
  H106     1.0000 0.79540  0.93190  0.57250  Biso   1.000  H
  C149     1.0000 0.76350  0.86240  0.63110  Biso   1.000  C
  H107     1.0000 0.80390  0.84830  0.64440  Biso   1.000  H
  C150     1.0000 0.70930  0.83350  0.65440  Biso   1.000  C
  C151     1.0000 0.65010  0.85420  0.63490  Biso   1.000  C
  H108     1.0000 0.61310  0.83440  0.65080  Biso   1.000  H
  C152     1.0000 0.64500  0.90380  0.59220  Biso   1.000  C
  H109     1.0000 0.60450  0.91790  0.57890  Biso   1.000  H
  C153     1.0000 0.72390  0.78280  0.69500  Biso   1.000  C
  C154     1.0000 0.77100  0.74330  0.68480  Biso   1.000  C
  H110     1.0000 0.79710  0.74920  0.64870  Biso   1.000  H
  N23      1.0000 0.30080  0.06720  0.56890  Biso   1.000  N
  C155     1.0000 0.24160  0.08790  0.58840  Biso   1.000  C
  H111     1.0000 0.20460  0.06810  0.57250  Biso   1.000  H
  C156     1.0000 0.23650  0.13760  0.63110  Biso   1.000  C
  H112     1.0000 0.19610  0.15170  0.64440  Biso   1.000  H
  C157     1.0000 0.29070  0.16650  0.65440  Biso   1.000  C
  C158     1.0000 0.34990  0.14580  0.63490  Biso   1.000  C
  H113     1.0000 0.38690  0.16560  0.65080  Biso   1.000  H
  C159     1.0000 0.35500  0.09620  0.59220  Biso   1.000  C
  H114     1.0000 0.39550  0.08210  0.57890  Biso   1.000  H
  C160     1.0000 0.27610  0.21720  0.69500  Biso   1.000  C
  C161     1.0000 0.22900  0.25670  0.68480  Biso   1.000  C
  H115     1.0000 0.20290  0.25080  0.64870  Biso   1.000  H
  N24      1.0000 0.69920  0.06720  0.43110  Biso   1.000  N
  C162     1.0000 0.75840  0.08790  0.41160  Biso   1.000  C
  H116     1.0000 0.79540  0.06810  0.42750  Biso   1.000  H
  C163     1.0000 0.76350  0.13760  0.36890  Biso   1.000  C
  H117     1.0000 0.80390  0.15170  0.35560  Biso   1.000  H
  C164     1.0000 0.70930  0.16650  0.34560  Biso   1.000  C
  C165     1.0000 0.65010  0.14580  0.36510  Biso   1.000  C
  H118     1.0000 0.61310  0.16560  0.34920  Biso   1.000  H
  C166     1.0000 0.64500  0.09620  0.40780  Biso   1.000  C
  H119     1.0000 0.60450  0.08210  0.42110  Biso   1.000  H
  C167     1.0000 0.72390  0.21720  0.30500  Biso   1.000  C
  C168     1.0000 0.77100  0.25670  0.31520  Biso   1.000  C
  H120     1.0000 0.79710  0.25080  0.35130  Biso   1.000  H
  Cu1      1.0000 0.50000  0.68640  0.00000  Biso   1.000  Cu
  F1       1.0000 0.50000  0.59020  0.00000  Biso   1.000  F
  Cu2      1.0000 0.50000  0.31360  0.00000  Biso   1.000  Cu
  F2       1.0000 0.50000  0.40980  0.00000  Biso   1.000  F
  Cu3      1.0000 0.00000  0.50000  0.68640  Biso   1.000  Cu
  F3       1.0000 0.00000  0.50000  0.59020  Biso   1.000  F
  Cu4      1.0000 0.00000  0.50000  0.31360  Biso   1.000  Cu
  F4       1.0000 0.00000  0.50000  0.40980  Biso   1.000  F
  Cu5      1.0000 0.68640  0.00000  0.50000  Biso   1.000  Cu
  F5       1.0000 0.59020  0.00000  0.50000  Biso   1.000  F
  Cu6      1.0000 0.31360  0.00000  0.50000  Biso   1.000  Cu
  F6       1.0000 0.40980  0.00000  0.50000  Biso   1.000  F
  Zr1      1.0000 0.50000  0.50000  0.00000  Biso   1.000  Zr
  Zr2      1.0000 0.00000  0.50000  0.50000  Biso   1.000  Zr
  Zr3      1.0000 0.50000  0.00000  0.50000  Biso   1.000  Zr
  F7       1.0000 0.54080  0.50000  0.07770  Biso   1.000  F
  F8       1.0000 0.45920  0.50000  0.07770  Biso   1.000  F
  F9       1.0000 0.45920  0.50000  0.92230  Biso   1.000  F
  F10      1.0000 0.54080  0.50000  0.92230  Biso   1.000  F
  F11      1.0000 0.07770  0.54080  0.50000  Biso   1.000  F
  F12      1.0000 0.07770  0.45920  0.50000  Biso   1.000  F
  F13      1.0000 0.92230  0.45920  0.50000  Biso   1.000  F
  F14      1.0000 0.92230  0.54080  0.50000  Biso   1.000  F
  F15      1.0000 0.50000  0.07770  0.54080  Biso   1.000  F
  F16      1.0000 0.50000  0.07770  0.45920  Biso   1.000  F
  F17      1.0000 0.50000  0.92230  0.45920  Biso   1.000  F
  F18      1.0000 0.50000  0.92230  0.54080  Biso   1.000  F
