data_WAHNUQ_charged
_audit_creation_date              2014-07-02
_audit_creation_method            'Materials Studio'
_symmetry_space_group_name_H-M    'P1'
_symmetry_Int_Tables_number       1
_symmetry_cell_setting            triclinic
loop_
_symmetry_equiv_pos_as_xyz
  x,y,z
_cell_length_a                    14.4945
_cell_length_b                    22.9813
_cell_length_c                    22.9813
_cell_angle_alpha                 64.2973
_cell_angle_beta                  77.8638
_cell_angle_gamma                 102.1360
loop_
_atom_site_label
_atom_site_type_symbol
_atom_site_fract_x
_atom_site_fract_y
_atom_site_fract_z
_atom_site_U_iso_or_equiv
_atom_site_adp_type
_atom_site_occupancy
Zn1    Zn    0.50000   0.00000   0.50000   0.01267  Uiso   1.00
Zn2    Zn    0.00000   0.50000   0.50000   0.01267  Uiso   1.00
Zn3    Zn    0.50000   0.50000  -0.00000   0.01267  Uiso   1.00
Zn4    Zn    0.68910   1.00000   0.00000   0.01267  Uiso   1.00
Zn5    Zn    0.31090   1.00000  -0.00000   0.01267  Uiso   1.00
Co1    Co    0.91175   0.11760   0.61825   0.01267  Uiso   1.00
Co2    Co    0.53000   0.61825   0.26415   0.01267  Uiso   1.00
Co3    Co    0.79415   0.26415   0.11760   0.01267  Uiso   1.00
Co4    Co    0.08825   0.88240   0.38175   0.01267  Uiso   1.00
Co5    Co    0.47000   0.38175   0.73585   0.01267  Uiso   1.00
Co6    Co    0.20585   0.73585   0.88240   0.01267  Uiso   1.00
H1     H     0.27840   0.32570   0.46740   0.01267  Uiso   1.00
H2     H     0.22870   0.26630   0.58650   0.01267  Uiso   1.00
H3     H     0.17610   0.29720   0.41220   0.01267  Uiso   1.00
H4     H     0.97280   0.03930   0.80800   0.01267  Uiso   1.00
H5     H     0.86800   0.98710   0.91840   0.01267  Uiso   1.00
H6     H     0.67560   0.06560   0.86520   0.01267  Uiso   1.00
H7     H     0.76880   0.11910   0.75070   0.01267  Uiso   1.00
H8     H     0.82150   0.00910   0.56180   0.01267  Uiso   1.00
H9     H     0.67240   0.96240   0.55560   0.01267  Uiso   1.00
H10    H     0.65930   0.14390   0.44520   0.01267  Uiso   1.00
H11    H     0.80310   0.19580   0.45450   0.01267  Uiso   1.00
H12    H     0.20360   0.63810   0.11330   0.01267  Uiso   1.00
H13    H     0.00990   0.61120   0.90700   0.01267  Uiso   1.00
H14    H     0.85570   0.59290   0.89440   0.01267  Uiso   1.00
H15    H     0.77110   0.67660   0.99910   0.01267  Uiso   1.00
H16    H     0.92450   0.70210   0.01200   0.01267  Uiso   1.00
H17    H     0.50770   0.85590   0.60690   0.01267  Uiso   1.00
H18    H     0.45400   0.78070   0.72370   0.01267  Uiso   1.00
H19    H     0.31790   0.90370   0.75400   0.01267  Uiso   1.00
H20    H     0.38170   0.97800   0.63840   0.01267  Uiso   1.00
H21    H     0.47840   0.73370   0.96800   0.01267  Uiso   1.00
H22    H     0.37670   0.67080   0.08300   0.01267  Uiso   1.00
H23    H     0.47900   0.10400   0.52500   0.01267  Uiso   1.00
H24    H     0.38700   0.06300   0.53500   0.01267  Uiso   1.00
H25    H     0.74580   0.46740   0.20690   0.01267  Uiso   1.00
H26    H     0.81520   0.58650   0.14720   0.01267  Uiso   1.00
H27    H     0.58830   0.41220   0.29060   0.01267  Uiso   1.00
H28    H     0.78080   0.80800   0.15270   0.01267  Uiso   1.00
H29    H     0.78640   0.91840   0.09450   0.01267  Uiso   1.00
H30    H     0.54080   0.86520   0.06920   0.01267  Uiso   1.00
H31    H     0.51950   0.75070   0.13020   0.01267  Uiso   1.00
H32    H     0.38330   0.56180   0.42910   0.01267  Uiso   1.00
H33    H     0.22800   0.55560   0.48200   0.01267  Uiso   1.00
H34    H     0.10450   0.44520   0.41090   0.01267  Uiso   1.00
H35    H     0.25760   0.45450   0.34970   0.01267  Uiso   1.00
H36    H     0.31690   0.11330   0.24860   0.01267  Uiso   1.00
H37    H     0.91690   0.90700   0.48180   0.01267  Uiso   1.00
H38    H     0.75010   0.89440   0.51270   0.01267  Uiso   1.00
H39    H     0.77020   0.99910   0.32430   0.01267  Uiso   1.00
H40    H     0.93650   0.01200   0.28590   0.01267  Uiso   1.00
H41    H     0.11460   0.60690   0.53720   0.01267  Uiso   1.00
H42    H     0.17770   0.72370   0.49560   0.01267  Uiso   1.00
H43    H     0.07190   0.75400   0.34230   0.01267  Uiso   1.00
H44    H     0.02010   0.63840   0.38360   0.01267  Uiso   1.00
H45    H     0.44640   0.96800   0.29830   0.01267  Uiso   1.00
H46    H     0.45970   0.08300   0.24620   0.01267  Uiso   1.00
H47    H     0.00400   0.52500   0.37100   0.01267  Uiso   1.00
H48    H     0.92200   0.53500   0.40200   0.01267  Uiso   1.00
H49    H     0.95270   0.20690   0.32570   0.01267  Uiso   1.00
H50    H     0.96240   0.14720   0.26630   0.01267  Uiso   1.00
H51    H     0.87890   0.29060   0.29720   0.01267  Uiso   1.00
H52    H     0.93350   0.15270   0.03930   0.01267  Uiso   1.00
H53    H     0.88090   0.09450   0.98710   0.01267  Uiso   1.00
H54    H     0.61000   0.06920   0.06560   0.01267  Uiso   1.00
H55    H     0.64970   0.13020   0.11910   0.01267  Uiso   1.00
H56    H     0.81240   0.42910   0.00910   0.01267  Uiso   1.00
H57    H     0.71000   0.48200   0.96240   0.01267  Uiso   1.00
H58    H     0.51540   0.41090   0.14390   0.01267  Uiso   1.00
H59    H     0.60730   0.34970   0.19580   0.01267  Uiso   1.00
H60    H     0.56550   0.24860   0.63810   0.01267  Uiso   1.00
H61    H     0.39870   0.48180   0.61120   0.01267  Uiso   1.00
H62    H     0.26280   0.51270   0.59290   0.01267  Uiso   1.00
H63    H     0.09450   0.32430   0.67660   0.01267  Uiso   1.00
H64    H     0.22240   0.28590   0.70210   0.01267  Uiso   1.00
H65    H     0.65180   0.53720   0.85590   0.01267  Uiso   1.00
H66    H     0.67330   0.49560   0.78070   0.01267  Uiso   1.00
H67    H     0.41420   0.34230   0.90370   0.01267  Uiso   1.00
H68    H     0.40370   0.38360   0.97800   0.01267  Uiso   1.00
H69    H     0.74470   0.29830   0.73370   0.01267  Uiso   1.00
H70    H     0.70590   0.24620   0.67080   0.01267  Uiso   1.00
H71    H     0.37500   0.37100   0.10400   0.01267  Uiso   1.00
H72    H     0.32400   0.40200   0.06300   0.01267  Uiso   1.00
H73    H     0.72160   0.67430   0.53260   0.01267  Uiso   1.00
H74    H     0.77130   0.73370   0.41350   0.01267  Uiso   1.00
H75    H     0.82390   0.70280   0.58780   0.01267  Uiso   1.00
H76    H     0.02720   0.96070   0.19200   0.01267  Uiso   1.00
H77    H     0.13200   0.01290   0.08160   0.01267  Uiso   1.00
H78    H     0.32440   0.93440   0.13480   0.01267  Uiso   1.00
H79    H     0.23120   0.88090   0.24930   0.01267  Uiso   1.00
H80    H     0.17850   0.99090   0.43820   0.01267  Uiso   1.00
H81    H     0.32760   0.03760   0.44440   0.01267  Uiso   1.00
H82    H     0.34070   0.85610   0.55480   0.01267  Uiso   1.00
H83    H     0.19690   0.80420   0.54550   0.01267  Uiso   1.00
H84    H     0.79640   0.36190   0.88670   0.01267  Uiso   1.00
H85    H     0.99010   0.38880   0.09300   0.01267  Uiso   1.00
H86    H     0.14430   0.40710   0.10560   0.01267  Uiso   1.00
H87    H     0.22890   0.32340   0.00090   0.01267  Uiso   1.00
H88    H     0.07550   0.29790   0.98800   0.01267  Uiso   1.00
H89    H     0.49230   0.14410   0.39310   0.01267  Uiso   1.00
H90    H     0.54600   0.21930   0.27630   0.01267  Uiso   1.00
H91    H     0.68210   0.09630   0.24600   0.01267  Uiso   1.00
H92    H     0.61830   0.02200   0.36160   0.01267  Uiso   1.00
H93    H     0.52160   0.26630   0.03200   0.01267  Uiso   1.00
H94    H     0.62330   0.32920   0.91700   0.01267  Uiso   1.00
H95    H     0.52100   0.89600   0.47500   0.01267  Uiso   1.00
H96    H     0.61300   0.93700   0.46500   0.01267  Uiso   1.00
H97    H     0.25420   0.53260   0.79310   0.01267  Uiso   1.00
H98    H     0.18480   0.41350   0.85280   0.01267  Uiso   1.00
H99    H     0.41170   0.58780   0.70940   0.01267  Uiso   1.00
H100   H     0.21920   0.19200   0.84730   0.01267  Uiso   1.00
H101   H     0.21360   0.08160   0.90550   0.01267  Uiso   1.00
H102   H     0.45920   0.13480   0.93080   0.01267  Uiso   1.00
H103   H     0.48050   0.24930   0.86980   0.01267  Uiso   1.00
H104   H     0.61670   0.43820   0.57090   0.01267  Uiso   1.00
H105   H     0.77200   0.44440   0.51800   0.01267  Uiso   1.00
H106   H     0.89550   0.55480   0.58910   0.01267  Uiso   1.00
H107   H     0.74240   0.54550   0.65030   0.01267  Uiso   1.00
H108   H     0.68310   0.88670   0.75140   0.01267  Uiso   1.00
H109   H     0.08310   0.09300   0.51820   0.01267  Uiso   1.00
H110   H     0.24990   0.10560   0.48730   0.01267  Uiso   1.00
H111   H     0.22980   0.00090   0.67570   0.01267  Uiso   1.00
H112   H     0.06350   0.98800   0.71410   0.01267  Uiso   1.00
H113   H     0.88540   0.39310   0.46280   0.01267  Uiso   1.00
H114   H     0.82230   0.27630   0.50440   0.01267  Uiso   1.00
H115   H     0.92810   0.24600   0.65770   0.01267  Uiso   1.00
H116   H     0.97990   0.36160   0.61640   0.01267  Uiso   1.00
H117   H     0.55360   0.03200   0.70170   0.01267  Uiso   1.00
H118   H     0.54030   0.91700   0.75380   0.01267  Uiso   1.00
H119   H     0.99600   0.47500   0.62900   0.01267  Uiso   1.00
H120   H     0.07800   0.46500   0.59800   0.01267  Uiso   1.00
H121   H     0.04730   0.79310   0.67430   0.01267  Uiso   1.00
H122   H     0.03760   0.85280   0.73370   0.01267  Uiso   1.00
H123   H     0.12110   0.70940   0.70280   0.01267  Uiso   1.00
H124   H     0.06650   0.84730   0.96070   0.01267  Uiso   1.00
H125   H     0.11910   0.90550   0.01290   0.01267  Uiso   1.00
H126   H     0.39000   0.93080   0.93440   0.01267  Uiso   1.00
H127   H     0.35030   0.86980   0.88090   0.01267  Uiso   1.00
H128   H     0.18760   0.57090   0.99090   0.01267  Uiso   1.00
H129   H     0.29000   0.51800   0.03760   0.01267  Uiso   1.00
H130   H     0.48460   0.58910   0.85610   0.01267  Uiso   1.00
H131   H     0.39270   0.65030   0.80420   0.01267  Uiso   1.00
H132   H     0.43450   0.75140   0.36190   0.01267  Uiso   1.00
H133   H     0.60130   0.51820   0.38880   0.01267  Uiso   1.00
H134   H     0.73720   0.48730   0.40710   0.01267  Uiso   1.00
H135   H     0.90550   0.67570   0.32340   0.01267  Uiso   1.00
H136   H     0.77760   0.71410   0.29790   0.01267  Uiso   1.00
H137   H     0.34820   0.46280   0.14410   0.01267  Uiso   1.00
H138   H     0.32670   0.50440   0.21930   0.01267  Uiso   1.00
H139   H     0.58580   0.65770   0.09630   0.01267  Uiso   1.00
H140   H     0.59630   0.61640   0.02200   0.01267  Uiso   1.00
H141   H     0.25530   0.70170   0.26630   0.01267  Uiso   1.00
H142   H     0.29410   0.75380   0.32920   0.01267  Uiso   1.00
H143   H     0.62500   0.62900   0.89600   0.01267  Uiso   1.00
H144   H     0.67600   0.59800   0.93700   0.01267  Uiso   1.00
C1     C     0.21690   0.29040   0.49300   0.01267  Uiso   1.00
C2     C     0.18760   0.25540   0.56390   0.01267  Uiso   1.00
C3     C     0.09321   0.20288   0.60045   0.01267  Uiso   1.00
C4     C     0.06408   0.21973   0.49919   0.01267  Uiso   1.00
C5     C     0.15610   0.27330   0.46000   0.01267  Uiso   1.00
C6     C     0.04260   0.16240   0.67730   0.01267  Uiso   1.00
C7     C     0.98844   0.19343   0.47331   0.01267  Uiso   1.00
C8     C     0.88790   0.08800   0.76490   0.01267  Uiso   1.00
C9     C     0.91290   0.04780   0.81710   0.01267  Uiso   1.00
C10    C     0.85140   0.01870   0.88400   0.01267  Uiso   1.00
C11    C     0.73980   0.06370   0.85280   0.01267  Uiso   1.00
C12    C     0.79410   0.09460   0.78380   0.01267  Uiso   1.00
C13    C     0.82817   0.10879   0.51218   0.01267  Uiso   1.00
C14    C     0.78784   0.03749   0.53997   0.01267  Uiso   1.00
C15    C     0.69918   0.01001   0.53487   0.01267  Uiso   1.00
C16    C     0.69067   0.11646   0.47095   0.01267  Uiso   1.00
C17    C     0.77782   0.14824   0.47558   0.01267  Uiso   1.00
C18    C     0.24440   0.66310   0.06720   0.01267  Uiso   1.00
C19    C     0.20340   0.68130   0.01610   0.01267  Uiso   1.00
C20    C     0.09400   0.66000   0.02390   0.01267  Uiso   1.00
C21    C     0.98650   0.66030   0.95970   0.01267  Uiso   1.00
C22    C     0.96320   0.62610   0.92580   0.01267  Uiso   1.00
C23    C     0.86900   0.61410   0.91980   0.01267  Uiso   1.00
C24    C     0.82020   0.66330   0.98010   0.01267  Uiso   1.00
C25    C     0.91250   0.67920   0.98790   0.01267  Uiso   1.00
C26    C     0.47006   0.86622   0.63684   0.01267  Uiso   1.00
C27    C     0.43703   0.82029   0.70740   0.01267  Uiso   1.00
C28    C     0.38105   0.83307   0.75162   0.01267  Uiso   1.00
C29    C     0.35787   0.89351   0.72500   0.01267  Uiso   1.00
C30    C     0.39534   0.93725   0.65513   0.01267  Uiso   1.00
C31    C     0.41374   0.77548   0.85606   0.01267  Uiso   1.00
C32    C     0.36323   0.73603   0.93154   0.01267  Uiso   1.00
C33    C     0.40880   0.71990   0.98060   0.01267  Uiso   1.00
C34    C     0.34780   0.68280   0.04880   0.01267  Uiso   1.00
C35    C     0.70990   0.49300   0.21660   0.01267  Uiso   1.00
C36    C     0.75150   0.56390   0.18070   0.01267  Uiso   1.00
C37    C     0.69366   0.60045   0.19667   0.01267  Uiso   1.00
C38    C     0.56327   0.49919   0.28108   0.01267  Uiso   1.00
C39    C     0.61610   0.46000   0.26670   0.01267  Uiso   1.00
C40    C     0.71990   0.67730   0.16030   0.01267  Uiso   1.00
C41    C     0.46175   0.47331   0.33326   0.01267  Uiso   1.00
C42    C     0.65280   0.76490   0.14710   0.01267  Uiso   1.00
C43    C     0.73000   0.81710   0.13510   0.01267  Uiso   1.00
C44    C     0.73540   0.88400   0.09730   0.01267  Uiso   1.00
C45    C     0.59260   0.85280   0.08350   0.01267  Uiso   1.00
C46    C     0.57790   0.78380   0.12160   0.01267  Uiso   1.00
C47    C     0.34035   0.51218   0.37903   0.01267  Uiso   1.00
C48    C     0.32781   0.53997   0.42254   0.01267  Uiso   1.00
C49    C     0.23405   0.53487   0.45512   0.01267  Uiso   1.00
C50    C     0.16162   0.47095   0.41259   0.01267  Uiso   1.00
C51    C     0.25340   0.47558   0.37618   0.01267  Uiso   1.00
C52    C     0.31160   0.06720   0.26970   0.01267  Uiso   1.00
C53    C     0.21950   0.01610   0.30260   0.01267  Uiso   1.00
C54    C     0.11790   0.02390   0.31610   0.01267  Uiso   1.00
C55    C     0.94620   0.95970   0.38000   0.01267  Uiso   1.00
C56    C     0.88900   0.92580   0.44810   0.01267  Uiso   1.00
C57    C     0.78880   0.91980   0.46610   0.01267  Uiso   1.00
C58    C     0.80030   0.98010   0.35660   0.01267  Uiso   1.00
C59    C     0.90040   0.98790   0.33290   0.01267  Uiso   1.00
C60    C     0.10690   0.63684   0.49694   0.01267  Uiso   1.00
C61    C     0.14443   0.70740   0.47231   0.01267  Uiso   1.00
C62    C     0.13267   0.75162   0.41531   0.01267  Uiso   1.00
C63    C     0.08287   0.72500   0.38149   0.01267  Uiso   1.00
C64    C     0.05047   0.65513   0.40762   0.01267  Uiso   1.00
C65    C     0.26980   0.85606   0.36846   0.01267  Uiso   1.00
C66    C     0.29477   0.93154   0.33243   0.01267  Uiso   1.00
C67    C     0.38940   0.98060   0.29950   0.01267  Uiso   1.00
C68    C     0.39660   0.04880   0.26840   0.01267  Uiso   1.00
C69    C     0.92650   0.21660   0.29040   0.01267  Uiso   1.00
C70    C     0.93220   0.18070   0.25540   0.01267  Uiso   1.00
C71    C     0.89033   0.19667   0.20288   0.01267  Uiso   1.00
C72    C     0.84435   0.28108   0.21973   0.01267  Uiso   1.00
C73    C     0.88280   0.26670   0.27330   0.01267  Uiso   1.00
C74    C     0.88020   0.16030   0.16240   0.01267  Uiso   1.00
C75    C     0.79501   0.33326   0.19343   0.01267  Uiso   1.00
C76    C     0.79990   0.14710   0.08800   0.01267  Uiso   1.00
C77    C     0.86510   0.13510   0.04780   0.01267  Uiso   1.00
C78    C     0.83270   0.09730   0.01870   0.01267  Uiso   1.00
C79    C     0.67610   0.08350   0.06370   0.01267  Uiso   1.00
C80    C     0.69950   0.12160   0.09460   0.01267  Uiso   1.00
C81    C     0.71938   0.37903   0.10879   0.01267  Uiso   1.00
C82    C     0.75035   0.42254   0.03749   0.01267  Uiso   1.00
C83    C     0.68917   0.45512   0.01001   0.01267  Uiso   1.00
C84    C     0.57421   0.41259   0.11646   0.01267  Uiso   1.00
C85    C     0.62958   0.37618   0.14824   0.01267  Uiso   1.00
C86    C     0.58130   0.26970   0.66310   0.01267  Uiso   1.00
C87    C     0.52210   0.30260   0.68130   0.01267  Uiso   1.00
C88    C     0.43400   0.31610   0.66000   0.01267  Uiso   1.00
C89    C     0.32620   0.38000   0.66030   0.01267  Uiso   1.00
C90    C     0.33710   0.44810   0.62610   0.01267  Uiso   1.00
C91    C     0.25490   0.46610   0.61410   0.01267  Uiso   1.00
C92    C     0.15690   0.35660   0.66330   0.01267  Uiso   1.00
C93    C     0.23330   0.33290   0.67920   0.01267  Uiso   1.00
C94    C     0.60384   0.49694   0.86622   0.01267  Uiso   1.00
C95    C     0.61674   0.47231   0.82029   0.01267  Uiso   1.00
C96    C     0.54798   0.41531   0.83307   0.01267  Uiso   1.00
C97    C     0.46436   0.38149   0.89351   0.01267  Uiso   1.00
C98    C     0.45809   0.40762   0.93725   0.01267  Uiso   1.00
C99    C     0.63826   0.36846   0.77548   0.01267  Uiso   1.00
C100   C     0.62720   0.33243   0.73603   0.01267  Uiso   1.00
C101   C     0.68890   0.29950   0.71990   0.01267  Uiso   1.00
C102   C     0.66500   0.26840   0.68280   0.01267  Uiso   1.00
C103   C     0.78310   0.70960   0.50700   0.01267  Uiso   1.00
C104   C     0.81240   0.74460   0.43610   0.01267  Uiso   1.00
C105   C     0.90679   0.79712   0.39955   0.01267  Uiso   1.00
C106   C     0.93592   0.78027   0.50081   0.01267  Uiso   1.00
C107   C     0.84390   0.72670   0.54000   0.01267  Uiso   1.00
C108   C     0.95740   0.83760   0.32270   0.01267  Uiso   1.00
C109   C     0.01156   0.80657   0.52669   0.01267  Uiso   1.00
C110   C     0.11210   0.91200   0.23510   0.01267  Uiso   1.00
C111   C     0.08710   0.95220   0.18290   0.01267  Uiso   1.00
C112   C     0.14860   0.98130   0.11600   0.01267  Uiso   1.00
C113   C     0.26020   0.93630   0.14720   0.01267  Uiso   1.00
C114   C     0.20590   0.90540   0.21620   0.01267  Uiso   1.00
C115   C     0.17183   0.89121   0.48782   0.01267  Uiso   1.00
C116   C     0.21216   0.96251   0.46003   0.01267  Uiso   1.00
C117   C     0.30082   0.98999   0.46513   0.01267  Uiso   1.00
C118   C     0.30933   0.88354   0.52905   0.01267  Uiso   1.00
C119   C     0.22218   0.85176   0.52442   0.01267  Uiso   1.00
C120   C     0.75560   0.33690   0.93280   0.01267  Uiso   1.00
C121   C     0.79660   0.31870   0.98390   0.01267  Uiso   1.00
C122   C     0.90600   0.34000   0.97610   0.01267  Uiso   1.00
C123   C     0.01350   0.33970   0.04030   0.01267  Uiso   1.00
C124   C     0.03680   0.37390   0.07420   0.01267  Uiso   1.00
C125   C     0.13100   0.38590   0.08020   0.01267  Uiso   1.00
C126   C     0.17980   0.33670   0.01990   0.01267  Uiso   1.00
C127   C     0.08750   0.32080   0.01210   0.01267  Uiso   1.00
C128   C     0.52994   0.13378   0.36316   0.01267  Uiso   1.00
C129   C     0.56297   0.17971   0.29260   0.01267  Uiso   1.00
C130   C     0.61895   0.16693   0.24838   0.01267  Uiso   1.00
C131   C     0.64213   0.10649   0.27500   0.01267  Uiso   1.00
C132   C     0.60466   0.06275   0.34487   0.01267  Uiso   1.00
C133   C     0.58626   0.22452   0.14394   0.01267  Uiso   1.00
C134   C     0.63677   0.26397   0.06846   0.01267  Uiso   1.00
C135   C     0.59120   0.28010   0.01940   0.01267  Uiso   1.00
C136   C     0.65220   0.31720   0.95120   0.01267  Uiso   1.00
C137   C     0.29010   0.50700   0.78340   0.01267  Uiso   1.00
C138   C     0.24850   0.43610   0.81930   0.01267  Uiso   1.00
C139   C     0.30634   0.39955   0.80333   0.01267  Uiso   1.00
C140   C     0.43673   0.50081   0.71892   0.01267  Uiso   1.00
C141   C     0.38390   0.54000   0.73330   0.01267  Uiso   1.00
C142   C     0.28010   0.32270   0.83970   0.01267  Uiso   1.00
C143   C     0.53825   0.52669   0.66674   0.01267  Uiso   1.00
C144   C     0.34720   0.23510   0.85290   0.01267  Uiso   1.00
C145   C     0.27000   0.18290   0.86490   0.01267  Uiso   1.00
C146   C     0.26460   0.11600   0.90270   0.01267  Uiso   1.00
C147   C     0.40740   0.14720   0.91650   0.01267  Uiso   1.00
C148   C     0.42210   0.21620   0.87840   0.01267  Uiso   1.00
C149   C     0.65965   0.48782   0.62097   0.01267  Uiso   1.00
C150   C     0.67219   0.46003   0.57746   0.01267  Uiso   1.00
C151   C     0.76595   0.46513   0.54488   0.01267  Uiso   1.00
C152   C     0.83838   0.52905   0.58741   0.01267  Uiso   1.00
C153   C     0.74660   0.52442   0.62382   0.01267  Uiso   1.00
C154   C     0.68840   0.93280   0.73030   0.01267  Uiso   1.00
C155   C     0.78050   0.98390   0.69740   0.01267  Uiso   1.00
C156   C     0.88210   0.97610   0.68390   0.01267  Uiso   1.00
C157   C     0.05380   0.04030   0.62000   0.01267  Uiso   1.00
C158   C     0.11100   0.07420   0.55190   0.01267  Uiso   1.00
C159   C     0.21120   0.08020   0.53390   0.01267  Uiso   1.00
C160   C     0.19970   0.01990   0.64340   0.01267  Uiso   1.00
C161   C     0.09960   0.01210   0.66710   0.01267  Uiso   1.00
C162   C     0.89310   0.36316   0.50306   0.01267  Uiso   1.00
C163   C     0.85557   0.29260   0.52769   0.01267  Uiso   1.00
C164   C     0.86733   0.24838   0.58469   0.01267  Uiso   1.00
C165   C     0.91713   0.27500   0.61851   0.01267  Uiso   1.00
C166   C     0.94953   0.34487   0.59238   0.01267  Uiso   1.00
C167   C     0.73020   0.14394   0.63154   0.01267  Uiso   1.00
C168   C     0.70523   0.06846   0.66757   0.01267  Uiso   1.00
C169   C     0.61060   0.01940   0.70050   0.01267  Uiso   1.00
C170   C     0.60340   0.95120   0.73160   0.01267  Uiso   1.00
C171   C     0.07350   0.78340   0.70960   0.01267  Uiso   1.00
C172   C     0.06780   0.81930   0.74460   0.01267  Uiso   1.00
C173   C     0.10967   0.80333   0.79712   0.01267  Uiso   1.00
C174   C     0.15565   0.71892   0.78027   0.01267  Uiso   1.00
C175   C     0.11720   0.73330   0.72670   0.01267  Uiso   1.00
C176   C     0.11980   0.83970   0.83760   0.01267  Uiso   1.00
C177   C     0.20499   0.66674   0.80657   0.01267  Uiso   1.00
C178   C     0.20010   0.85290   0.91200   0.01267  Uiso   1.00
C179   C     0.13490   0.86490   0.95220   0.01267  Uiso   1.00
C180   C     0.16730   0.90270   0.98130   0.01267  Uiso   1.00
C181   C     0.32390   0.91650   0.93630   0.01267  Uiso   1.00
C182   C     0.30050   0.87840   0.90540   0.01267  Uiso   1.00
C183   C     0.28062   0.62097   0.89121   0.01267  Uiso   1.00
C184   C     0.24965   0.57746   0.96251   0.01267  Uiso   1.00
C185   C     0.31083   0.54488   0.98999   0.01267  Uiso   1.00
C186   C     0.42579   0.58741   0.88354   0.01267  Uiso   1.00
C187   C     0.37042   0.62382   0.85176   0.01267  Uiso   1.00
C188   C     0.41870   0.73030   0.33690   0.01267  Uiso   1.00
C189   C     0.47790   0.69740   0.31870   0.01267  Uiso   1.00
C190   C     0.56600   0.68390   0.34000   0.01267  Uiso   1.00
C191   C     0.67380   0.62000   0.33970   0.01267  Uiso   1.00
C192   C     0.66290   0.55190   0.37390   0.01267  Uiso   1.00
C193   C     0.74510   0.53390   0.38590   0.01267  Uiso   1.00
C194   C     0.84310   0.64340   0.33670   0.01267  Uiso   1.00
C195   C     0.76670   0.66710   0.32080   0.01267  Uiso   1.00
C196   C     0.39616   0.50306   0.13378   0.01267  Uiso   1.00
C197   C     0.38326   0.52769   0.17971   0.01267  Uiso   1.00
C198   C     0.45202   0.58469   0.16693   0.01267  Uiso   1.00
C199   C     0.53564   0.61851   0.10649   0.01267  Uiso   1.00
C200   C     0.54191   0.59238   0.06275   0.01267  Uiso   1.00
C201   C     0.36174   0.63154   0.22452   0.01267  Uiso   1.00
C202   C     0.37280   0.66757   0.26397   0.01267  Uiso   1.00
C203   C     0.31110   0.70050   0.28010   0.01267  Uiso   1.00
C204   C     0.33500   0.73160   0.31720   0.01267  Uiso   1.00
N1     N     0.94930   0.12091   0.69521   0.01267  Uiso   1.00
N2     N     0.91326   0.13693   0.52565   0.01267  Uiso   1.00
N3     N     0.34544   0.78959   0.82367   0.01267  Uiso   1.00
N4     N     0.08379   0.67630   0.96283   0.01267  Uiso   1.00
N5     N     0.03644   0.18721   0.56699   0.01267  Uiso   1.00
N6     N     0.26293   0.71661   0.95052   0.01267  Uiso   1.00
N7     N     0.64764   0.04731   0.50179   0.01267  Uiso   1.00
N8     N     0.44948   0.92552   0.60998   0.01267  Uiso   1.00
N9     N     0.77370   0.03240   0.90130   0.01267  Uiso   1.00
N10    N     0.79759   0.63050   0.94703   0.01267  Uiso   1.00
N11    N     0.64451   0.69521   0.18388   0.01267  Uiso   1.00
N12    N     0.43891   0.52565   0.33742   0.01267  Uiso   1.00
N13    N     0.16911   0.82367   0.38674   0.01267  Uiso   1.00
N14    N     0.04662   0.96283   0.36087   0.01267  Uiso   1.00
N15    N     0.60343   0.56699   0.24580   0.01267  Uiso   1.00
N16    N     0.21345   0.95052   0.33287   0.01267  Uiso   1.00
N17    N     0.14943   0.50179   0.45090   0.01267  Uiso   1.00
N18    N     0.05946   0.60998   0.46450   0.01267  Uiso   1.00
N19    N     0.67500   0.90130   0.06630   0.01267  Uiso   1.00
N20    N     0.74462   0.94703   0.42247   0.01267  Uiso   1.00
N21    N     0.82839   0.18388   0.12091   0.01267  Uiso   1.00
N22    N     0.77633   0.33742   0.13693   0.01267  Uiso   1.00
N23    N     0.55585   0.38674   0.78959   0.01267  Uiso   1.00
N24    N     0.40749   0.36087   0.67630   0.01267  Uiso   1.00
N25    N     0.84923   0.24580   0.18721   0.01267  Uiso   1.00
N26    N     0.54632   0.33287   0.71661   0.01267  Uiso   1.00
N27    N     0.60033   0.45090   0.04731   0.01267  Uiso   1.00
N28    N     0.52396   0.46450   0.92552   0.01267  Uiso   1.00
N29    N     0.74130   0.06630   0.03240   0.01267  Uiso   1.00
N30    N     0.16709   0.42247   0.63050   0.01267  Uiso   1.00
N31    N     0.05070   0.87909   0.30479   0.01267  Uiso   1.00
N32    N     0.08674   0.86307   0.47435   0.01267  Uiso   1.00
N33    N     0.65456   0.21041   0.17633   0.01267  Uiso   1.00
N34    N     0.91621   0.32370   0.03717   0.01267  Uiso   1.00
N35    N     0.96356   0.81279   0.43301   0.01267  Uiso   1.00
N36    N     0.73707   0.28339   0.04948   0.01267  Uiso   1.00
N37    N     0.35236   0.95269   0.49821   0.01267  Uiso   1.00
N38    N     0.55052   0.07448   0.39002   0.01267  Uiso   1.00
N39    N     0.22630   0.96760   0.09870   0.01267  Uiso   1.00
N40    N     0.20241   0.36950   0.05297   0.01267  Uiso   1.00
N41    N     0.35549   0.30479   0.81612   0.01267  Uiso   1.00
N42    N     0.56109   0.47435   0.66258   0.01267  Uiso   1.00
N43    N     0.83089   0.17633   0.61326   0.01267  Uiso   1.00
N44    N     0.95338   0.03717   0.63913   0.01267  Uiso   1.00
N45    N     0.39657   0.43301   0.75420   0.01267  Uiso   1.00
N46    N     0.78655   0.04948   0.66713   0.01267  Uiso   1.00
N47    N     0.85057   0.49821   0.54910   0.01267  Uiso   1.00
N48    N     0.94054   0.39002   0.53550   0.01267  Uiso   1.00
N49    N     0.32500   0.09870   0.93370   0.01267  Uiso   1.00
N50    N     0.25538   0.05297   0.57753   0.01267  Uiso   1.00
N51    N     0.17161   0.81612   0.87909   0.01267  Uiso   1.00
N52    N     0.22367   0.66258   0.86307   0.01267  Uiso   1.00
N53    N     0.44415   0.61326   0.21041   0.01267  Uiso   1.00
N54    N     0.59251   0.63913   0.32370   0.01267  Uiso   1.00
N55    N     0.15077   0.75420   0.81279   0.01267  Uiso   1.00
N56    N     0.45368   0.66713   0.28339   0.01267  Uiso   1.00
N57    N     0.39967   0.54910   0.95269   0.01267  Uiso   1.00
N58    N     0.47604   0.53550   0.07448   0.01267  Uiso   1.00
N59    N     0.25870   0.93370   0.96760   0.01267  Uiso   1.00
N60    N     0.83291   0.57753   0.36950   0.01267  Uiso   1.00
O1     O     0.08466   0.17274   0.71446   0.01267  Uiso   1.00
O2     O     0.99999   0.22220   0.41163   0.01267  Uiso   1.00
O3     O     0.50509   0.79498   0.82861   0.01267  Uiso   1.00
O4     O     0.02720   0.62770   0.08040   0.01267  Uiso   1.00
O5     O     0.44922   0.07153   0.51917   0.01267  Uiso   1.00
O6     O     0.79912   0.71446   0.11280   0.01267  Uiso   1.00
O7     O     0.41162   0.41163   0.36617   0.01267  Uiso   1.00
O8     O     0.33370   0.82861   0.37641   0.01267  Uiso   1.00
O9     O     0.10760   0.08040   0.29190   0.01267  Uiso   1.00
O10    O     0.96839   0.51917   0.40930   0.01267  Uiso   1.00
O11    O     0.91192   0.11280   0.17274   0.01267  Uiso   1.00
O12    O     0.77779   0.36617   0.22220   0.01267  Uiso   1.00
O13    O     0.71011   0.37641   0.79498   0.01267  Uiso   1.00
O14    O     0.39950   0.29190   0.62770   0.01267  Uiso   1.00
O15    O     0.37769   0.40930   0.07153   0.01267  Uiso   1.00
O16    O     0.91534   0.82726   0.28554   0.01267  Uiso   1.00
O17    O     0.00001   0.77780   0.58837   0.01267  Uiso   1.00
O18    O     0.49491   0.20502   0.17139   0.01267  Uiso   1.00
O19    O     0.97280   0.37230   0.91960   0.01267  Uiso   1.00
O20    O     0.55078   0.92847   0.48083   0.01267  Uiso   1.00
O21    O     0.20088   0.28554   0.88720   0.01267  Uiso   1.00
O22    O     0.58838   0.58837   0.63383   0.01267  Uiso   1.00
O23    O     0.66630   0.17139   0.62359   0.01267  Uiso   1.00
O24    O     0.89240   0.91960   0.70810   0.01267  Uiso   1.00
O25    O     0.03161   0.48083   0.59070   0.01267  Uiso   1.00
O26    O     0.08808   0.88720   0.82726   0.01267  Uiso   1.00
O27    O     0.22221   0.63383   0.77780   0.01267  Uiso   1.00
O28    O     0.28989   0.62359   0.20502   0.01267  Uiso   1.00
O29    O     0.60050   0.70810   0.37230   0.01267  Uiso   1.00
O30    O     0.62231   0.59070   0.92847   0.01267  Uiso   1.00
N61    N     0.33900   0.05400   0.75700   0.01267  Uiso   1.00
O31    O     0.36920   0.02840   0.73620   0.01267  Uiso   1.00
O32    O     0.41650   0.11000   0.76350   0.01267  Uiso   1.00
O33    O     0.22470   0.04640   0.78510   0.01267  Uiso   1.00
N62    N     0.09600   0.75700   0.18900   0.01267  Uiso   1.00
O34    O     0.10540   0.73620   0.23540   0.01267  Uiso   1.00
O35    O     0.18000   0.76350   0.12650   0.01267  Uiso   1.00
O36    O     0.00980   0.78510   0.16850   0.01267  Uiso   1.00
N63    N     0.28500   0.18900   0.05400   0.01267  Uiso   1.00
O37    O     0.34080   0.23540   0.02840   0.01267  Uiso   1.00
O38    O     0.30650   0.12650   0.11000   0.01267  Uiso   1.00
O39    O     0.17830   0.16850   0.04640   0.01267  Uiso   1.00
N64    N     0.66100   0.94600   0.24300   0.01267  Uiso   1.00
O40    O     0.63080   0.97160   0.26380   0.01267  Uiso   1.00
O41    O     0.58350   0.89000   0.23650   0.01267  Uiso   1.00
O42    O     0.77530   0.95360   0.21490   0.01267  Uiso   1.00
N65    N     0.90400   0.24300   0.81100   0.01267  Uiso   1.00
O43    O     0.89460   0.26380   0.76460   0.01267  Uiso   1.00
O44    O     0.82000   0.23650   0.87350   0.01267  Uiso   1.00
O45    O     0.99020   0.21490   0.83150   0.01267  Uiso   1.00
N66    N     0.71500   0.81100   0.94600   0.01267  Uiso   1.00
O46    O     0.65920   0.76460   0.97160   0.01267  Uiso   1.00
O47    O     0.69350   0.87350   0.89000   0.01267  Uiso   1.00
O48    O     0.82170   0.83150   0.95360   0.01267  Uiso   1.00
