data_image0
_cell_length_a       21.1882
_cell_length_b       21.1882
_cell_length_c       21.1882
_cell_angle_alpha    90
_cell_angle_beta     90
_cell_angle_gamma    90

_symmetry_space_group_name_H-M    "P 1"
_symmetry_int_tables_number       1

loop_
  _symmetry_equiv_pos_as_xyz
  'x, y, z'

loop_
  _atom_site_label
  _atom_site_occupancy
  _atom_site_fract_x
  _atom_site_fract_y
  _atom_site_fract_z
  _atom_site_thermal_displace_type
  _atom_site_B_iso_or_equiv
  _atom_site_type_symbol
  N1       1.0000 0.56600  0.69360  0.06660  Biso   1.000  N
  C1       1.0000 0.58300  0.75430  0.08490  Biso   1.000  C
  H1       1.0000 0.56510  0.78910  0.06490  Biso   1.000  H
  C2       1.0000 0.62670  0.76300  0.13300  Biso   1.000  C
  H2       1.0000 0.63800  0.80360  0.14530  Biso   1.000  H
  C3       1.0000 0.65330  0.71110  0.16290  Biso   1.000  C
  C4       1.0000 0.63640  0.65040  0.14460  Biso   1.000  C
  H3       1.0000 0.65420  0.61560  0.16460  Biso   1.000  H
  C5       1.0000 0.59270  0.64170  0.09640  Biso   1.000  C
  H4       1.0000 0.58140  0.60110  0.08420  Biso   1.000  H
  C6       1.0000 0.68980  0.72110  0.21380  Biso   1.000  C
  C7       1.0000 0.73960  0.68130  0.22910  Biso   1.000  C
  H5       1.0000 0.74370  0.64510  0.20460  Biso   1.000  H
  N2       1.0000 0.43400  0.30640  0.06660  Biso   1.000  N
  C8       1.0000 0.41700  0.24570  0.08490  Biso   1.000  C
  H6       1.0000 0.43490  0.21090  0.06490  Biso   1.000  H
  C9       1.0000 0.37330  0.23700  0.13300  Biso   1.000  C
  H7       1.0000 0.36200  0.19640  0.14530  Biso   1.000  H
  C10      1.0000 0.34670  0.28890  0.16290  Biso   1.000  C
  C11      1.0000 0.36360  0.34960  0.14460  Biso   1.000  C
  H8       1.0000 0.34580  0.38440  0.16460  Biso   1.000  H
  C12      1.0000 0.40730  0.35830  0.09640  Biso   1.000  C
  H9       1.0000 0.41860  0.39890  0.08420  Biso   1.000  H
  C13      1.0000 0.31020  0.27890  0.21380  Biso   1.000  C
  C14      1.0000 0.26040  0.31870  0.22910  Biso   1.000  C
  H10      1.0000 0.25630  0.35490  0.20460  Biso   1.000  H
  N3       1.0000 0.43400  0.69360  0.93340  Biso   1.000  N
  C15      1.0000 0.41700  0.75430  0.91510  Biso   1.000  C
  H11      1.0000 0.43490  0.78910  0.93510  Biso   1.000  H
  C16      1.0000 0.37330  0.76300  0.86700  Biso   1.000  C
  H12      1.0000 0.36200  0.80360  0.85470  Biso   1.000  H
  C17      1.0000 0.34670  0.71110  0.83710  Biso   1.000  C
  C18      1.0000 0.36360  0.65040  0.85540  Biso   1.000  C
  H13      1.0000 0.34580  0.61560  0.83540  Biso   1.000  H
  C19      1.0000 0.40730  0.64170  0.90360  Biso   1.000  C
  H14      1.0000 0.41860  0.60110  0.91580  Biso   1.000  H
  C20      1.0000 0.31020  0.72110  0.78620  Biso   1.000  C
  C21      1.0000 0.26040  0.68130  0.77090  Biso   1.000  C
  H15      1.0000 0.25630  0.64510  0.79540  Biso   1.000  H
  N4       1.0000 0.56600  0.30640  0.93340  Biso   1.000  N
  C22      1.0000 0.58300  0.24570  0.91510  Biso   1.000  C
  H16      1.0000 0.56510  0.21090  0.93510  Biso   1.000  H
  C23      1.0000 0.62670  0.23700  0.86700  Biso   1.000  C
  H17      1.0000 0.63800  0.19640  0.85470  Biso   1.000  H
  C24      1.0000 0.65330  0.28890  0.83710  Biso   1.000  C
  C25      1.0000 0.63640  0.34960  0.85540  Biso   1.000  C
  H18      1.0000 0.65420  0.38440  0.83540  Biso   1.000  H
  C26      1.0000 0.59270  0.35830  0.90360  Biso   1.000  C
  H19      1.0000 0.58140  0.39890  0.91580  Biso   1.000  H
  C27      1.0000 0.68980  0.27890  0.78620  Biso   1.000  C
  C28      1.0000 0.73960  0.31870  0.77090  Biso   1.000  C
  H20      1.0000 0.74370  0.35490  0.79540  Biso   1.000  H
  N5       1.0000 0.06660  0.56600  0.69360  Biso   1.000  N
  C29      1.0000 0.08490  0.58300  0.75430  Biso   1.000  C
  H21      1.0000 0.06490  0.56510  0.78910  Biso   1.000  H
  C30      1.0000 0.13300  0.62670  0.76300  Biso   1.000  C
  H22      1.0000 0.14530  0.63800  0.80360  Biso   1.000  H
  C31      1.0000 0.16290  0.65330  0.71110  Biso   1.000  C
  C32      1.0000 0.14460  0.63640  0.65040  Biso   1.000  C
  H23      1.0000 0.16460  0.65420  0.61560  Biso   1.000  H
  C33      1.0000 0.09640  0.59270  0.64170  Biso   1.000  C
  H24      1.0000 0.08420  0.58140  0.60110  Biso   1.000  H
  C34      1.0000 0.21380  0.68980  0.72110  Biso   1.000  C
  C35      1.0000 0.22910  0.73960  0.68130  Biso   1.000  C
  H25      1.0000 0.20460  0.74370  0.64510  Biso   1.000  H
  N6       1.0000 0.06660  0.43400  0.30640  Biso   1.000  N
  C36      1.0000 0.08490  0.41700  0.24570  Biso   1.000  C
  H26      1.0000 0.06490  0.43490  0.21090  Biso   1.000  H
  C37      1.0000 0.13300  0.37330  0.23700  Biso   1.000  C
  H27      1.0000 0.14530  0.36200  0.19640  Biso   1.000  H
  C38      1.0000 0.16290  0.34670  0.28890  Biso   1.000  C
  C39      1.0000 0.14460  0.36360  0.34960  Biso   1.000  C
  H28      1.0000 0.16460  0.34580  0.38440  Biso   1.000  H
  C40      1.0000 0.09640  0.40730  0.35830  Biso   1.000  C
  H29      1.0000 0.08420  0.41860  0.39890  Biso   1.000  H
  C41      1.0000 0.21380  0.31020  0.27890  Biso   1.000  C
  C42      1.0000 0.22910  0.26040  0.31870  Biso   1.000  C
  H30      1.0000 0.20460  0.25630  0.35490  Biso   1.000  H
  N7       1.0000 0.93340  0.43400  0.69360  Biso   1.000  N
  C43      1.0000 0.91510  0.41700  0.75430  Biso   1.000  C
  H31      1.0000 0.93510  0.43490  0.78910  Biso   1.000  H
  C44      1.0000 0.86700  0.37330  0.76300  Biso   1.000  C
  H32      1.0000 0.85470  0.36200  0.80360  Biso   1.000  H
  C45      1.0000 0.83710  0.34670  0.71110  Biso   1.000  C
  C46      1.0000 0.85540  0.36360  0.65040  Biso   1.000  C
  H33      1.0000 0.83540  0.34580  0.61560  Biso   1.000  H
  C47      1.0000 0.90360  0.40730  0.64170  Biso   1.000  C
  H34      1.0000 0.91580  0.41860  0.60110  Biso   1.000  H
  C48      1.0000 0.78620  0.31020  0.72110  Biso   1.000  C
  C49      1.0000 0.77090  0.26040  0.68130  Biso   1.000  C
  H35      1.0000 0.79540  0.25630  0.64510  Biso   1.000  H
  N8       1.0000 0.93340  0.56600  0.30640  Biso   1.000  N
  C50      1.0000 0.91510  0.58300  0.24570  Biso   1.000  C
  H36      1.0000 0.93510  0.56510  0.21090  Biso   1.000  H
  C51      1.0000 0.86700  0.62670  0.23700  Biso   1.000  C
  H37      1.0000 0.85470  0.63800  0.19640  Biso   1.000  H
  C52      1.0000 0.83710  0.65330  0.28890  Biso   1.000  C
  C53      1.0000 0.85540  0.63640  0.34960  Biso   1.000  C
  H38      1.0000 0.83540  0.65420  0.38440  Biso   1.000  H
  C54      1.0000 0.90360  0.59270  0.35830  Biso   1.000  C
  H39      1.0000 0.91580  0.58140  0.39890  Biso   1.000  H
  C55      1.0000 0.78620  0.68980  0.27890  Biso   1.000  C
  C56      1.0000 0.77090  0.73960  0.31870  Biso   1.000  C
  H40      1.0000 0.79540  0.74370  0.35490  Biso   1.000  H
  N9       1.0000 0.69360  0.06660  0.56600  Biso   1.000  N
  C57      1.0000 0.75430  0.08490  0.58300  Biso   1.000  C
  H41      1.0000 0.78910  0.06490  0.56510  Biso   1.000  H
  C58      1.0000 0.76300  0.13300  0.62670  Biso   1.000  C
  H42      1.0000 0.80360  0.14530  0.63800  Biso   1.000  H
  C59      1.0000 0.71110  0.16290  0.65330  Biso   1.000  C
  C60      1.0000 0.65040  0.14460  0.63640  Biso   1.000  C
  H43      1.0000 0.61560  0.16460  0.65420  Biso   1.000  H
  C61      1.0000 0.64170  0.09640  0.59270  Biso   1.000  C
  H44      1.0000 0.60110  0.08420  0.58140  Biso   1.000  H
  C62      1.0000 0.72110  0.21380  0.68980  Biso   1.000  C
  C63      1.0000 0.68130  0.22910  0.73960  Biso   1.000  C
  H45      1.0000 0.64510  0.20460  0.74370  Biso   1.000  H
  N10      1.0000 0.30640  0.06660  0.43400  Biso   1.000  N
  C64      1.0000 0.24570  0.08490  0.41700  Biso   1.000  C
  H46      1.0000 0.21090  0.06490  0.43490  Biso   1.000  H
  C65      1.0000 0.23700  0.13300  0.37330  Biso   1.000  C
  H47      1.0000 0.19640  0.14530  0.36200  Biso   1.000  H
  C66      1.0000 0.28890  0.16290  0.34670  Biso   1.000  C
  C67      1.0000 0.34960  0.14460  0.36360  Biso   1.000  C
  H48      1.0000 0.38440  0.16460  0.34580  Biso   1.000  H
  C68      1.0000 0.35830  0.09640  0.40730  Biso   1.000  C
  H49      1.0000 0.39890  0.08420  0.41860  Biso   1.000  H
  C69      1.0000 0.27890  0.21380  0.31020  Biso   1.000  C
  C70      1.0000 0.31870  0.22910  0.26040  Biso   1.000  C
  H50      1.0000 0.35490  0.20460  0.25630  Biso   1.000  H
  N11      1.0000 0.69360  0.93340  0.43400  Biso   1.000  N
  C71      1.0000 0.75430  0.91510  0.41700  Biso   1.000  C
  H51      1.0000 0.78910  0.93510  0.43490  Biso   1.000  H
  C72      1.0000 0.76300  0.86700  0.37330  Biso   1.000  C
  H52      1.0000 0.80360  0.85470  0.36200  Biso   1.000  H
  C73      1.0000 0.71110  0.83710  0.34670  Biso   1.000  C
  C74      1.0000 0.65040  0.85540  0.36360  Biso   1.000  C
  H53      1.0000 0.61560  0.83540  0.34580  Biso   1.000  H
  C75      1.0000 0.64170  0.90360  0.40730  Biso   1.000  C
  H54      1.0000 0.60110  0.91580  0.41860  Biso   1.000  H
  C76      1.0000 0.72110  0.78620  0.31020  Biso   1.000  C
  C77      1.0000 0.68130  0.77090  0.26040  Biso   1.000  C
  H55      1.0000 0.64510  0.79540  0.25630  Biso   1.000  H
  N12      1.0000 0.30640  0.93340  0.56600  Biso   1.000  N
  C78      1.0000 0.24570  0.91510  0.58300  Biso   1.000  C
  H56      1.0000 0.21090  0.93510  0.56510  Biso   1.000  H
  C79      1.0000 0.23700  0.86700  0.62670  Biso   1.000  C
  H57      1.0000 0.19640  0.85470  0.63800  Biso   1.000  H
  C80      1.0000 0.28890  0.83710  0.65330  Biso   1.000  C
  C81      1.0000 0.34960  0.85540  0.63640  Biso   1.000  C
  H58      1.0000 0.38440  0.83540  0.65420  Biso   1.000  H
  C82      1.0000 0.35830  0.90360  0.59270  Biso   1.000  C
  H59      1.0000 0.39890  0.91580  0.58140  Biso   1.000  H
  C83      1.0000 0.27890  0.78620  0.68980  Biso   1.000  C
  C84      1.0000 0.31870  0.77090  0.73960  Biso   1.000  C
  H60      1.0000 0.35490  0.79540  0.74370  Biso   1.000  H
  N13      1.0000 0.43400  0.30640  0.93340  Biso   1.000  N
  C85      1.0000 0.41700  0.24570  0.91510  Biso   1.000  C
  H61      1.0000 0.43490  0.21090  0.93510  Biso   1.000  H
  C86      1.0000 0.37330  0.23700  0.86700  Biso   1.000  C
  H62      1.0000 0.36200  0.19640  0.85470  Biso   1.000  H
  C87      1.0000 0.34670  0.28890  0.83710  Biso   1.000  C
  C88      1.0000 0.36360  0.34960  0.85540  Biso   1.000  C
  H63      1.0000 0.34580  0.38440  0.83540  Biso   1.000  H
  C89      1.0000 0.40730  0.35830  0.90360  Biso   1.000  C
  H64      1.0000 0.41860  0.39890  0.91580  Biso   1.000  H
  C90      1.0000 0.31020  0.27890  0.78620  Biso   1.000  C
  C91      1.0000 0.26040  0.31870  0.77090  Biso   1.000  C
  H65      1.0000 0.25630  0.35490  0.79540  Biso   1.000  H
  N14      1.0000 0.56600  0.69360  0.93340  Biso   1.000  N
  C92      1.0000 0.58300  0.75430  0.91510  Biso   1.000  C
  H66      1.0000 0.56510  0.78910  0.93510  Biso   1.000  H
  C93      1.0000 0.62670  0.76300  0.86700  Biso   1.000  C
  H67      1.0000 0.63800  0.80360  0.85470  Biso   1.000  H
  C94      1.0000 0.65330  0.71110  0.83710  Biso   1.000  C
  C95      1.0000 0.63640  0.65040  0.85540  Biso   1.000  C
  H68      1.0000 0.65420  0.61560  0.83540  Biso   1.000  H
  C96      1.0000 0.59270  0.64170  0.90360  Biso   1.000  C
  H69      1.0000 0.58140  0.60110  0.91580  Biso   1.000  H
  C97      1.0000 0.68980  0.72110  0.78620  Biso   1.000  C
  C98      1.0000 0.73960  0.68130  0.77090  Biso   1.000  C
  H70      1.0000 0.74370  0.64510  0.79540  Biso   1.000  H
  N15      1.0000 0.56600  0.30640  0.06660  Biso   1.000  N
  C99      1.0000 0.58300  0.24570  0.08490  Biso   1.000  C
  H71      1.0000 0.56510  0.21090  0.06490  Biso   1.000  H
  C100     1.0000 0.62670  0.23700  0.13300  Biso   1.000  C
  H72      1.0000 0.63800  0.19640  0.14530  Biso   1.000  H
  C101     1.0000 0.65330  0.28890  0.16290  Biso   1.000  C
  C102     1.0000 0.63640  0.34960  0.14460  Biso   1.000  C
  H73      1.0000 0.65420  0.38440  0.16460  Biso   1.000  H
  C103     1.0000 0.59270  0.35830  0.09640  Biso   1.000  C
  H74      1.0000 0.58140  0.39890  0.08420  Biso   1.000  H
  C104     1.0000 0.68980  0.27890  0.21380  Biso   1.000  C
  C105     1.0000 0.73960  0.31870  0.22910  Biso   1.000  C
  H75      1.0000 0.74370  0.35490  0.20460  Biso   1.000  H
  N16      1.0000 0.43400  0.69360  0.06660  Biso   1.000  N
  C106     1.0000 0.41700  0.75430  0.08490  Biso   1.000  C
  H76      1.0000 0.43490  0.78910  0.06490  Biso   1.000  H
  C107     1.0000 0.37330  0.76300  0.13300  Biso   1.000  C
  H77      1.0000 0.36200  0.80360  0.14530  Biso   1.000  H
  C108     1.0000 0.34670  0.71110  0.16290  Biso   1.000  C
  C109     1.0000 0.36360  0.65040  0.14460  Biso   1.000  C
  H78      1.0000 0.34580  0.61560  0.16460  Biso   1.000  H
  C110     1.0000 0.40730  0.64170  0.09640  Biso   1.000  C
  H79      1.0000 0.41860  0.60110  0.08420  Biso   1.000  H
  C111     1.0000 0.31020  0.72110  0.21380  Biso   1.000  C
  C112     1.0000 0.26040  0.68130  0.22910  Biso   1.000  C
  H80      1.0000 0.25630  0.64510  0.20460  Biso   1.000  H
  N17      1.0000 0.93340  0.43400  0.30640  Biso   1.000  N
  C113     1.0000 0.91510  0.41700  0.24570  Biso   1.000  C
  H81      1.0000 0.93510  0.43490  0.21090  Biso   1.000  H
  C114     1.0000 0.86700  0.37330  0.23700  Biso   1.000  C
  H82      1.0000 0.85470  0.36200  0.19640  Biso   1.000  H
  C115     1.0000 0.83710  0.34670  0.28890  Biso   1.000  C
  C116     1.0000 0.85540  0.36360  0.34960  Biso   1.000  C
  H83      1.0000 0.83540  0.34580  0.38440  Biso   1.000  H
  C117     1.0000 0.90360  0.40730  0.35830  Biso   1.000  C
  H84      1.0000 0.91580  0.41860  0.39890  Biso   1.000  H
  C118     1.0000 0.78620  0.31020  0.27890  Biso   1.000  C
  C119     1.0000 0.77090  0.26040  0.31870  Biso   1.000  C
  H85      1.0000 0.79540  0.25630  0.35490  Biso   1.000  H
  N18      1.0000 0.93340  0.56600  0.69360  Biso   1.000  N
  C120     1.0000 0.91510  0.58300  0.75430  Biso   1.000  C
  H86      1.0000 0.93510  0.56510  0.78910  Biso   1.000  H
  C121     1.0000 0.86700  0.62670  0.76300  Biso   1.000  C
  H87      1.0000 0.85470  0.63800  0.80360  Biso   1.000  H
  C122     1.0000 0.83710  0.65330  0.71110  Biso   1.000  C
  C123     1.0000 0.85540  0.63640  0.65040  Biso   1.000  C
  H88      1.0000 0.83540  0.65420  0.61560  Biso   1.000  H
  C124     1.0000 0.90360  0.59270  0.64170  Biso   1.000  C
  H89      1.0000 0.91580  0.58140  0.60110  Biso   1.000  H
  C125     1.0000 0.78620  0.68980  0.72110  Biso   1.000  C
  C126     1.0000 0.77090  0.73960  0.68130  Biso   1.000  C
  H90      1.0000 0.79540  0.74370  0.64510  Biso   1.000  H
  N19      1.0000 0.06660  0.56600  0.30640  Biso   1.000  N
  C127     1.0000 0.08490  0.58300  0.24570  Biso   1.000  C
  H91      1.0000 0.06490  0.56510  0.21090  Biso   1.000  H
  C128     1.0000 0.13300  0.62670  0.23700  Biso   1.000  C
  H92      1.0000 0.14530  0.63800  0.19640  Biso   1.000  H
  C129     1.0000 0.16290  0.65330  0.28890  Biso   1.000  C
  C130     1.0000 0.14460  0.63640  0.34960  Biso   1.000  C
  H93      1.0000 0.16460  0.65420  0.38440  Biso   1.000  H
  C131     1.0000 0.09640  0.59270  0.35830  Biso   1.000  C
  H94      1.0000 0.08420  0.58140  0.39890  Biso   1.000  H
  C132     1.0000 0.21380  0.68980  0.27890  Biso   1.000  C
  C133     1.0000 0.22910  0.73960  0.31870  Biso   1.000  C
  H95      1.0000 0.20460  0.74370  0.35490  Biso   1.000  H
  N20      1.0000 0.06660  0.43400  0.69360  Biso   1.000  N
  C134     1.0000 0.08490  0.41700  0.75430  Biso   1.000  C
  H96      1.0000 0.06490  0.43490  0.78910  Biso   1.000  H
  C135     1.0000 0.13300  0.37330  0.76300  Biso   1.000  C
  H97      1.0000 0.14530  0.36200  0.80360  Biso   1.000  H
  C136     1.0000 0.16290  0.34670  0.71110  Biso   1.000  C
  C137     1.0000 0.14460  0.36360  0.65040  Biso   1.000  C
  H98      1.0000 0.16460  0.34580  0.61560  Biso   1.000  H
  C138     1.0000 0.09640  0.40730  0.64170  Biso   1.000  C
  H99      1.0000 0.08420  0.41860  0.60110  Biso   1.000  H
  C139     1.0000 0.21380  0.31020  0.72110  Biso   1.000  C
  C140     1.0000 0.22910  0.26040  0.68130  Biso   1.000  C
  H100     1.0000 0.20460  0.25630  0.64510  Biso   1.000  H
  N21      1.0000 0.30640  0.93340  0.43400  Biso   1.000  N
  C141     1.0000 0.24570  0.91510  0.41700  Biso   1.000  C
  H101     1.0000 0.21090  0.93510  0.43490  Biso   1.000  H
  C142     1.0000 0.23700  0.86700  0.37330  Biso   1.000  C
  H102     1.0000 0.19640  0.85470  0.36200  Biso   1.000  H
  C143     1.0000 0.28890  0.83710  0.34670  Biso   1.000  C
  C144     1.0000 0.34960  0.85540  0.36360  Biso   1.000  C
  H103     1.0000 0.38440  0.83540  0.34580  Biso   1.000  H
  C145     1.0000 0.35830  0.90360  0.40730  Biso   1.000  C
  H104     1.0000 0.39890  0.91580  0.41860  Biso   1.000  H
  C146     1.0000 0.27890  0.78620  0.31020  Biso   1.000  C
  C147     1.0000 0.31870  0.77090  0.26040  Biso   1.000  C
  H105     1.0000 0.35490  0.79540  0.25630  Biso   1.000  H
  N22      1.0000 0.69360  0.93340  0.56600  Biso   1.000  N
  C148     1.0000 0.75430  0.91510  0.58300  Biso   1.000  C
  H106     1.0000 0.78910  0.93510  0.56510  Biso   1.000  H
  C149     1.0000 0.76300  0.86700  0.62670  Biso   1.000  C
  H107     1.0000 0.80360  0.85470  0.63800  Biso   1.000  H
  C150     1.0000 0.71110  0.83710  0.65330  Biso   1.000  C
  C151     1.0000 0.65040  0.85540  0.63640  Biso   1.000  C
  H108     1.0000 0.61560  0.83540  0.65420  Biso   1.000  H
  C152     1.0000 0.64170  0.90360  0.59270  Biso   1.000  C
  H109     1.0000 0.60110  0.91580  0.58140  Biso   1.000  H
  C153     1.0000 0.72110  0.78620  0.68980  Biso   1.000  C
  C154     1.0000 0.68130  0.77090  0.73960  Biso   1.000  C
  H110     1.0000 0.64510  0.79540  0.74370  Biso   1.000  H
  N23      1.0000 0.30640  0.06660  0.56600  Biso   1.000  N
  C155     1.0000 0.24570  0.08490  0.58300  Biso   1.000  C
  H111     1.0000 0.21090  0.06490  0.56510  Biso   1.000  H
  C156     1.0000 0.23700  0.13300  0.62670  Biso   1.000  C
  H112     1.0000 0.19640  0.14530  0.63800  Biso   1.000  H
  C157     1.0000 0.28890  0.16290  0.65330  Biso   1.000  C
  C158     1.0000 0.34960  0.14460  0.63640  Biso   1.000  C
  H113     1.0000 0.38440  0.16460  0.65420  Biso   1.000  H
  C159     1.0000 0.35830  0.09640  0.59270  Biso   1.000  C
  H114     1.0000 0.39890  0.08420  0.58140  Biso   1.000  H
  C160     1.0000 0.27890  0.21380  0.68980  Biso   1.000  C
  C161     1.0000 0.31870  0.22910  0.73960  Biso   1.000  C
  H115     1.0000 0.35490  0.20460  0.74370  Biso   1.000  H
  N24      1.0000 0.69360  0.06660  0.43400  Biso   1.000  N
  C162     1.0000 0.75430  0.08490  0.41700  Biso   1.000  C
  H116     1.0000 0.78910  0.06490  0.43490  Biso   1.000  H
  C163     1.0000 0.76300  0.13300  0.37330  Biso   1.000  C
  H117     1.0000 0.80360  0.14530  0.36200  Biso   1.000  H
  C164     1.0000 0.71110  0.16290  0.34670  Biso   1.000  C
  C165     1.0000 0.65040  0.14460  0.36360  Biso   1.000  C
  H118     1.0000 0.61560  0.16460  0.34580  Biso   1.000  H
  C166     1.0000 0.64170  0.09640  0.40730  Biso   1.000  C
  H119     1.0000 0.60110  0.08420  0.41860  Biso   1.000  H
  C167     1.0000 0.72110  0.21380  0.31020  Biso   1.000  C
  C168     1.0000 0.68130  0.22910  0.26040  Biso   1.000  C
  H120     1.0000 0.64510  0.20460  0.25630  Biso   1.000  H
  Cu1      1.0000 0.50000  0.68697  0.00000  Biso   1.000  Cu
  Cu2      1.0000 0.50000  0.31303  0.00000  Biso   1.000  Cu
  Cu3      1.0000 0.00000  0.50000  0.68697  Biso   1.000  Cu
  Cu4      1.0000 0.00000  0.50000  0.31303  Biso   1.000  Cu
  Cu5      1.0000 0.68697  0.00000  0.50000  Biso   1.000  Cu
  Cu6      1.0000 0.31303  0.00000  0.50000  Biso   1.000  Cu
