data_image0
_cell_length_a       10.799
_cell_length_b       10.799
_cell_length_c       20.897
_cell_angle_alpha    90
_cell_angle_beta     90
_cell_angle_gamma    90

_symmetry_space_group_name_H-M    "P 1"
_symmetry_int_tables_number       1

loop_
  _symmetry_equiv_pos_as_xyz
  'x, y, z'

loop_
  _atom_site_label
  _atom_site_occupancy
  _atom_site_fract_x
  _atom_site_fract_y
  _atom_site_fract_z
  _atom_site_thermal_displace_type
  _atom_site_B_iso_or_equiv
  _atom_site_type_symbol
  O1       1.0000 0.53870  0.11940  0.64460  Biso   1.000  O
  N1       1.0000 0.28970  0.05020  0.70780  Biso   1.000  N
  C1       1.0000 0.98490  0.11650  0.66700  Biso   1.000  C
  N2       1.0000 0.97470  0.17440  0.62170  Biso   1.000  N
  N3       1.0000 0.53650  0.11400  0.77870  Biso   1.000  N
  C2       1.0000 0.19400  0.03020  0.72100  Biso   1.000  C
  C3       1.0000 0.60880  0.21850  0.65380  Biso   1.000  C
  C4       1.0000 0.64330  0.26330  0.71160  Biso   1.000  C
  H1       1.0000 0.71900  0.35100  0.70800  Biso   1.000  H
  C5       1.0000 0.65120  0.28050  0.59290  Biso   1.000  C
  H2       1.0000 0.61800  0.23690  0.55670  Biso   1.000  H
  H3       1.0000 0.74000  0.27930  0.59090  Biso   1.000  H
  H4       1.0000 0.62260  0.36460  0.59230  Biso   1.000  H
  C6       1.0000 0.60190  0.21960  0.77150  Biso   1.000  C
  C7       1.0000 0.63360  0.29490  0.83080  Biso   1.000  C
  H5       1.0000 0.60010  0.25480  0.86790  Biso   1.000  H
  H6       1.0000 0.59870  0.37630  0.82690  Biso   1.000  H
  H7       1.0000 0.72190  0.30110  0.83490  Biso   1.000  H
  C8       1.0000 0.49570  0.06050  0.83920  Biso   1.000  C
  H8       1.0000 0.54590  0.09380  0.87370  Biso   1.000  H
  H9       1.0000 0.41040  0.08420  0.84710  Biso   1.000  H
  O2       1.0000 0.46130  0.88060  0.64460  Biso   1.000  O
  N4       1.0000 0.71030  0.94980  0.70780  Biso   1.000  N
  C9       1.0000 0.01510  0.88350  0.66700  Biso   1.000  C
  N5       1.0000 0.02530  0.82560  0.62170  Biso   1.000  N
  N6       1.0000 0.46350  0.88600  0.77870  Biso   1.000  N
  C10      1.0000 0.80600  0.96980  0.72100  Biso   1.000  C
  C11      1.0000 0.39120  0.78150  0.65380  Biso   1.000  C
  C12      1.0000 0.35670  0.73670  0.71160  Biso   1.000  C
  H10      1.0000 0.28100  0.64900  0.70800  Biso   1.000  H
  C13      1.0000 0.34880  0.71950  0.59290  Biso   1.000  C
  H11      1.0000 0.38200  0.76310  0.55670  Biso   1.000  H
  H12      1.0000 0.26000  0.72070  0.59090  Biso   1.000  H
  H13      1.0000 0.37740  0.63540  0.59230  Biso   1.000  H
  C14      1.0000 0.39810  0.78040  0.77150  Biso   1.000  C
  C15      1.0000 0.36640  0.70510  0.83080  Biso   1.000  C
  H14      1.0000 0.39990  0.74520  0.86790  Biso   1.000  H
  H15      1.0000 0.40130  0.62370  0.82690  Biso   1.000  H
  H16      1.0000 0.27810  0.69890  0.83490  Biso   1.000  H
  C16      1.0000 0.50430  0.93950  0.83920  Biso   1.000  C
  H17      1.0000 0.45410  0.90620  0.87370  Biso   1.000  H
  H18      1.0000 0.58960  0.91580  0.84710  Biso   1.000  H
  O3       1.0000 0.88060  0.53870  0.14460  Biso   1.000  O
  N7       1.0000 0.94980  0.28970  0.20780  Biso   1.000  N
  C17      1.0000 0.88350  0.98490  0.16700  Biso   1.000  C
  N8       1.0000 0.82560  0.97470  0.12170  Biso   1.000  N
  N9       1.0000 0.88600  0.53650  0.27870  Biso   1.000  N
  C18      1.0000 0.96980  0.19400  0.22100  Biso   1.000  C
  C19      1.0000 0.78150  0.60880  0.15380  Biso   1.000  C
  C20      1.0000 0.73670  0.64330  0.21160  Biso   1.000  C
  H19      1.0000 0.64900  0.71900  0.20800  Biso   1.000  H
  C21      1.0000 0.71950  0.65120  0.09290  Biso   1.000  C
  H20      1.0000 0.76310  0.61800  0.05670  Biso   1.000  H
  H21      1.0000 0.72070  0.74000  0.09090  Biso   1.000  H
  H22      1.0000 0.63540  0.62260  0.09230  Biso   1.000  H
  C22      1.0000 0.78040  0.60190  0.27150  Biso   1.000  C
  C23      1.0000 0.70510  0.63360  0.33080  Biso   1.000  C
  H23      1.0000 0.74520  0.60010  0.36790  Biso   1.000  H
  H24      1.0000 0.62370  0.59870  0.32690  Biso   1.000  H
  H25      1.0000 0.69890  0.72190  0.33490  Biso   1.000  H
  C24      1.0000 0.93950  0.49570  0.33920  Biso   1.000  C
  H26      1.0000 0.90620  0.54590  0.37370  Biso   1.000  H
  H27      1.0000 0.91580  0.41040  0.34710  Biso   1.000  H
  O4       1.0000 0.11940  0.46130  0.14460  Biso   1.000  O
  N10      1.0000 0.05020  0.71030  0.20780  Biso   1.000  N
  C25      1.0000 0.11650  0.01510  0.16700  Biso   1.000  C
  N11      1.0000 0.17440  0.02530  0.12170  Biso   1.000  N
  N12      1.0000 0.11400  0.46350  0.27870  Biso   1.000  N
  C26      1.0000 0.03020  0.80600  0.22100  Biso   1.000  C
  C27      1.0000 0.21850  0.39120  0.15380  Biso   1.000  C
  C28      1.0000 0.26330  0.35670  0.21160  Biso   1.000  C
  H28      1.0000 0.35100  0.28100  0.20800  Biso   1.000  H
  C29      1.0000 0.28050  0.34880  0.09290  Biso   1.000  C
  H29      1.0000 0.23690  0.38200  0.05670  Biso   1.000  H
  H30      1.0000 0.27930  0.26000  0.09090  Biso   1.000  H
  H31      1.0000 0.36460  0.37740  0.09230  Biso   1.000  H
  C30      1.0000 0.21960  0.39810  0.27150  Biso   1.000  C
  C31      1.0000 0.29490  0.36640  0.33080  Biso   1.000  C
  H32      1.0000 0.25480  0.39990  0.36790  Biso   1.000  H
  H33      1.0000 0.37630  0.40130  0.32690  Biso   1.000  H
  H34      1.0000 0.30110  0.27810  0.33490  Biso   1.000  H
  C32      1.0000 0.06050  0.50430  0.33920  Biso   1.000  C
  H35      1.0000 0.09380  0.45410  0.37370  Biso   1.000  H
  H36      1.0000 0.08420  0.58960  0.34710  Biso   1.000  H
  O5       1.0000 0.46130  0.88060  0.35540  Biso   1.000  O
  N13      1.0000 0.71030  0.94980  0.29220  Biso   1.000  N
  C33      1.0000 0.01510  0.88350  0.33300  Biso   1.000  C
  N14      1.0000 0.02530  0.82560  0.37830  Biso   1.000  N
  N15      1.0000 0.46350  0.88600  0.22130  Biso   1.000  N
  C34      1.0000 0.80600  0.96980  0.27900  Biso   1.000  C
  C35      1.0000 0.39120  0.78150  0.34620  Biso   1.000  C
  C36      1.0000 0.35670  0.73670  0.28840  Biso   1.000  C
  H37      1.0000 0.28100  0.64900  0.29200  Biso   1.000  H
  C37      1.0000 0.34880  0.71950  0.40710  Biso   1.000  C
  H38      1.0000 0.38200  0.76310  0.44330  Biso   1.000  H
  H39      1.0000 0.26000  0.72070  0.40910  Biso   1.000  H
  H40      1.0000 0.37740  0.63540  0.40770  Biso   1.000  H
  C38      1.0000 0.39810  0.78040  0.22850  Biso   1.000  C
  C39      1.0000 0.36640  0.70510  0.16920  Biso   1.000  C
  H41      1.0000 0.39990  0.74520  0.13210  Biso   1.000  H
  H42      1.0000 0.40130  0.62370  0.17310  Biso   1.000  H
  H43      1.0000 0.27810  0.69890  0.16510  Biso   1.000  H
  C40      1.0000 0.50430  0.93950  0.16080  Biso   1.000  C
  H44      1.0000 0.45410  0.90620  0.12630  Biso   1.000  H
  H45      1.0000 0.58960  0.91580  0.15290  Biso   1.000  H
  O6       1.0000 0.53870  0.11940  0.35540  Biso   1.000  O
  N16      1.0000 0.28970  0.05020  0.29220  Biso   1.000  N
  C41      1.0000 0.98490  0.11650  0.33300  Biso   1.000  C
  N17      1.0000 0.97470  0.17440  0.37830  Biso   1.000  N
  N18      1.0000 0.53650  0.11400  0.22130  Biso   1.000  N
  C42      1.0000 0.19400  0.03020  0.27900  Biso   1.000  C
  C43      1.0000 0.60880  0.21850  0.34620  Biso   1.000  C
  C44      1.0000 0.64330  0.26330  0.28840  Biso   1.000  C
  H46      1.0000 0.71900  0.35100  0.29200  Biso   1.000  H
  C45      1.0000 0.65120  0.28050  0.40710  Biso   1.000  C
  H47      1.0000 0.61800  0.23690  0.44330  Biso   1.000  H
  H48      1.0000 0.74000  0.27930  0.40910  Biso   1.000  H
  H49      1.0000 0.62260  0.36460  0.40770  Biso   1.000  H
  C46      1.0000 0.60190  0.21960  0.22850  Biso   1.000  C
  C47      1.0000 0.63360  0.29490  0.16920  Biso   1.000  C
  H50      1.0000 0.60010  0.25480  0.13210  Biso   1.000  H
  H51      1.0000 0.59870  0.37630  0.17310  Biso   1.000  H
  H52      1.0000 0.72190  0.30110  0.16510  Biso   1.000  H
  C48      1.0000 0.49570  0.06050  0.16080  Biso   1.000  C
  H53      1.0000 0.54590  0.09380  0.12630  Biso   1.000  H
  H54      1.0000 0.41040  0.08420  0.15290  Biso   1.000  H
  O7       1.0000 0.11940  0.46130  0.85540  Biso   1.000  O
  N19      1.0000 0.05020  0.71030  0.79220  Biso   1.000  N
  C49      1.0000 0.11650  0.01510  0.83300  Biso   1.000  C
  N20      1.0000 0.17440  0.02530  0.87830  Biso   1.000  N
  N21      1.0000 0.11400  0.46350  0.72130  Biso   1.000  N
  C50      1.0000 0.03020  0.80600  0.77900  Biso   1.000  C
  C51      1.0000 0.21850  0.39120  0.84620  Biso   1.000  C
  C52      1.0000 0.26330  0.35670  0.78840  Biso   1.000  C
  H55      1.0000 0.35100  0.28100  0.79200  Biso   1.000  H
  C53      1.0000 0.28050  0.34880  0.90710  Biso   1.000  C
  H56      1.0000 0.23690  0.38200  0.94330  Biso   1.000  H
  H57      1.0000 0.27930  0.26000  0.90910  Biso   1.000  H
  H58      1.0000 0.36460  0.37740  0.90770  Biso   1.000  H
  C54      1.0000 0.21960  0.39810  0.72850  Biso   1.000  C
  C55      1.0000 0.29490  0.36640  0.66920  Biso   1.000  C
  H59      1.0000 0.25480  0.39990  0.63210  Biso   1.000  H
  H60      1.0000 0.37630  0.40130  0.67310  Biso   1.000  H
  H61      1.0000 0.30110  0.27810  0.66510  Biso   1.000  H
  C56      1.0000 0.06050  0.50430  0.66080  Biso   1.000  C
  H62      1.0000 0.09380  0.45410  0.62630  Biso   1.000  H
  H63      1.0000 0.08420  0.58960  0.65290  Biso   1.000  H
  O8       1.0000 0.88060  0.53870  0.85540  Biso   1.000  O
  N22      1.0000 0.94980  0.28970  0.79220  Biso   1.000  N
  C57      1.0000 0.88350  0.98490  0.83300  Biso   1.000  C
  N23      1.0000 0.82560  0.97470  0.87830  Biso   1.000  N
  N24      1.0000 0.88600  0.53650  0.72130  Biso   1.000  N
  C58      1.0000 0.96980  0.19400  0.77900  Biso   1.000  C
  C59      1.0000 0.78150  0.60880  0.84620  Biso   1.000  C
  C60      1.0000 0.73670  0.64330  0.78840  Biso   1.000  C
  H64      1.0000 0.64900  0.71900  0.79200  Biso   1.000  H
  C61      1.0000 0.71950  0.65120  0.90710  Biso   1.000  C
  H65      1.0000 0.76310  0.61800  0.94330  Biso   1.000  H
  H66      1.0000 0.72070  0.74000  0.90910  Biso   1.000  H
  H67      1.0000 0.63540  0.62260  0.90770  Biso   1.000  H
  C62      1.0000 0.78040  0.60190  0.72850  Biso   1.000  C
  C63      1.0000 0.70510  0.63360  0.66920  Biso   1.000  C
  H68      1.0000 0.74520  0.60010  0.63210  Biso   1.000  H
  H69      1.0000 0.62370  0.59870  0.67310  Biso   1.000  H
  H70      1.0000 0.69890  0.72190  0.66510  Biso   1.000  H
  C64      1.0000 0.93950  0.49570  0.66080  Biso   1.000  C
  H71      1.0000 0.90620  0.54590  0.62630  Biso   1.000  H
  H72      1.0000 0.91580  0.41040  0.65290  Biso   1.000  H
  W1       1.0000 0.00000  0.00000  0.75000  Biso   1.000  W
  W2       1.0000 0.00000  0.00000  0.25000  Biso   1.000  W
  Mn1      1.0000 0.50000  0.00000  0.70668  Biso   1.000  Mn
  Mn2      1.0000 0.00000  0.50000  0.20668  Biso   1.000  Mn
  Mn3      1.0000 0.50000  0.00000  0.29332  Biso   1.000  Mn
  Mn4      1.0000 0.00000  0.50000  0.79332  Biso   1.000  Mn
  O9       1.0000 0.83500  0.52500  0.50000  Biso   1.000  O
  K1       1.0000 0.97030  0.29930  0.50000  Biso   1.000  K
  O10      1.0000 0.16500  0.47500  0.50000  Biso   1.000  O
  K2       1.0000 0.02970  0.70070  0.50000  Biso   1.000  K
  O11      1.0000 0.47500  0.83500  0.00000  Biso   1.000  O
  K3       1.0000 0.70070  0.97030  0.00000  Biso   1.000  K
  O12      1.0000 0.52500  0.16500  0.00000  Biso   1.000  O
  K4       1.0000 0.29930  0.02970  0.00000  Biso   1.000  K
