data_WAJLEA_charged
_audit_creation_date              2014-07-02
_audit_creation_method            'Materials Studio'
_symmetry_space_group_name_H-M    'P1'
_symmetry_Int_Tables_number       1
_symmetry_cell_setting            triclinic
loop_
_symmetry_equiv_pos_as_xyz
  x,y,z
_cell_length_a                    16.0231
_cell_length_b                    16.0231
_cell_length_c                    18.5200
_cell_angle_alpha                 90.0000
_cell_angle_beta                  90.0000
_cell_angle_gamma                 120.0000
loop_
_atom_site_label
_atom_site_type_symbol
_atom_site_fract_x
_atom_site_fract_y
_atom_site_fract_z
_atom_site_U_iso_or_equiv
_atom_site_adp_type
_atom_site_occupancy
Cr1    Cr    0.56327   0.56327   0.83333   0.01267  Uiso   1.00
Cr2    Cr    0.00000   0.43673   0.16667   0.01267  Uiso   1.00
Cr3    Cr    0.43673   1.00000   0.50000   0.01267  Uiso   1.00
Co1    Co    0.78060   0.50322   0.00233   0.01267  Uiso   1.00
Co2    Co    0.72262   0.21940   0.33566   0.01267  Uiso   1.00
Co3    Co    0.49678   0.27738   0.66900   0.01267  Uiso   1.00
Co4    Co    0.27738   0.49678   0.99767   0.01267  Uiso   1.00
Co5    Co    0.50322   0.78060   0.66434   0.01267  Uiso   1.00
Co6    Co    0.21940   0.72262   0.33100   0.01267  Uiso   1.00
H1     H     0.02320   0.61830   0.75090   0.01267  Uiso   1.00
H2     H     0.98370   0.72210   0.80310   0.01267  Uiso   1.00
H3     H     0.89010   0.82660   0.93810   0.01267  Uiso   1.00
H4     H     0.88050   0.79080   0.85630   0.01267  Uiso   1.00
H5     H     0.98110   0.83220   0.89780   0.01267  Uiso   1.00
H6     H     0.66270   0.63810   0.08040   0.01267  Uiso   1.00
H7     H     0.62170   0.49180   0.17600   0.01267  Uiso   1.00
H8     H     0.58040   0.45460   0.09660   0.01267  Uiso   1.00
H9     H     0.75060   0.30740   0.10190   0.01267  Uiso   1.00
H10    H     0.63740   0.23490   0.09010   0.01267  Uiso   1.00
H11    H     0.80220   0.23830   0.91350   0.01267  Uiso   1.00
H12    H     0.91120   0.31410   0.89220   0.01267  Uiso   1.00
H13    H     0.82690   0.28370   0.83410   0.01267  Uiso   1.00
H14    H     0.95830   0.45510   0.79680   0.01267  Uiso   1.00
H15    H     0.59510   0.97680   0.08423   0.01267  Uiso   1.00
H16    H     0.73840   0.01630   0.13643   0.01267  Uiso   1.00
H17    H     0.93650   0.10990   0.27143   0.01267  Uiso   1.00
H18    H     0.91030   0.11950   0.18963   0.01267  Uiso   1.00
H19    H     0.85110   0.01890   0.23113   0.01267  Uiso   1.00
H20    H     0.97540   0.33730   0.41373   0.01267  Uiso   1.00
H21    H     0.87010   0.37830   0.50933   0.01267  Uiso   1.00
H22    H     0.87420   0.41960   0.42993   0.01267  Uiso   1.00
H23    H     0.55680   0.24940   0.43523   0.01267  Uiso   1.00
H24    H     0.59750   0.36260   0.42343   0.01267  Uiso   1.00
H25    H     0.43610   0.19780   0.24683   0.01267  Uiso   1.00
H26    H     0.40290   0.08880   0.22553   0.01267  Uiso   1.00
H27    H     0.45680   0.17310   0.16743   0.01267  Uiso   1.00
H28    H     0.49680   0.04170   0.13013   0.01267  Uiso   1.00
H29    H     0.38170   0.40490   0.41757   0.01267  Uiso   1.00
H30    H     0.27790   0.26160   0.46977   0.01267  Uiso   1.00
H31    H     0.17340   0.06350   0.60477   0.01267  Uiso   1.00
H32    H     0.20920   0.08970   0.52297   0.01267  Uiso   1.00
H33    H     0.16780   0.14890   0.56447   0.01267  Uiso   1.00
H34    H     0.36190   0.02460   0.74707   0.01267  Uiso   1.00
H35    H     0.50820   0.12990   0.84267   0.01267  Uiso   1.00
H36    H     0.54540   0.12580   0.76327   0.01267  Uiso   1.00
H37    H     0.69260   0.44320   0.76857   0.01267  Uiso   1.00
H38    H     0.76510   0.40250   0.75677   0.01267  Uiso   1.00
H39    H     0.76170   0.56390   0.58017   0.01267  Uiso   1.00
H40    H     0.68590   0.59710   0.55887   0.01267  Uiso   1.00
H41    H     0.71630   0.54320   0.50077   0.01267  Uiso   1.00
H42    H     0.54490   0.50320   0.46347   0.01267  Uiso   1.00
H43    H     0.40490   0.38170   0.24910   0.01267  Uiso   1.00
H44    H     0.26160   0.27790   0.19690   0.01267  Uiso   1.00
H45    H     0.06350   0.17340   0.06190   0.01267  Uiso   1.00
H46    H     0.08970   0.20920   0.14370   0.01267  Uiso   1.00
H47    H     0.14890   0.16780   0.10220   0.01267  Uiso   1.00
H48    H     0.02460   0.36190   0.91960   0.01267  Uiso   1.00
H49    H     0.12990   0.50820   0.82400   0.01267  Uiso   1.00
H50    H     0.12580   0.54540   0.90340   0.01267  Uiso   1.00
H51    H     0.44320   0.69260   0.89810   0.01267  Uiso   1.00
H52    H     0.40250   0.76510   0.90990   0.01267  Uiso   1.00
H53    H     0.56390   0.76170   0.08650   0.01267  Uiso   1.00
H54    H     0.59710   0.68590   0.10780   0.01267  Uiso   1.00
H55    H     0.54320   0.71630   0.16590   0.01267  Uiso   1.00
H56    H     0.50320   0.54490   0.20320   0.01267  Uiso   1.00
H57    H     0.61830   0.02320   0.91577   0.01267  Uiso   1.00
H58    H     0.72210   0.98370   0.86357   0.01267  Uiso   1.00
H59    H     0.82660   0.89010   0.72857   0.01267  Uiso   1.00
H60    H     0.79080   0.88050   0.81037   0.01267  Uiso   1.00
H61    H     0.83220   0.98110   0.76887   0.01267  Uiso   1.00
H62    H     0.63810   0.66270   0.58627   0.01267  Uiso   1.00
H63    H     0.49180   0.62170   0.49067   0.01267  Uiso   1.00
H64    H     0.45460   0.58040   0.57007   0.01267  Uiso   1.00
H65    H     0.30740   0.75060   0.56477   0.01267  Uiso   1.00
H66    H     0.23490   0.63740   0.57657   0.01267  Uiso   1.00
H67    H     0.23830   0.80220   0.75317   0.01267  Uiso   1.00
H68    H     0.31410   0.91120   0.77447   0.01267  Uiso   1.00
H69    H     0.28370   0.82690   0.83257   0.01267  Uiso   1.00
H70    H     0.45510   0.95830   0.86987   0.01267  Uiso   1.00
H71    H     0.97680   0.59510   0.58243   0.01267  Uiso   1.00
H72    H     0.01630   0.73840   0.53023   0.01267  Uiso   1.00
H73    H     0.10990   0.93650   0.39523   0.01267  Uiso   1.00
H74    H     0.11950   0.91030   0.47703   0.01267  Uiso   1.00
H75    H     0.01890   0.85110   0.43553   0.01267  Uiso   1.00
H76    H     0.33730   0.97540   0.25293   0.01267  Uiso   1.00
H77    H     0.37830   0.87010   0.15733   0.01267  Uiso   1.00
H78    H     0.41960   0.87420   0.23673   0.01267  Uiso   1.00
H79    H     0.24940   0.55680   0.23143   0.01267  Uiso   1.00
H80    H     0.36260   0.59750   0.24323   0.01267  Uiso   1.00
H81    H     0.19780   0.43610   0.41983   0.01267  Uiso   1.00
H82    H     0.08880   0.40290   0.44113   0.01267  Uiso   1.00
H83    H     0.17310   0.45680   0.49923   0.01267  Uiso   1.00
H84    H     0.04170   0.49680   0.53653   0.01267  Uiso   1.00
C1     C     0.62210   0.50570   0.90330   0.01267  Uiso   1.00
C2     C     0.43990   0.50720   0.89460   0.01267  Uiso   1.00
C3     C     0.62280   0.68810   0.89480   0.01267  Uiso   1.00
C4     C     0.98200   0.59810   0.79180   0.01267  Uiso   1.00
C5     C     0.96090   0.65970   0.82310   0.01267  Uiso   1.00
C6     C     0.90580   0.63250   0.88480   0.01267  Uiso   1.00
C7     C     0.88100   0.69280   0.92980   0.01267  Uiso   1.00
C8     C     0.91090   0.79490   0.90300   0.01267  Uiso   1.00
C9     C     0.80880   0.70530   0.04170   0.01267  Uiso   1.00
C10    C     0.71900   0.63320   0.07470   0.01267  Uiso   1.00
C11    C     0.63610   0.47250   0.12900   0.01267  Uiso   1.00
C12    C     0.64670   0.39610   0.13860   0.01267  Uiso   1.00
C13    C     0.69430   0.29380   0.07160   0.01267  Uiso   1.00
C14    C     0.71200   0.28050   0.99840   0.01267  Uiso   1.00
C15    C     0.82940   0.37670   0.91010   0.01267  Uiso   1.00
C16    C     0.84360   0.29630   0.88530   0.01267  Uiso   1.00
C17    C     0.88410   0.47520   0.87790   0.01267  Uiso   1.00
C18    C     0.94320   0.49940   0.81890   0.01267  Uiso   1.00
C19    C     0.88360   0.37790   0.23663   0.01267  Uiso   1.00
C20    C     0.06730   0.56010   0.22793   0.01267  Uiso   1.00
C21    C     0.06530   0.37720   0.22813   0.01267  Uiso   1.00
C22    C     0.61610   0.01800   0.12513   0.01267  Uiso   1.00
C23    C     0.69880   0.03910   0.15643   0.01267  Uiso   1.00
C24    C     0.72670   0.09420   0.21813   0.01267  Uiso   1.00
C25    C     0.81180   0.11900   0.26313   0.01267  Uiso   1.00
C26    C     0.88400   0.08910   0.23633   0.01267  Uiso   1.00
C27    C     0.89650   0.19120   0.37503   0.01267  Uiso   1.00
C28    C     0.91420   0.28100   0.40803   0.01267  Uiso   1.00
C29    C     0.83640   0.36390   0.46233   0.01267  Uiso   1.00
C30    C     0.74940   0.35330   0.47193   0.01267  Uiso   1.00
C31    C     0.59950   0.30570   0.40493   0.01267  Uiso   1.00
C32    C     0.56850   0.28800   0.33173   0.01267  Uiso   1.00
C33    C     0.54730   0.17060   0.24343   0.01267  Uiso   1.00
C34    C     0.45270   0.15640   0.21863   0.01267  Uiso   1.00
C35    C     0.59110   0.11590   0.21123   0.01267  Uiso   1.00
C36    C     0.55620   0.05680   0.15223   0.01267  Uiso   1.00
C37    C     0.49430   0.11640   0.56997   0.01267  Uiso   1.00
C38    C     0.49280   0.93270   0.56127   0.01267  Uiso   1.00
C39    C     0.31190   0.93470   0.56147   0.01267  Uiso   1.00
C40    C     0.40190   0.38390   0.45847   0.01267  Uiso   1.00
C41    C     0.34030   0.30120   0.48977   0.01267  Uiso   1.00
C42    C     0.36750   0.27330   0.55147   0.01267  Uiso   1.00
C43    C     0.30720   0.18820   0.59647   0.01267  Uiso   1.00
C44    C     0.20510   0.11600   0.56967   0.01267  Uiso   1.00
C45    C     0.29470   0.10350   0.70837   0.01267  Uiso   1.00
C46    C     0.36680   0.08580   0.74137   0.01267  Uiso   1.00
C47    C     0.52750   0.16360   0.79567   0.01267  Uiso   1.00
C48    C     0.60390   0.25060   0.80527   0.01267  Uiso   1.00
C49    C     0.70620   0.40050   0.73827   0.01267  Uiso   1.00
C50    C     0.71950   0.43150   0.66507   0.01267  Uiso   1.00
C51    C     0.62330   0.45270   0.57677   0.01267  Uiso   1.00
C52    C     0.70370   0.54730   0.55197   0.01267  Uiso   1.00
C53    C     0.52480   0.40890   0.54457   0.01267  Uiso   1.00
C54    C     0.50060   0.44380   0.48557   0.01267  Uiso   1.00
C55    C     0.11640   0.49430   0.09670   0.01267  Uiso   1.00
C56    C     0.93270   0.49280   0.10540   0.01267  Uiso   1.00
C57    C     0.93470   0.31190   0.10520   0.01267  Uiso   1.00
C58    C     0.38390   0.40190   0.20820   0.01267  Uiso   1.00
C59    C     0.30120   0.34030   0.17690   0.01267  Uiso   1.00
C60    C     0.27330   0.36750   0.11520   0.01267  Uiso   1.00
C61    C     0.18820   0.30720   0.07020   0.01267  Uiso   1.00
C62    C     0.11600   0.20510   0.09700   0.01267  Uiso   1.00
C63    C     0.10350   0.29470   0.95830   0.01267  Uiso   1.00
C64    C     0.08580   0.36680   0.92530   0.01267  Uiso   1.00
C65    C     0.16360   0.52750   0.87100   0.01267  Uiso   1.00
C66    C     0.25060   0.60390   0.86140   0.01267  Uiso   1.00
C67    C     0.40050   0.70620   0.92840   0.01267  Uiso   1.00
C68    C     0.43150   0.71950   0.00160   0.01267  Uiso   1.00
C69    C     0.45270   0.62330   0.08990   0.01267  Uiso   1.00
C70    C     0.54730   0.70370   0.11470   0.01267  Uiso   1.00
C71    C     0.40890   0.52480   0.12210   0.01267  Uiso   1.00
C72    C     0.44380   0.50060   0.18110   0.01267  Uiso   1.00
C73    C     0.50570   0.62210   0.76337   0.01267  Uiso   1.00
C74    C     0.50720   0.43990   0.77207   0.01267  Uiso   1.00
C75    C     0.68810   0.62280   0.77187   0.01267  Uiso   1.00
C76    C     0.59810   0.98200   0.87487   0.01267  Uiso   1.00
C77    C     0.65970   0.96090   0.84357   0.01267  Uiso   1.00
C78    C     0.63250   0.90580   0.78187   0.01267  Uiso   1.00
C79    C     0.69280   0.88100   0.73687   0.01267  Uiso   1.00
C80    C     0.79490   0.91090   0.76367   0.01267  Uiso   1.00
C81    C     0.70530   0.80880   0.62497   0.01267  Uiso   1.00
C82    C     0.63320   0.71900   0.59197   0.01267  Uiso   1.00
C83    C     0.47250   0.63610   0.53767   0.01267  Uiso   1.00
C84    C     0.39610   0.64670   0.52807   0.01267  Uiso   1.00
C85    C     0.29380   0.69430   0.59507   0.01267  Uiso   1.00
C86    C     0.28050   0.71200   0.66827   0.01267  Uiso   1.00
C87    C     0.37670   0.82940   0.75657   0.01267  Uiso   1.00
C88    C     0.29630   0.84360   0.78137   0.01267  Uiso   1.00
C89    C     0.47520   0.88410   0.78877   0.01267  Uiso   1.00
C90    C     0.49940   0.94320   0.84777   0.01267  Uiso   1.00
C91    C     0.37790   0.88360   0.43003   0.01267  Uiso   1.00
C92    C     0.56010   0.06730   0.43873   0.01267  Uiso   1.00
C93    C     0.37720   0.06530   0.43853   0.01267  Uiso   1.00
C94    C     0.01800   0.61610   0.54153   0.01267  Uiso   1.00
C95    C     0.03910   0.69880   0.51023   0.01267  Uiso   1.00
C96    C     0.09420   0.72670   0.44853   0.01267  Uiso   1.00
C97    C     0.11900   0.81180   0.40353   0.01267  Uiso   1.00
C98    C     0.08910   0.88400   0.43033   0.01267  Uiso   1.00
C99    C     0.19120   0.89650   0.29163   0.01267  Uiso   1.00
C100   C     0.28100   0.91420   0.25863   0.01267  Uiso   1.00
C101   C     0.36390   0.83640   0.20433   0.01267  Uiso   1.00
C102   C     0.35330   0.74940   0.19473   0.01267  Uiso   1.00
C103   C     0.30570   0.59950   0.26173   0.01267  Uiso   1.00
C104   C     0.28800   0.56850   0.33493   0.01267  Uiso   1.00
C105   C     0.17060   0.54730   0.42323   0.01267  Uiso   1.00
C106   C     0.15640   0.45270   0.44803   0.01267  Uiso   1.00
C107   C     0.11590   0.59110   0.45543   0.01267  Uiso   1.00
C108   C     0.05680   0.55620   0.51443   0.01267  Uiso   1.00
N1     N     0.66240   0.48280   0.94180   0.01267  Uiso   1.00
N2     N     0.37210   0.48440   0.92830   0.01267  Uiso   1.00
N3     N     0.65470   0.75610   0.92960   0.01267  Uiso   1.00
N4     N     0.86770   0.54120   0.91020   0.01267  Uiso   1.00
N5     N     0.83690   0.65570   0.98770   0.01267  Uiso   1.00
N6     N     0.77380   0.37150   0.96230   0.01267  Uiso   1.00
N7     N     0.82040   0.33760   0.27513   0.01267  Uiso   1.00
N8     N     0.11230   0.62790   0.26163   0.01267  Uiso   1.00
N9     N     0.10140   0.34530   0.26293   0.01267  Uiso   1.00
N10    N     0.67350   0.13230   0.24353   0.01267  Uiso   1.00
N11    N     0.81880   0.16310   0.32103   0.01267  Uiso   1.00
N12    N     0.59770   0.22620   0.29563   0.01267  Uiso   1.00
N13    N     0.51720   0.17960   0.60847   0.01267  Uiso   1.00
N14    N     0.51560   0.88770   0.59497   0.01267  Uiso   1.00
N15    N     0.24390   0.89860   0.59627   0.01267  Uiso   1.00
N16    N     0.45880   0.32650   0.57687   0.01267  Uiso   1.00
N17    N     0.34430   0.18120   0.65437   0.01267  Uiso   1.00
N18    N     0.62850   0.40230   0.62897   0.01267  Uiso   1.00
N19    N     0.17960   0.51720   0.05820   0.01267  Uiso   1.00
N20    N     0.88770   0.51560   0.07170   0.01267  Uiso   1.00
N21    N     0.89860   0.24390   0.07040   0.01267  Uiso   1.00
N22    N     0.32650   0.45880   0.08980   0.01267  Uiso   1.00
N23    N     0.18120   0.34430   0.01230   0.01267  Uiso   1.00
N24    N     0.40230   0.62850   0.03770   0.01267  Uiso   1.00
N25    N     0.48280   0.66240   0.72487   0.01267  Uiso   1.00
N26    N     0.48440   0.37210   0.73837   0.01267  Uiso   1.00
N27    N     0.75610   0.65470   0.73707   0.01267  Uiso   1.00
N28    N     0.54120   0.86770   0.75647   0.01267  Uiso   1.00
N29    N     0.65570   0.83690   0.67897   0.01267  Uiso   1.00
N30    N     0.37150   0.77380   0.70437   0.01267  Uiso   1.00
N31    N     0.33760   0.82040   0.39153   0.01267  Uiso   1.00
N32    N     0.62790   0.11230   0.40503   0.01267  Uiso   1.00
N33    N     0.34530   0.10140   0.40373   0.01267  Uiso   1.00
N34    N     0.13230   0.67350   0.42313   0.01267  Uiso   1.00
N35    N     0.16310   0.81880   0.34563   0.01267  Uiso   1.00
N36    N     0.22620   0.59770   0.37103   0.01267  Uiso   1.00
O1     O     0.72880   0.56080   0.09540   0.01267  Uiso   1.00
O2     O     0.67650   0.37740   0.07380   0.01267  Uiso   1.00
O3     O     0.83200   0.27120   0.42873   0.01267  Uiso   1.00
O4     O     0.70090   0.32350   0.40713   0.01267  Uiso   1.00
O5     O     0.43920   0.16800   0.76207   0.01267  Uiso   1.00
O6     O     0.62260   0.29910   0.74047   0.01267  Uiso   1.00
O7     O     0.16800   0.43920   0.90460   0.01267  Uiso   1.00
O8     O     0.29910   0.62260   0.92620   0.01267  Uiso   1.00
O9     O     0.56080   0.72880   0.57127   0.01267  Uiso   1.00
O10    O     0.37740   0.67650   0.59287   0.01267  Uiso   1.00
O11    O     0.27120   0.83200   0.23793   0.01267  Uiso   1.00
O12    O     0.32350   0.70090   0.25953   0.01267  Uiso   1.00
Cl1    Cl    0.39010   0.00000   0.00000   0.01267  Uiso   1.00
O13    O     0.33260   0.99140   0.93740   0.01267  Uiso   1.00
O14    O     0.47800   0.08300   0.98820   0.01267  Uiso   1.00
O15    O     0.34120   0.00860   0.06260   0.01267  Uiso   1.00
O16    O     0.39500   0.91700   0.01180   0.01267  Uiso   1.00
Cl2    Cl    0.60990   0.60990   0.33333   0.01267  Uiso   1.00
O17    O     0.65880   0.66740   0.27073   0.01267  Uiso   1.00
O18    O     0.60500   0.52200   0.32153   0.01267  Uiso   1.00
O19    O     0.66740   0.65880   0.39593   0.01267  Uiso   1.00
O20    O     0.52200   0.60500   0.34513   0.01267  Uiso   1.00
Cl3    Cl    0.00000   0.39010   0.66667   0.01267  Uiso   1.00
O21    O     0.00860   0.34120   0.60407   0.01267  Uiso   1.00
O22    O     0.91700   0.39500   0.65487   0.01267  Uiso   1.00
O23    O     0.99140   0.33260   0.72927   0.01267  Uiso   1.00
O24    O     0.08300   0.47800   0.67847   0.01267  Uiso   1.00
