data_image0
_cell_length_a       7.361
_cell_length_b       15.645
_cell_length_c       26.957
_cell_angle_alpha    90
_cell_angle_beta     90
_cell_angle_gamma    90

_symmetry_space_group_name_H-M    "P 1"
_symmetry_int_tables_number       1

loop_
  _symmetry_equiv_pos_as_xyz
  'x, y, z'

loop_
  _atom_site_label
  _atom_site_occupancy
  _atom_site_fract_x
  _atom_site_fract_y
  _atom_site_fract_z
  _atom_site_thermal_displace_type
  _atom_site_B_iso_or_equiv
  _atom_site_type_symbol
  Ni1      1.0000 0.48950  0.65587  0.68717  Biso   1.000  Ni
  O1       1.0000 0.38870  0.64300  0.61404  Biso   1.000  O
  O2       1.0000 0.60140  0.55620  0.64209  Biso   1.000  O
  O3       1.0000 0.87900  0.36430  0.25192  Biso   1.000  O
  O4       1.0000 0.64370  0.27720  0.25000  Biso   1.000  O
  O5       1.0000 0.08690  0.55710  0.45820  Biso   1.000  O
  O6       1.0000 0.28060  0.54680  0.39648  Biso   1.000  O
  O7       1.0000 0.17490  0.31870  0.37220  Biso   1.000  O
  O8       1.0000 0.23430  0.35690  0.44380  Biso   1.000  O
  N1       1.0000 0.34400  0.76090  0.70996  Biso   1.000  N
  N2       1.0000 0.70930  0.07160  0.78859  Biso   1.000  N
  N3       1.0000 0.24130  0.54010  0.44040  Biso   1.000  N
  N4       1.0000 0.28450  0.34400  0.40340  Biso   1.000  N
  C1       1.0000 0.34200  0.78960  0.75640  Biso   1.000  C
  H1       1.0000 0.42070  0.76460  0.77920  Biso   1.000  H
  C2       1.0000 0.23260  0.79980  0.67770  Biso   1.000  C
  H2       1.0000 0.23700  0.78320  0.64460  Biso   1.000  H
  C3       1.0000 0.23160  0.85330  0.77230  Biso   1.000  C
  H3       1.0000 0.23890  0.87220  0.80500  Biso   1.000  H
  C4       1.0000 0.11360  0.86200  0.69090  Biso   1.000  C
  H4       1.0000 0.03640  0.88570  0.66730  Biso   1.000  H
  C5       1.0000 0.10720  0.89060  0.73990  Biso   1.000  C
  C6       1.0000 0.97220  0.95540  0.75664  Biso   1.000  C
  C7       1.0000 0.79950  0.95200  0.73800  Biso   1.000  C
  H5       1.0000 0.76770  0.91110  0.71460  Biso   1.000  H
  C8       1.0000 0.01610  0.01530  0.79160  Biso   1.000  C
  H6       1.0000 0.13210  0.01780  0.80520  Biso   1.000  H
  C9       1.0000 0.67130  0.01150  0.75500  Biso   1.000  C
  H7       1.0000 0.55410  0.00900  0.74220  Biso   1.000  H
  C10      1.0000 0.88050  0.07260  0.80610  Biso   1.000  C
  H8       1.0000 0.91050  0.11420  0.82940  Biso   1.000  H
  C11      1.0000 0.49680  0.58170  0.60780  Biso   1.000  C
  C12      1.0000 0.50660  0.53920  0.55684  Biso   1.000  C
  C13      1.0000 0.64120  0.48280  0.54632  Biso   1.000  C
  H9       1.0000 0.72490  0.46740  0.57060  Biso   1.000  H
  C14      1.0000 0.65310  0.44800  0.49890  Biso   1.000  C
  H10      1.0000 0.74950  0.41180  0.49140  Biso   1.000  H
  C15      1.0000 0.52590  0.46580  0.46254  Biso   1.000  C
  C16      1.0000 0.38390  0.51800  0.47650  Biso   1.000  C
  C17      1.0000 0.37310  0.55450  0.52290  Biso   1.000  C
  H11      1.0000 0.27530  0.58940  0.53100  Biso   1.000  H
  C18      1.0000 0.73560  0.33220  0.26936  Biso   1.000  C
  C19      1.0000 0.67670  0.36880  0.31801  Biso   1.000  C
  C20      1.0000 0.51220  0.34520  0.33744  Biso   1.000  C
  H12      1.0000 0.43670  0.30830  0.31990  Biso   1.000  H
  C21      1.0000 0.45790  0.37670  0.38380  Biso   1.000  C
  C22      1.0000 0.56390  0.43180  0.41090  Biso   1.000  C
  C23      1.0000 0.72850  0.45670  0.39120  Biso   1.000  C
  H13      1.0000 0.80180  0.49530  0.40820  Biso   1.000  H
  C24      1.0000 0.78550  0.42290  0.34450  Biso   1.000  C
  H14      1.0000 0.89870  0.43800  0.33190  Biso   1.000  H
  Ni2      1.0000 0.01050  0.34413  0.18717  Biso   1.000  Ni
  O9       1.0000 0.11130  0.35700  0.11404  Biso   1.000  O
  O10      1.0000 0.89860  0.44380  0.14209  Biso   1.000  O
  O11      1.0000 0.62100  0.63570  0.75192  Biso   1.000  O
  O12      1.0000 0.85630  0.72280  0.75000  Biso   1.000  O
  O13      1.0000 0.41310  0.44290  0.95820  Biso   1.000  O
  O14      1.0000 0.21940  0.45320  0.89648  Biso   1.000  O
  O15      1.0000 0.32510  0.68130  0.87220  Biso   1.000  O
  O16      1.0000 0.26570  0.64310  0.94380  Biso   1.000  O
  N5       1.0000 0.15600  0.23910  0.20996  Biso   1.000  N
  N6       1.0000 0.79070  0.92840  0.28859  Biso   1.000  N
  N7       1.0000 0.25870  0.45990  0.94040  Biso   1.000  N
  N8       1.0000 0.21550  0.65600  0.90340  Biso   1.000  N
  C25      1.0000 0.15800  0.21040  0.25640  Biso   1.000  C
  H15      1.0000 0.07930  0.23540  0.27920  Biso   1.000  H
  C26      1.0000 0.26740  0.20020  0.17770  Biso   1.000  C
  H16      1.0000 0.26300  0.21680  0.14460  Biso   1.000  H
  C27      1.0000 0.26840  0.14670  0.27230  Biso   1.000  C
  H17      1.0000 0.26110  0.12780  0.30500  Biso   1.000  H
  C28      1.0000 0.38640  0.13800  0.19090  Biso   1.000  C
  H18      1.0000 0.46360  0.11430  0.16730  Biso   1.000  H
  C29      1.0000 0.39280  0.10940  0.23990  Biso   1.000  C
  C30      1.0000 0.52780  0.04460  0.25664  Biso   1.000  C
  C31      1.0000 0.70050  0.04800  0.23800  Biso   1.000  C
  H19      1.0000 0.73230  0.08890  0.21460  Biso   1.000  H
  C32      1.0000 0.48390  0.98470  0.29160  Biso   1.000  C
  H20      1.0000 0.36790  0.98220  0.30520  Biso   1.000  H
  C33      1.0000 0.82870  0.98850  0.25500  Biso   1.000  C
  H21      1.0000 0.94590  0.99100  0.24220  Biso   1.000  H
  C34      1.0000 0.61950  0.92740  0.30610  Biso   1.000  C
  H22      1.0000 0.58950  0.88580  0.32940  Biso   1.000  H
  C35      1.0000 0.00320  0.41830  0.10780  Biso   1.000  C
  C36      1.0000 0.99340  0.46080  0.05684  Biso   1.000  C
  C37      1.0000 0.85880  0.51720  0.04632  Biso   1.000  C
  H23      1.0000 0.77510  0.53260  0.07060  Biso   1.000  H
  C38      1.0000 0.84690  0.55200  0.99890  Biso   1.000  C
  H24      1.0000 0.75050  0.58820  0.99140  Biso   1.000  H
  C39      1.0000 0.97410  0.53420  0.96254  Biso   1.000  C
  C40      1.0000 0.11610  0.48200  0.97650  Biso   1.000  C
  C41      1.0000 0.12690  0.44550  0.02290  Biso   1.000  C
  H25      1.0000 0.22470  0.41060  0.03100  Biso   1.000  H
  C42      1.0000 0.76440  0.66780  0.76936  Biso   1.000  C
  C43      1.0000 0.82330  0.63120  0.81801  Biso   1.000  C
  C44      1.0000 0.98780  0.65480  0.83744  Biso   1.000  C
  H26      1.0000 0.06330  0.69170  0.81990  Biso   1.000  H
  C45      1.0000 0.04210  0.62330  0.88380  Biso   1.000  C
  C46      1.0000 0.93610  0.56820  0.91090  Biso   1.000  C
  C47      1.0000 0.77150  0.54330  0.89120  Biso   1.000  C
  H27      1.0000 0.69820  0.50470  0.90820  Biso   1.000  H
  C48      1.0000 0.71450  0.57710  0.84450  Biso   1.000  C
  H28      1.0000 0.60130  0.56200  0.83190  Biso   1.000  H
  Ni3      1.0000 0.51050  0.15587  0.81283  Biso   1.000  Ni
  O17      1.0000 0.61130  0.14300  0.88596  Biso   1.000  O
  O18      1.0000 0.39860  0.05620  0.85791  Biso   1.000  O
  O19      1.0000 0.12100  0.86430  0.24808  Biso   1.000  O
  O20      1.0000 0.35630  0.77720  0.25000  Biso   1.000  O
  O21      1.0000 0.91310  0.05710  0.04180  Biso   1.000  O
  O22      1.0000 0.71940  0.04680  0.10352  Biso   1.000  O
  O23      1.0000 0.82510  0.81870  0.12780  Biso   1.000  O
  O24      1.0000 0.76570  0.85690  0.05620  Biso   1.000  O
  N9       1.0000 0.65600  0.26090  0.79004  Biso   1.000  N
  N10      1.0000 0.29070  0.57160  0.71141  Biso   1.000  N
  N11      1.0000 0.75870  0.04010  0.05960  Biso   1.000  N
  N12      1.0000 0.71550  0.84400  0.09660  Biso   1.000  N
  C49      1.0000 0.65800  0.28960  0.74360  Biso   1.000  C
  H29      1.0000 0.57930  0.26460  0.72080  Biso   1.000  H
  C50      1.0000 0.76740  0.29980  0.82230  Biso   1.000  C
  H30      1.0000 0.76300  0.28320  0.85540  Biso   1.000  H
  C51      1.0000 0.76840  0.35330  0.72770  Biso   1.000  C
  H31      1.0000 0.76110  0.37220  0.69500  Biso   1.000  H
  C52      1.0000 0.88640  0.36200  0.80910  Biso   1.000  C
  H32      1.0000 0.96360  0.38570  0.83270  Biso   1.000  H
  C53      1.0000 0.89280  0.39060  0.76010  Biso   1.000  C
  C54      1.0000 0.02780  0.45540  0.74336  Biso   1.000  C
  C55      1.0000 0.20050  0.45200  0.76200  Biso   1.000  C
  H33      1.0000 0.23230  0.41110  0.78540  Biso   1.000  H
  C56      1.0000 0.98390  0.51530  0.70840  Biso   1.000  C
  H34      1.0000 0.86790  0.51780  0.69480  Biso   1.000  H
  C57      1.0000 0.32870  0.51150  0.74500  Biso   1.000  C
  H35      1.0000 0.44590  0.50900  0.75780  Biso   1.000  H
  C58      1.0000 0.11950  0.57260  0.69390  Biso   1.000  C
  H36      1.0000 0.08950  0.61420  0.67060  Biso   1.000  H
  C59      1.0000 0.50320  0.08170  0.89220  Biso   1.000  C
  C60      1.0000 0.49340  0.03920  0.94316  Biso   1.000  C
  C61      1.0000 0.35880  0.98280  0.95368  Biso   1.000  C
  H37      1.0000 0.27510  0.96740  0.92940  Biso   1.000  H
  C62      1.0000 0.34690  0.94800  0.00110  Biso   1.000  C
  H38      1.0000 0.25050  0.91180  0.00860  Biso   1.000  H
  C63      1.0000 0.47410  0.96580  0.03746  Biso   1.000  C
  C64      1.0000 0.61610  0.01800  0.02350  Biso   1.000  C
  C65      1.0000 0.62690  0.05450  0.97710  Biso   1.000  C
  H39      1.0000 0.72470  0.08940  0.96900  Biso   1.000  H
  C66      1.0000 0.26440  0.83220  0.23064  Biso   1.000  C
  C67      1.0000 0.32330  0.86880  0.18199  Biso   1.000  C
  C68      1.0000 0.48780  0.84520  0.16256  Biso   1.000  C
  H40      1.0000 0.56330  0.80830  0.18010  Biso   1.000  H
  C69      1.0000 0.54210  0.87670  0.11620  Biso   1.000  C
  C70      1.0000 0.43610  0.93180  0.08910  Biso   1.000  C
  C71      1.0000 0.27150  0.95670  0.10880  Biso   1.000  C
  H41      1.0000 0.19820  0.99530  0.09180  Biso   1.000  H
  C72      1.0000 0.21450  0.92290  0.15550  Biso   1.000  C
  H42      1.0000 0.10130  0.93800  0.16810  Biso   1.000  H
  Ni4      1.0000 0.98950  0.84413  0.31283  Biso   1.000  Ni
  O25      1.0000 0.88870  0.85700  0.38596  Biso   1.000  O
  O26      1.0000 0.10140  0.94380  0.35791  Biso   1.000  O
  O27      1.0000 0.37900  0.13570  0.74808  Biso   1.000  O
  O28      1.0000 0.14370  0.22280  0.75000  Biso   1.000  O
  O29      1.0000 0.58690  0.94290  0.54180  Biso   1.000  O
  O30      1.0000 0.78060  0.95320  0.60352  Biso   1.000  O
  O31      1.0000 0.67490  0.18130  0.62780  Biso   1.000  O
  O32      1.0000 0.73430  0.14310  0.55620  Biso   1.000  O
  N13      1.0000 0.84400  0.73910  0.29004  Biso   1.000  N
  N14      1.0000 0.20930  0.42840  0.21141  Biso   1.000  N
  N15      1.0000 0.74130  0.95990  0.55960  Biso   1.000  N
  N16      1.0000 0.78450  0.15600  0.59660  Biso   1.000  N
  C73      1.0000 0.84200  0.71040  0.24360  Biso   1.000  C
  H43      1.0000 0.92070  0.73540  0.22080  Biso   1.000  H
  C74      1.0000 0.73260  0.70020  0.32230  Biso   1.000  C
  H44      1.0000 0.73700  0.71680  0.35540  Biso   1.000  H
  C75      1.0000 0.73160  0.64670  0.22770  Biso   1.000  C
  H45      1.0000 0.73890  0.62780  0.19500  Biso   1.000  H
  C76      1.0000 0.61360  0.63800  0.30910  Biso   1.000  C
  H46      1.0000 0.53640  0.61430  0.33270  Biso   1.000  H
  C77      1.0000 0.60720  0.60940  0.26010  Biso   1.000  C
  C78      1.0000 0.47220  0.54460  0.24336  Biso   1.000  C
  C79      1.0000 0.29950  0.54800  0.26200  Biso   1.000  C
  H47      1.0000 0.26770  0.58890  0.28540  Biso   1.000  H
  C80      1.0000 0.51610  0.48470  0.20840  Biso   1.000  C
  H48      1.0000 0.63210  0.48220  0.19480  Biso   1.000  H
  C81      1.0000 0.17130  0.48850  0.24500  Biso   1.000  C
  H49      1.0000 0.05410  0.49100  0.25780  Biso   1.000  H
  C82      1.0000 0.38050  0.42740  0.19390  Biso   1.000  C
  H50      1.0000 0.41050  0.38580  0.17060  Biso   1.000  H
  C83      1.0000 0.99680  0.91830  0.39220  Biso   1.000  C
  C84      1.0000 0.00660  0.96080  0.44316  Biso   1.000  C
  C85      1.0000 0.14120  0.01720  0.45368  Biso   1.000  C
  H51      1.0000 0.22490  0.03260  0.42940  Biso   1.000  H
  C86      1.0000 0.15310  0.05200  0.50110  Biso   1.000  C
  H52      1.0000 0.24950  0.08820  0.50860  Biso   1.000  H
  C87      1.0000 0.02590  0.03420  0.53746  Biso   1.000  C
  C88      1.0000 0.88390  0.98200  0.52350  Biso   1.000  C
  C89      1.0000 0.87310  0.94550  0.47710  Biso   1.000  C
  H53      1.0000 0.77530  0.91060  0.46900  Biso   1.000  H
  C90      1.0000 0.23560  0.16780  0.73064  Biso   1.000  C
  C91      1.0000 0.17670  0.13120  0.68199  Biso   1.000  C
  C92      1.0000 0.01220  0.15480  0.66256  Biso   1.000  C
  H54      1.0000 0.93670  0.19170  0.68010  Biso   1.000  H
  C93      1.0000 0.95790  0.12330  0.61620  Biso   1.000  C
  C94      1.0000 0.06390  0.06820  0.58910  Biso   1.000  C
  C95      1.0000 0.22850  0.04330  0.60880  Biso   1.000  C
  H55      1.0000 0.30180  0.00470  0.59180  Biso   1.000  H
  C96      1.0000 0.28550  0.07710  0.65550  Biso   1.000  C
  H56      1.0000 0.39870  0.06200  0.66810  Biso   1.000  H
