data_WAMREJ_clean
_audit_creation_date              2014-07-02
_audit_creation_method            'Materials Studio'
_symmetry_space_group_name_H-M    'P1'
_symmetry_Int_Tables_number       1
_symmetry_cell_setting            triclinic
loop_
_symmetry_equiv_pos_as_xyz
  x,y,z
_cell_length_a                    22.4261
_cell_length_b                    22.4261
_cell_length_c                    22.4261
_cell_angle_alpha                 92.8245
_cell_angle_beta                  118.3830
_cell_angle_gamma                 118.3830
loop_
_atom_site_label
_atom_site_type_symbol
_atom_site_fract_x
_atom_site_fract_y
_atom_site_fract_z
_atom_site_U_iso_or_equiv
_atom_site_adp_type
_atom_site_occupancy
Cu1    Cu    0.42580   0.97992   0.97992   0.01267  Uiso   1.00
Cu2    Cu    0.57420   0.55412   0.55412   0.01267  Uiso   1.00
Cu3    Cu    0.00000   0.97992   0.55412   0.01267  Uiso   1.00
Cu4    Cu    0.00000   0.55412   0.97992   0.01267  Uiso   1.00
Cu5    Cu    0.00000   0.44588   0.02008   0.01267  Uiso   1.00
Cu6    Cu    0.00000   0.02008   0.44588   0.01267  Uiso   1.00
Cu7    Cu    0.42580   0.44588   0.44588   0.01267  Uiso   1.00
Cu8    Cu    0.57420   0.02008   0.02008   0.01267  Uiso   1.00
H1     H     0.51740   0.95680   0.81140   0.01267  Uiso   1.00
H2     H     0.48440   0.93180   0.69360   0.01267  Uiso   1.00
H3     H     0.33730   0.97930   0.76300   0.01267  Uiso   1.00
H4     H     0.48260   0.29400   0.43940   0.01267  Uiso   1.00
H5     H     0.51560   0.20920   0.44740   0.01267  Uiso   1.00
H6     H     0.66270   0.42570   0.64200   0.01267  Uiso   1.00
H7     H     0.85460   0.81140   0.29400   0.01267  Uiso   1.00
H8     H     0.76180   0.69360   0.20920   0.01267  Uiso   1.00
H9     H     0.78370   0.76300   0.42570   0.01267  Uiso   1.00
H10    H     0.14540   0.43940   0.95680   0.01267  Uiso   1.00
H11    H     0.23820   0.44740   0.93180   0.01267  Uiso   1.00
H12    H     0.21630   0.64200   0.97930   0.01267  Uiso   1.00
H13    H     0.14540   0.70600   0.18860   0.01267  Uiso   1.00
H14    H     0.23820   0.79080   0.30640   0.01267  Uiso   1.00
H15    H     0.21630   0.57430   0.23700   0.01267  Uiso   1.00
H16    H     0.85460   0.04320   0.56060   0.01267  Uiso   1.00
H17    H     0.76180   0.06820   0.55260   0.01267  Uiso   1.00
H18    H     0.78370   0.02070   0.35800   0.01267  Uiso   1.00
H19    H     0.51740   0.56060   0.70600   0.01267  Uiso   1.00
H20    H     0.48440   0.55260   0.79080   0.01267  Uiso   1.00
H21    H     0.33730   0.35800   0.57430   0.01267  Uiso   1.00
H22    H     0.48260   0.18860   0.04320   0.01267  Uiso   1.00
H23    H     0.51560   0.30640   0.06820   0.01267  Uiso   1.00
H24    H     0.66270   0.23700   0.02070   0.01267  Uiso   1.00
H25    H     0.48260   0.04320   0.18860   0.01267  Uiso   1.00
H26    H     0.51560   0.06820   0.30640   0.01267  Uiso   1.00
H27    H     0.66270   0.02070   0.23700   0.01267  Uiso   1.00
H28    H     0.51740   0.70600   0.56060   0.01267  Uiso   1.00
H29    H     0.48440   0.79080   0.55260   0.01267  Uiso   1.00
H30    H     0.33730   0.57430   0.35800   0.01267  Uiso   1.00
H31    H     0.14540   0.18860   0.70600   0.01267  Uiso   1.00
H32    H     0.23820   0.30640   0.79080   0.01267  Uiso   1.00
H33    H     0.21630   0.23700   0.57430   0.01267  Uiso   1.00
H34    H     0.85460   0.56060   0.04320   0.01267  Uiso   1.00
H35    H     0.76180   0.55260   0.06820   0.01267  Uiso   1.00
H36    H     0.78370   0.35800   0.02070   0.01267  Uiso   1.00
H37    H     0.85460   0.29400   0.81140   0.01267  Uiso   1.00
H38    H     0.76180   0.20920   0.69360   0.01267  Uiso   1.00
H39    H     0.78370   0.42570   0.76300   0.01267  Uiso   1.00
H40    H     0.14540   0.95680   0.43940   0.01267  Uiso   1.00
H41    H     0.23820   0.93180   0.44740   0.01267  Uiso   1.00
H42    H     0.21630   0.97930   0.64200   0.01267  Uiso   1.00
H43    H     0.48260   0.43940   0.29400   0.01267  Uiso   1.00
H44    H     0.51560   0.44740   0.20920   0.01267  Uiso   1.00
H45    H     0.66270   0.64200   0.42570   0.01267  Uiso   1.00
H46    H     0.51740   0.81140   0.95680   0.01267  Uiso   1.00
H47    H     0.48440   0.69360   0.93180   0.01267  Uiso   1.00
H48    H     0.33730   0.76300   0.97930   0.01267  Uiso   1.00
H49    H     0.45860   0.02410   0.56550   0.01267  Uiso   1.00
H50    H     0.54140   0.10690   0.56550   0.01267  Uiso   1.00
H51    H     0.54140   0.56550   0.10690   0.01267  Uiso   1.00
H52    H     0.45860   0.56550   0.02410   0.01267  Uiso   1.00
H53    H     0.45860   0.89310   0.43450   0.01267  Uiso   1.00
H54    H     0.54140   0.97590   0.43450   0.01267  Uiso   1.00
H55    H     0.45860   0.43450   0.89310   0.01267  Uiso   1.00
H56    H     0.54140   0.43450   0.97590   0.01267  Uiso   1.00
H57    H     0.30530   0.80530   0.50000   0.01267  Uiso   1.00
H58    H     0.69470   0.19470   0.50000   0.01267  Uiso   1.00
H59    H     0.69470   0.50000   0.19470   0.01267  Uiso   1.00
H60    H     0.30530   0.50000   0.80530   0.01267  Uiso   1.00
C1     C     0.47050   0.98440   0.87990   0.01267  Uiso   1.00
C2     C     0.43390   0.97110   0.80340   0.01267  Uiso   1.00
C3     C     0.47150   0.95650   0.77620   0.01267  Uiso   1.00
C4     C     0.45420   0.94120   0.70660   0.01267  Uiso   1.00
C5     C     0.38640   0.94200   0.65900   0.01267  Uiso   1.00
C6     C     0.34220   0.95590   0.67810   0.01267  Uiso   1.00
C7     C     0.36740   0.97000   0.74980   0.01267  Uiso   1.00
C8     C     0.52950   0.40940   0.51390   0.01267  Uiso   1.00
C9     C     0.56610   0.36950   0.53720   0.01267  Uiso   1.00
C10    C     0.52850   0.30470   0.48500   0.01267  Uiso   1.00
C11    C     0.54580   0.25240   0.48700   0.01267  Uiso   1.00
C12    C     0.61360   0.27260   0.55560   0.01267  Uiso   1.00
C13    C     0.65780   0.33590   0.61370   0.01267  Uiso   1.00
C14    C     0.63260   0.38240   0.60260   0.01267  Uiso   1.00
C15    C     0.89550   0.87990   0.40940   0.01267  Uiso   1.00
C16    C     0.83230   0.80340   0.36950   0.01267  Uiso   1.00
C17    C     0.81970   0.77620   0.30470   0.01267  Uiso   1.00
C18    C     0.76540   0.70660   0.25240   0.01267  Uiso   1.00
C19    C     0.71700   0.65900   0.27260   0.01267  Uiso   1.00
C20    C     0.72220   0.67810   0.33590   0.01267  Uiso   1.00
C21    C     0.77980   0.74980   0.38240   0.01267  Uiso   1.00
C22    C     0.10450   0.51390   0.98440   0.01267  Uiso   1.00
C23    C     0.16770   0.53720   0.97110   0.01267  Uiso   1.00
C24    C     0.18030   0.48500   0.95650   0.01267  Uiso   1.00
C25    C     0.23460   0.48700   0.94120   0.01267  Uiso   1.00
C26    C     0.28300   0.55560   0.94200   0.01267  Uiso   1.00
C27    C     0.27780   0.61370   0.95590   0.01267  Uiso   1.00
C28    C     0.22020   0.60260   0.97000   0.01267  Uiso   1.00
C29    C     0.10450   0.59060   0.12010   0.01267  Uiso   1.00
C30    C     0.16770   0.63050   0.19660   0.01267  Uiso   1.00
C31    C     0.18030   0.69530   0.22380   0.01267  Uiso   1.00
C32    C     0.23460   0.74760   0.29340   0.01267  Uiso   1.00
C33    C     0.28300   0.72740   0.34100   0.01267  Uiso   1.00
C34    C     0.27780   0.66410   0.32190   0.01267  Uiso   1.00
C35    C     0.22020   0.61760   0.25020   0.01267  Uiso   1.00
C36    C     0.89550   0.01560   0.48610   0.01267  Uiso   1.00
C37    C     0.83230   0.02890   0.46280   0.01267  Uiso   1.00
C38    C     0.81970   0.04350   0.51500   0.01267  Uiso   1.00
C39    C     0.76540   0.05880   0.51300   0.01267  Uiso   1.00
C40    C     0.71700   0.05800   0.44440   0.01267  Uiso   1.00
C41    C     0.72220   0.04410   0.38630   0.01267  Uiso   1.00
C42    C     0.77980   0.03000   0.39740   0.01267  Uiso   1.00
C43    C     0.47050   0.48610   0.59060   0.01267  Uiso   1.00
C44    C     0.43390   0.46280   0.63050   0.01267  Uiso   1.00
C45    C     0.47150   0.51500   0.69530   0.01267  Uiso   1.00
C46    C     0.45420   0.51300   0.74760   0.01267  Uiso   1.00
C47    C     0.38640   0.44440   0.72740   0.01267  Uiso   1.00
C48    C     0.34220   0.38630   0.66410   0.01267  Uiso   1.00
C49    C     0.36740   0.39740   0.61760   0.01267  Uiso   1.00
C50    C     0.52950   0.12010   0.01560   0.01267  Uiso   1.00
C51    C     0.56610   0.19660   0.02890   0.01267  Uiso   1.00
C52    C     0.52850   0.22380   0.04350   0.01267  Uiso   1.00
C53    C     0.54580   0.29340   0.05880   0.01267  Uiso   1.00
C54    C     0.61360   0.34100   0.05800   0.01267  Uiso   1.00
C55    C     0.65780   0.32190   0.04410   0.01267  Uiso   1.00
C56    C     0.63260   0.25020   0.03000   0.01267  Uiso   1.00
C57    C     0.52950   0.01560   0.12010   0.01267  Uiso   1.00
C58    C     0.56610   0.02890   0.19660   0.01267  Uiso   1.00
C59    C     0.52850   0.04350   0.22380   0.01267  Uiso   1.00
C60    C     0.54580   0.05880   0.29340   0.01267  Uiso   1.00
C61    C     0.61360   0.05800   0.34100   0.01267  Uiso   1.00
C62    C     0.65780   0.04410   0.32190   0.01267  Uiso   1.00
C63    C     0.63260   0.03000   0.25020   0.01267  Uiso   1.00
C64    C     0.47050   0.59060   0.48610   0.01267  Uiso   1.00
C65    C     0.43390   0.63050   0.46280   0.01267  Uiso   1.00
C66    C     0.47150   0.69530   0.51500   0.01267  Uiso   1.00
C67    C     0.45420   0.74760   0.51300   0.01267  Uiso   1.00
C68    C     0.38640   0.72740   0.44440   0.01267  Uiso   1.00
C69    C     0.34220   0.66410   0.38630   0.01267  Uiso   1.00
C70    C     0.36740   0.61760   0.39740   0.01267  Uiso   1.00
C71    C     0.10450   0.12010   0.59060   0.01267  Uiso   1.00
C72    C     0.16770   0.19660   0.63050   0.01267  Uiso   1.00
C73    C     0.18030   0.22380   0.69530   0.01267  Uiso   1.00
C74    C     0.23460   0.29340   0.74760   0.01267  Uiso   1.00
C75    C     0.28300   0.34100   0.72740   0.01267  Uiso   1.00
C76    C     0.27780   0.32190   0.66410   0.01267  Uiso   1.00
C77    C     0.22020   0.25020   0.61760   0.01267  Uiso   1.00
C78    C     0.89550   0.48610   0.01560   0.01267  Uiso   1.00
C79    C     0.83230   0.46280   0.02890   0.01267  Uiso   1.00
C80    C     0.81970   0.51500   0.04350   0.01267  Uiso   1.00
C81    C     0.76540   0.51300   0.05880   0.01267  Uiso   1.00
C82    C     0.71700   0.44440   0.05800   0.01267  Uiso   1.00
C83    C     0.72220   0.38630   0.04410   0.01267  Uiso   1.00
C84    C     0.77980   0.39740   0.03000   0.01267  Uiso   1.00
C85    C     0.89550   0.40940   0.87990   0.01267  Uiso   1.00
C86    C     0.83230   0.36950   0.80340   0.01267  Uiso   1.00
C87    C     0.81970   0.30470   0.77620   0.01267  Uiso   1.00
C88    C     0.76540   0.25240   0.70660   0.01267  Uiso   1.00
C89    C     0.71700   0.27260   0.65900   0.01267  Uiso   1.00
C90    C     0.72220   0.33590   0.67810   0.01267  Uiso   1.00
C91    C     0.77980   0.38240   0.74980   0.01267  Uiso   1.00
C92    C     0.10450   0.98440   0.51390   0.01267  Uiso   1.00
C93    C     0.16770   0.97110   0.53720   0.01267  Uiso   1.00
C94    C     0.18030   0.95650   0.48500   0.01267  Uiso   1.00
C95    C     0.23460   0.94120   0.48700   0.01267  Uiso   1.00
C96    C     0.28300   0.94200   0.55560   0.01267  Uiso   1.00
C97    C     0.27780   0.95590   0.61370   0.01267  Uiso   1.00
C98    C     0.22020   0.97000   0.60260   0.01267  Uiso   1.00
C99    C     0.52950   0.51390   0.40940   0.01267  Uiso   1.00
C100   C     0.56610   0.53720   0.36950   0.01267  Uiso   1.00
C101   C     0.52850   0.48500   0.30470   0.01267  Uiso   1.00
C102   C     0.54580   0.48700   0.25240   0.01267  Uiso   1.00
C103   C     0.61360   0.55560   0.27260   0.01267  Uiso   1.00
C104   C     0.65780   0.61370   0.33590   0.01267  Uiso   1.00
C105   C     0.63260   0.60260   0.38240   0.01267  Uiso   1.00
C106   C     0.47050   0.87990   0.98440   0.01267  Uiso   1.00
C107   C     0.43390   0.80340   0.97110   0.01267  Uiso   1.00
C108   C     0.47150   0.77620   0.95650   0.01267  Uiso   1.00
C109   C     0.45420   0.70660   0.94120   0.01267  Uiso   1.00
C110   C     0.38640   0.65900   0.94200   0.01267  Uiso   1.00
C111   C     0.34220   0.67810   0.95590   0.01267  Uiso   1.00
C112   C     0.36740   0.74980   0.97000   0.01267  Uiso   1.00
C113   C     0.37740   0.91611   0.53871   0.01267  Uiso   1.00
C114   C     0.43800   0.97683   0.53883   0.01267  Uiso   1.00
C115   C     0.62260   0.16131   0.53871   0.01267  Uiso   1.00
C116   C     0.56200   0.10083   0.53883   0.01267  Uiso   1.00
C117   C     0.62260   0.53871   0.16131   0.01267  Uiso   1.00
C118   C     0.56200   0.53883   0.10083   0.01267  Uiso   1.00
C119   C     0.37740   0.53871   0.91611   0.01267  Uiso   1.00
C120   C     0.43800   0.53883   0.97683   0.01267  Uiso   1.00
C121   C     0.37740   0.83869   0.46129   0.01267  Uiso   1.00
C122   C     0.43800   0.89917   0.46117   0.01267  Uiso   1.00
C123   C     0.62260   0.08389   0.46129   0.01267  Uiso   1.00
C124   C     0.56200   0.02317   0.46117   0.01267  Uiso   1.00
C125   C     0.37740   0.46129   0.83869   0.01267  Uiso   1.00
C126   C     0.43800   0.46117   0.89917   0.01267  Uiso   1.00
C127   C     0.62260   0.46129   0.08389   0.01267  Uiso   1.00
C128   C     0.56200   0.46117   0.02317   0.01267  Uiso   1.00
C129   C     0.34660   0.84660   0.50000   0.01267  Uiso   1.00
C130   C     0.46860   0.96860   0.50000   0.01267  Uiso   1.00
C131   C     0.65340   0.15340   0.50000   0.01267  Uiso   1.00
C132   C     0.53140   0.03140   0.50000   0.01267  Uiso   1.00
C133   C     0.65340   0.50000   0.15340   0.01267  Uiso   1.00
C134   C     0.53140   0.50000   0.03140   0.01267  Uiso   1.00
C135   C     0.34660   0.50000   0.84660   0.01267  Uiso   1.00
C136   C     0.46860   0.50000   0.96860   0.01267  Uiso   1.00
N1     N     0.34710   0.92930   0.58220   0.01267  Uiso   1.00
N2     N     0.65290   0.23510   0.58220   0.01267  Uiso   1.00
N3     N     0.65290   0.58220   0.23510   0.01267  Uiso   1.00
N4     N     0.34710   0.58220   0.92930   0.01267  Uiso   1.00
N5     N     0.34710   0.76490   0.41780   0.01267  Uiso   1.00
N6     N     0.65290   0.07070   0.41780   0.01267  Uiso   1.00
N7     N     0.34710   0.41780   0.76490   0.01267  Uiso   1.00
N8     N     0.65290   0.41780   0.07070   0.01267  Uiso   1.00
O1     O     0.40710   0.97140   0.88590   0.01267  Uiso   1.00
O2     O     0.53650   0.00240   0.92150   0.01267  Uiso   1.00
O3     O     0.59290   0.47880   0.56430   0.01267  Uiso   1.00
O4     O     0.46350   0.38500   0.46590   0.01267  Uiso   1.00
O5     O     0.91450   0.88590   0.47880   0.01267  Uiso   1.00
O6     O     0.91910   0.92150   0.38500   0.01267  Uiso   1.00
O7     O     0.08550   0.56430   0.97140   0.01267  Uiso   1.00
O8     O     0.08090   0.46590   0.00240   0.01267  Uiso   1.00
O9     O     0.08550   0.52120   0.11410   0.01267  Uiso   1.00
O10    O     0.08090   0.61500   0.07850   0.01267  Uiso   1.00
O11    O     0.91450   0.02860   0.43570   0.01267  Uiso   1.00
O12    O     0.91910   0.99760   0.53410   0.01267  Uiso   1.00
O13    O     0.40710   0.43570   0.52120   0.01267  Uiso   1.00
O14    O     0.53650   0.53410   0.61500   0.01267  Uiso   1.00
O15    O     0.59290   0.11410   0.02860   0.01267  Uiso   1.00
O16    O     0.46350   0.07850   0.99760   0.01267  Uiso   1.00
O17    O     0.59290   0.02860   0.11410   0.01267  Uiso   1.00
O18    O     0.46350   0.99760   0.07850   0.01267  Uiso   1.00
O19    O     0.40710   0.52120   0.43570   0.01267  Uiso   1.00
O20    O     0.53650   0.61500   0.53410   0.01267  Uiso   1.00
O21    O     0.08550   0.11410   0.52120   0.01267  Uiso   1.00
O22    O     0.08090   0.07850   0.61500   0.01267  Uiso   1.00
O23    O     0.91450   0.43570   0.02860   0.01267  Uiso   1.00
O24    O     0.91910   0.53410   0.99760   0.01267  Uiso   1.00
O25    O     0.91450   0.47880   0.88590   0.01267  Uiso   1.00
O26    O     0.91910   0.38500   0.92150   0.01267  Uiso   1.00
O27    O     0.08550   0.97140   0.56430   0.01267  Uiso   1.00
O28    O     0.08090   0.00240   0.46590   0.01267  Uiso   1.00
O29    O     0.59290   0.56430   0.47880   0.01267  Uiso   1.00
O30    O     0.46350   0.46590   0.38500   0.01267  Uiso   1.00
O31    O     0.40710   0.88590   0.97140   0.01267  Uiso   1.00
O32    O     0.53650   0.92150   0.00240   0.01267  Uiso   1.00
