data_image0
_cell_length_a       17.7879
_cell_length_b       17.98
_cell_length_c       26.742
_cell_angle_alpha    88.791
_cell_angle_beta     79.049
_cell_angle_gamma    71.306

_symmetry_space_group_name_H-M    "P 1"
_symmetry_int_tables_number       1

loop_
  _symmetry_equiv_pos_as_xyz
  'x, y, z'

loop_
  _atom_site_label
  _atom_site_occupancy
  _atom_site_fract_x
  _atom_site_fract_y
  _atom_site_fract_z
  _atom_site_thermal_displace_type
  _atom_site_B_iso_or_equiv
  _atom_site_type_symbol
  Pr1      1.0000 0.39872  0.92559  0.07540  Biso   1.000  Pr
  Pr2      1.0000 0.73242  0.74591  0.88498  Biso   1.000  Pr
  Pr3      1.0000 0.77006  0.28357  0.77651  Biso   1.000  Pr
  Pr4      1.0000 0.07949  0.62537  0.42828  Biso   1.000  Pr
  W1       1.0000 0.07825  0.64227  0.88980  Biso   1.000  W
  W2       1.0000 0.16101  0.78486  0.94118  Biso   1.000  W
  W3       1.0000 0.25802  0.03904  0.89173  Biso   1.000  W
  W4       1.0000 0.99973  0.55438  0.73055  Biso   1.000  W
  W5       1.0000 0.33925  0.84386  0.95240  Biso   1.000  W
  W6       1.0000 0.12103  0.13528  0.80037  Biso   1.000  W
  W7       1.0000 0.26349  0.48622  0.91000  Biso   1.000  W
  W8       1.0000 0.27779  0.40913  0.71914  Biso   1.000  W
  W9       1.0000 0.50137  0.77513  0.86194  Biso   1.000  W
  W10      1.0000 0.08273  0.97904  0.88436  Biso   1.000  W
  W11      1.0000 0.95148  0.74779  0.79814  Biso   1.000  W
  W12      1.0000 0.42389  0.97198  0.80331  Biso   1.000  W
  W13      1.0000 0.40454  0.87460  0.68764  Biso   1.000  W
  W14      1.0000 0.13286  0.45281  0.82320  Biso   1.000  W
  W15      1.0000 0.34460  0.63439  0.96251  Biso   1.000  W
  W16      1.0000 0.27120  0.85206  0.60104  Biso   1.000  W
  W17      1.0000 0.15552  0.06476  0.62576  Biso   1.000  W
  W18      1.0000 0.95213  0.95465  0.79617  Biso   1.000  W
  W19      1.0000 0.27380  0.64317  0.60513  Biso   1.000  W
  W20      1.0000 0.91176  0.74478  0.66985  Biso   1.000  W
  W21      1.0000 0.98597  0.10904  0.71281  Biso   1.000  W
  W22      1.0000 0.14572  0.51753  0.62748  Biso   1.000  W
  W23      1.0000 0.29294  0.08326  0.71383  Biso   1.000  W
  W24      1.0000 0.41199  0.42381  0.80884  Biso   1.000  W
  W25      1.0000 0.49508  0.56722  0.86392  Biso   1.000  W
  W26      1.0000 0.48476  0.68226  0.74679  Biso   1.000  W
  W27      1.0000 0.40505  0.53846  0.69551  Biso   1.000  W
  W28      1.0000 0.06838  0.71588  0.57347  Biso   1.000  W
  W29      1.0000 0.06961  0.92690  0.57062  Biso   1.000  W
  W30      1.0000 0.91031  0.95600  0.66504  Biso   1.000  W
  P1       1.0000 0.10220  0.68780  0.69550  Biso   1.000  P
  P2       1.0000 0.10140  0.91690  0.69180  Biso   1.000  P
  P3       1.0000 0.24660  0.94160  0.78770  Biso   1.000  P
  P4       1.0000 0.33430  0.73080  0.85150  Biso   1.000  P
  P5       1.0000 0.24540  0.57480  0.79500  Biso   1.000  P
  O1       1.0000 0.31520  0.54250  0.93630  Biso   1.000  O
  O2       1.0000 0.28680  0.74360  0.60500  Biso   1.000  O
  O3       1.0000 0.20390  0.11000  0.85100  Biso   1.000  O
  O4       1.0000 0.45520  0.49180  0.84660  Biso   1.000  O
  O5       1.0000 0.08300  0.06590  0.84380  Biso   1.000  O
  O6       1.0000 0.23410  0.55520  0.61440  Biso   1.000  O
  O7       1.0000 0.10880  0.72740  0.91370  Biso   1.000  O
  O8       1.0000 0.36710  0.72660  0.96860  Biso   1.000  O
  O9       1.0000 0.46070  0.88860  0.83940  Biso   1.000  O
  O10      1.0000 0.95950  0.84890  0.80430  Biso   1.000  O
  O11      1.0000 0.07270  0.55600  0.85050  Biso   1.000  O
  O12      1.0000 0.96770  0.63880  0.77910  Biso   1.000  O
  O13      1.0000 0.17590  0.91950  0.81870  Biso   1.000  O
  O14      1.0000 0.94300  0.64140  0.68530  Biso   1.000  O
  O15      1.0000 0.44160  0.77150  0.70820  Biso   1.000  O
  O16      1.0000 0.94290  0.05590  0.67790  Biso   1.000  O
  O17      1.0000 0.51750  0.67330  0.87470  Biso   1.000  O
  O18      1.0000 0.35610  0.05680  0.76130  Biso   1.000  O
  O19      1.0000 0.91060  0.19730  0.72680  Biso   1.000  O
  O20      1.0000 0.34330  0.84630  0.64360  Biso   1.000  O
  O21      1.0000 0.24430  0.75700  0.86590  Biso   1.000  O
  O22      1.0000 0.31730  0.93910  0.92430  Biso   1.000  O
  O23      1.0000 0.04930  0.13880  0.65410  Biso   1.000  O
  O24      1.0000 0.11320  0.87760  0.90990  Biso   1.000  O
  O25      1.0000 0.01590  0.95350  0.84440  Biso   1.000  O
  O26      1.0000 0.44200  0.90850  0.74450  Biso   1.000  O
  O27      1.0000 0.50480  0.60260  0.79400  Biso   1.000  O
  O28      1.0000 0.36130  0.72190  0.79510  Biso   1.000  O
  O29      1.0000 0.85720  0.76210  0.83800  Biso   1.000  O
  O30      1.0000 0.20440  0.16240  0.75690  Biso   1.000  O
  O31      1.0000 0.34760  0.98260  0.68070  Biso   1.000  O
  O32      1.0000 0.23290  0.96540  0.60860  Biso   1.000  O
  O33      1.0000 0.29770  0.60170  0.75150  Biso   1.000  O
  O34      1.0000 0.44200  0.62050  0.71110  Biso   1.000  O
  O35      1.0000 0.09200  0.59830  0.59320  Biso   1.000  O
  O36      1.0000 0.18590  0.68850  0.67460  Biso   1.000  O
  O37      1.0000 0.16820  0.57280  0.91340  Biso   1.000  O
  O38      1.0000 0.20290  0.44090  0.86660  Biso   1.000  O
  O39      1.0000 0.10010  0.60300  0.69680  Biso   1.000  O
  O40      1.0000 0.06850  0.48950  0.76910  Biso   1.000  O
  O41      1.0000 0.45620  0.81750  0.92970  Biso   1.000  O
  O42      1.0000 0.06280  0.13740  0.75360  Biso   1.000  O
  O43      1.0000 0.01280  0.71160  0.84820  Biso   1.000  O
  O44      1.0000 0.17170  0.99660  0.90830  Biso   1.000  O
  O45      1.0000 0.21110  0.09080  0.67030  Biso   1.000  O
  O46      1.0000 0.96650  0.04980  0.76850  Biso   1.000  O
  O47      1.0000 0.36470  0.04020  0.86210  Biso   1.000  O
  O48      1.0000 0.33760  0.86930  0.01590  Biso   1.000  O
  O49      1.0000 0.06750  0.90260  0.74580  Biso   1.000  O
  O50      1.0000 0.50690  0.75040  0.79200  Biso   1.000  O
  O51      1.0000 0.21040  0.51580  0.77370  Biso   1.000  O
  O52      1.0000 0.23760  0.83670  0.95440  Biso   1.000  O
  O53      1.0000 0.44070  0.48510  0.75500  Biso   1.000  O
  O54      1.0000 0.20560  0.44650  0.67980  Biso   1.000  O
  O55      1.0000 0.18820  0.86340  0.67300  Biso   1.000  O
  O56      1.0000 0.30320  0.95320  0.82290  Biso   1.000  O
  O57      1.0000 0.91180  0.77480  0.73760  Biso   1.000  O
  O58      1.0000 0.91640  0.52140  0.74450  Biso   1.000  O
  O59      1.0000 0.95650  0.72740  0.59660  Biso   1.000  O
  O60      1.0000 0.06910  0.72570  0.74640  Biso   1.000  O
  O61      1.0000 0.34450  0.60560  0.64910  Biso   1.000  O
  O62      1.0000 0.45200  0.57320  0.93510  Biso   1.000  O
  O63      1.0000 0.09890  0.00250  0.68900  Biso   1.000  O
  O64      1.0000 0.04640  0.73080  0.65650  Biso   1.000  O
  O65      1.0000 0.17690  0.86370  0.57170  Biso   1.000  O
  O66      1.0000 0.90730  0.85990  0.65930  Biso   1.000  O
  O67      1.0000 0.35870  0.40640  0.87450  Biso   1.000  O
  O68      1.0000 0.30030  0.52980  0.83260  Biso   1.000  O
  O69      1.0000 0.95150  0.96610  0.59370  Biso   1.000  O
  O70      1.0000 0.05250  0.49810  0.66490  Biso   1.000  O
  O71      1.0000 0.21350  0.02150  0.76260  Biso   1.000  O
  O72      1.0000 0.20900  0.37620  0.77180  Biso   1.000  O
  O73      1.0000 0.37070  0.78780  0.87320  Biso   1.000  O
  O74      1.0000 0.34880  0.39170  0.77360  Biso   1.000  O
  O75      1.0000 0.07200  0.69000  0.50920  Biso   1.000  O
  O76      1.0000 0.29520  0.87860  0.74630  Biso   1.000  O
  O77      1.0000 0.04890  0.82130  0.57000  Biso   1.000  O
  O78      1.0000 0.09240  0.01390  0.58630  Biso   1.000  O
  O79      1.0000 0.04470  0.90860  0.65660  Biso   1.000  O
  O80      1.0000 0.90980  0.94950  0.73410  Biso   1.000  O
  O81      1.0000 0.59700  0.77620  0.86090  Biso   1.000  O
  O82      1.0000 0.34320  0.46930  0.69260  Biso   1.000  O
  O83      1.0000 0.24140  0.68670  0.95820  Biso   1.000  O
  O84      1.0000 0.17780  0.64090  0.82400  Biso   1.000  O
  O85      1.0000 0.36700  0.64970  0.87730  Biso   1.000  O
  O86      1.0000 0.17660  0.69040  0.57490  Biso   1.000  O
  O87      1.0000 0.62890  0.79070  0.96040  Biso   1.000  O
  O88      1.0000 0.52950  0.88120  0.01200  Biso   1.000  O
  O89      1.0000 0.85280  0.36570  0.74320  Biso   1.000  O
  O90      1.0000 0.34020  0.83550  0.12820  Biso   1.000  O
  O91      1.0000 0.34170  0.99360  0.16150  Biso   1.000  O
  O92      1.0000 0.67090  0.28300  0.85530  Biso   1.000  O
  O93      1.0000 0.93610  0.66350  0.46080  Biso   1.000  O
  O94      1.0000 0.14670  0.61460  0.33980  Biso   1.000  O
  O95      1.0000 0.80790  0.72100  0.45200  Biso   1.000  O
  O96      1.0000 0.68430  0.88130  0.86090  Biso   1.000  O
  N1       1.0000 0.99000  0.66280  0.36140  Biso   1.000  N
  C1       1.0000 0.90760  0.68690  0.37700  Biso   1.000  C
  C2       1.0000 0.85860  0.70320  0.34160  Biso   1.000  C
  H1       1.0000 0.80150  0.71990  0.35240  Biso   1.000  H
  C3       1.0000 0.89200  0.69550  0.29060  Biso   1.000  C
  H2       1.0000 0.85810  0.70690  0.26610  Biso   1.000  H
  C4       1.0000 0.97450  0.67150  0.27500  Biso   1.000  C
  H3       1.0000 0.99760  0.66610  0.23970  Biso   1.000  H
  C5       1.0000 0.02350  0.65510  0.31040  Biso   1.000  C
  C6       1.0000 0.89100  0.36700  0.69940  Biso   1.000  C
  C7       1.0000 0.87500  0.69300  0.43480  Biso   1.000  C
  N2       1.0000 0.46820  0.77860  0.05760  Biso   1.000  N
  C8       1.0000 0.53890  0.74960  0.02020  Biso   1.000  C
  C9       1.0000 0.57130  0.66850  0.00730  Biso   1.000  C
  H4       1.0000 0.61900  0.64890  0.98190  Biso   1.000  H
  C10      1.0000 0.53310  0.61650  0.03190  Biso   1.000  C
  H5       1.0000 0.55490  0.56180  0.02320  Biso   1.000  H
  C11      1.0000 0.46240  0.64560  0.06940  Biso   1.000  C
  H6       1.0000 0.43660  0.61050  0.08600  Biso   1.000  H
  C12      1.0000 0.42990  0.72660  0.08230  Biso   1.000  C
  C13      1.0000 0.56910  0.80890  0.99370  Biso   1.000  C
  C14      1.0000 0.36100  0.76550  0.12390  Biso   1.000  C
  C15      1.0000 0.27100  0.08800  0.22640  Biso   1.000  C
  H7       1.0000 0.27110  0.04020  0.24480  Biso   1.000  H
  H8       1.0000 0.30240  0.11460  0.24130  Biso   1.000  H
  H9       1.0000 0.21560  0.12300  0.22890  Biso   1.000  H
  C16      1.0000 0.31100  0.06480  0.16850  Biso   1.000  C
  O97      1.0000 0.68250  0.62950  0.88870  Biso   1.000  O
  O98      1.0000 0.74780  0.40060  0.84300  Biso   1.000  O
  Na1      1.0000 0.82360  0.48460  0.80910  Biso   1.000  Na
  Na2      1.0000 0.25940  0.49150  0.05770  Biso   1.000  Na
  Pr5      1.0000 0.60128  0.07441  0.92460  Biso   1.000  Pr
  Pr6      1.0000 0.26758  0.25409  0.11502  Biso   1.000  Pr
  Pr7      1.0000 0.22994  0.71643  0.22349  Biso   1.000  Pr
  Pr8      1.0000 0.92051  0.37463  0.57172  Biso   1.000  Pr
  W31      1.0000 0.92175  0.35773  0.11020  Biso   1.000  W
  W32      1.0000 0.83899  0.21514  0.05882  Biso   1.000  W
  W33      1.0000 0.74198  0.96096  0.10827  Biso   1.000  W
  W34      1.0000 0.00027  0.44562  0.26945  Biso   1.000  W
  W35      1.0000 0.66075  0.15614  0.04760  Biso   1.000  W
  W36      1.0000 0.87897  0.86472  0.19963  Biso   1.000  W
  W37      1.0000 0.73651  0.51378  0.09000  Biso   1.000  W
  W38      1.0000 0.72221  0.59087  0.28086  Biso   1.000  W
  W39      1.0000 0.49863  0.22487  0.13806  Biso   1.000  W
  W40      1.0000 0.91727  0.02096  0.11564  Biso   1.000  W
  W41      1.0000 0.04852  0.25221  0.20186  Biso   1.000  W
  W42      1.0000 0.57611  0.02802  0.19669  Biso   1.000  W
  W43      1.0000 0.59546  0.12540  0.31236  Biso   1.000  W
  W44      1.0000 0.86714  0.54719  0.17680  Biso   1.000  W
  W45      1.0000 0.65540  0.36561  0.03749  Biso   1.000  W
  W46      1.0000 0.72880  0.14794  0.39896  Biso   1.000  W
  W47      1.0000 0.84448  0.93524  0.37424  Biso   1.000  W
  W48      1.0000 0.04787  0.04535  0.20383  Biso   1.000  W
  W49      1.0000 0.72620  0.35683  0.39487  Biso   1.000  W
  W50      1.0000 0.08824  0.25522  0.33015  Biso   1.000  W
  W51      1.0000 0.01403  0.89096  0.28719  Biso   1.000  W
  W52      1.0000 0.85428  0.48247  0.37252  Biso   1.000  W
  W53      1.0000 0.70706  0.91674  0.28617  Biso   1.000  W
  W54      1.0000 0.58801  0.57619  0.19116  Biso   1.000  W
  W55      1.0000 0.50492  0.43278  0.13608  Biso   1.000  W
  W56      1.0000 0.51524  0.31774  0.25321  Biso   1.000  W
  W57      1.0000 0.59495  0.46154  0.30449  Biso   1.000  W
  W58      1.0000 0.93162  0.28412  0.42653  Biso   1.000  W
  W59      1.0000 0.93039  0.07310  0.42938  Biso   1.000  W
  W60      1.0000 0.08969  0.04400  0.33496  Biso   1.000  W
  P6       1.0000 0.89780  0.31220  0.30450  Biso   1.000  P
  P7       1.0000 0.89860  0.08310  0.30820  Biso   1.000  P
  P8       1.0000 0.75340  0.05840  0.21230  Biso   1.000  P
  P9       1.0000 0.66570  0.26920  0.14850  Biso   1.000  P
  P10      1.0000 0.75460  0.42520  0.20500  Biso   1.000  P
  O99      1.0000 0.68480  0.45750  0.06370  Biso   1.000  O
  O100     1.0000 0.71320  0.25640  0.39500  Biso   1.000  O
  O101     1.0000 0.79610  0.89000  0.14900  Biso   1.000  O
  O102     1.0000 0.54480  0.50820  0.15340  Biso   1.000  O
  O103     1.0000 0.91700  0.93410  0.15620  Biso   1.000  O
  O104     1.0000 0.76590  0.44480  0.38560  Biso   1.000  O
  O105     1.0000 0.89120  0.27260  0.08630  Biso   1.000  O
  O106     1.0000 0.63290  0.27340  0.03140  Biso   1.000  O
  O107     1.0000 0.53930  0.11140  0.16060  Biso   1.000  O
  O108     1.0000 0.04050  0.15110  0.19570  Biso   1.000  O
  O109     1.0000 0.92730  0.44400  0.14950  Biso   1.000  O
  O110     1.0000 0.03230  0.36120  0.22090  Biso   1.000  O
  O111     1.0000 0.82410  0.08050  0.18130  Biso   1.000  O
  O112     1.0000 0.05700  0.35860  0.31470  Biso   1.000  O
  O113     1.0000 0.55840  0.22850  0.29180  Biso   1.000  O
  O114     1.0000 0.05710  0.94410  0.32210  Biso   1.000  O
  O115     1.0000 0.48250  0.32670  0.12530  Biso   1.000  O
  O116     1.0000 0.64390  0.94320  0.23870  Biso   1.000  O
  O117     1.0000 0.08940  0.80270  0.27320  Biso   1.000  O
  O118     1.0000 0.65670  0.15370  0.35640  Biso   1.000  O
  O119     1.0000 0.75570  0.24300  0.13410  Biso   1.000  O
  O120     1.0000 0.68270  0.06090  0.07570  Biso   1.000  O
  O121     1.0000 0.95070  0.86120  0.34590  Biso   1.000  O
  O122     1.0000 0.88680  0.12240  0.09010  Biso   1.000  O
  O123     1.0000 0.98410  0.04650  0.15560  Biso   1.000  O
  O124     1.0000 0.55800  0.09150  0.25550  Biso   1.000  O
  O125     1.0000 0.49520  0.39740  0.20600  Biso   1.000  O
  O126     1.0000 0.63870  0.27810  0.20490  Biso   1.000  O
  O127     1.0000 0.14280  0.23790  0.16200  Biso   1.000  O
  O128     1.0000 0.79560  0.83760  0.24310  Biso   1.000  O
  O129     1.0000 0.65240  0.01740  0.31930  Biso   1.000  O
  O130     1.0000 0.76710  0.03460  0.39140  Biso   1.000  O
  O131     1.0000 0.70230  0.39830  0.24850  Biso   1.000  O
  O132     1.0000 0.55800  0.37950  0.28890  Biso   1.000  O
  O133     1.0000 0.90800  0.40170  0.40680  Biso   1.000  O
  O134     1.0000 0.81410  0.31150  0.32540  Biso   1.000  O
  O135     1.0000 0.83180  0.42720  0.08660  Biso   1.000  O
  O136     1.0000 0.79710  0.55910  0.13340  Biso   1.000  O
  O137     1.0000 0.89990  0.39700  0.30320  Biso   1.000  O
  O138     1.0000 0.93150  0.51050  0.23090  Biso   1.000  O
  O139     1.0000 0.54380  0.18250  0.07030  Biso   1.000  O
  O140     1.0000 0.93720  0.86260  0.24640  Biso   1.000  O
  O141     1.0000 0.98720  0.28840  0.15180  Biso   1.000  O
  O142     1.0000 0.82830  0.00340  0.09170  Biso   1.000  O
  O143     1.0000 0.78890  0.90920  0.32970  Biso   1.000  O
  O144     1.0000 0.03350  0.95020  0.23150  Biso   1.000  O
  O145     1.0000 0.63530  0.95980  0.13790  Biso   1.000  O
  O146     1.0000 0.66240  0.13070  0.98410  Biso   1.000  O
  O147     1.0000 0.93250  0.09740  0.25420  Biso   1.000  O
  O148     1.0000 0.49310  0.24960  0.20800  Biso   1.000  O
  O149     1.0000 0.78960  0.48420  0.22630  Biso   1.000  O
  O150     1.0000 0.76240  0.16330  0.04560  Biso   1.000  O
  O151     1.0000 0.55930  0.51490  0.24500  Biso   1.000  O
  O152     1.0000 0.79440  0.55350  0.32020  Biso   1.000  O
  O153     1.0000 0.81180  0.13660  0.32700  Biso   1.000  O
  O154     1.0000 0.69680  0.04680  0.17710  Biso   1.000  O
  O155     1.0000 0.08820  0.22520  0.26240  Biso   1.000  O
  O156     1.0000 0.08360  0.47860  0.25550  Biso   1.000  O
  O157     1.0000 0.04350  0.27260  0.40340  Biso   1.000  O
  O158     1.0000 0.93090  0.27430  0.25360  Biso   1.000  O
  O159     1.0000 0.65550  0.39440  0.35090  Biso   1.000  O
  O160     1.0000 0.54800  0.42680  0.06490  Biso   1.000  O
  O161     1.0000 0.90110  0.99750  0.31100  Biso   1.000  O
  O162     1.0000 0.95360  0.26920  0.34350  Biso   1.000  O
  O163     1.0000 0.82310  0.13630  0.42830  Biso   1.000  O
  O164     1.0000 0.09270  0.14010  0.34070  Biso   1.000  O
  O165     1.0000 0.64130  0.59360  0.12550  Biso   1.000  O
  O166     1.0000 0.69970  0.47020  0.16740  Biso   1.000  O
  O167     1.0000 0.04850  0.03390  0.40630  Biso   1.000  O
  O168     1.0000 0.94750  0.50190  0.33510  Biso   1.000  O
  O169     1.0000 0.78650  0.97850  0.23740  Biso   1.000  O
  O170     1.0000 0.79100  0.62380  0.22820  Biso   1.000  O
  O171     1.0000 0.62930  0.21220  0.12680  Biso   1.000  O
  O172     1.0000 0.65120  0.60830  0.22640  Biso   1.000  O
  O173     1.0000 0.92800  0.31000  0.49080  Biso   1.000  O
  O174     1.0000 0.70480  0.12140  0.25370  Biso   1.000  O
  O175     1.0000 0.95110  0.17870  0.43000  Biso   1.000  O
  O176     1.0000 0.90760  0.98610  0.41370  Biso   1.000  O
  O177     1.0000 0.95530  0.09140  0.34340  Biso   1.000  O
  O178     1.0000 0.09020  0.05050  0.26590  Biso   1.000  O
  O179     1.0000 0.40300  0.22380  0.13910  Biso   1.000  O
  O180     1.0000 0.65680  0.53070  0.30740  Biso   1.000  O
  O181     1.0000 0.75860  0.31330  0.04180  Biso   1.000  O
  O182     1.0000 0.82220  0.35910  0.17600  Biso   1.000  O
  O183     1.0000 0.63300  0.35030  0.12270  Biso   1.000  O
  O184     1.0000 0.82340  0.30960  0.42510  Biso   1.000  O
  O185     1.0000 0.37110  0.20930  0.03960  Biso   1.000  O
  O186     1.0000 0.47050  0.11880  0.98800  Biso   1.000  O
  O187     1.0000 0.14720  0.63430  0.25680  Biso   1.000  O
  O188     1.0000 0.65980  0.16450  0.87180  Biso   1.000  O
  O189     1.0000 0.65830  0.00640  0.83850  Biso   1.000  O
  O190     1.0000 0.32910  0.71700  0.14470  Biso   1.000  O
  O191     1.0000 0.06390  0.33650  0.53920  Biso   1.000  O
  O192     1.0000 0.85330  0.38540  0.66020  Biso   1.000  O
  O193     1.0000 0.19210  0.27900  0.54800  Biso   1.000  O
  O194     1.0000 0.31570  0.11870  0.13910  Biso   1.000  O
  N3       1.0000 0.01000  0.33720  0.63860  Biso   1.000  N
  C17      1.0000 0.09240  0.31310  0.62300  Biso   1.000  C
  C18      1.0000 0.14140  0.29680  0.65840  Biso   1.000  C
  H10      1.0000 0.19850  0.28010  0.64760  Biso   1.000  H
  C19      1.0000 0.10800  0.30450  0.70940  Biso   1.000  C
  H11      1.0000 0.14190  0.29310  0.73390  Biso   1.000  H
  C20      1.0000 0.02550  0.32850  0.72500  Biso   1.000  C
  H12      1.0000 0.00240  0.33390  0.76030  Biso   1.000  H
  C21      1.0000 0.97650  0.34490  0.68960  Biso   1.000  C
  C22      1.0000 0.10900  0.63300  0.30060  Biso   1.000  C
  C23      1.0000 0.12500  0.30700  0.56520  Biso   1.000  C
  N4       1.0000 0.53180  0.22140  0.94240  Biso   1.000  N
  C24      1.0000 0.46110  0.25040  0.97980  Biso   1.000  C
  C25      1.0000 0.42870  0.33150  0.99270  Biso   1.000  C
  H13      1.0000 0.38100  0.35110  0.01810  Biso   1.000  H
  C26      1.0000 0.46690  0.38350  0.96810  Biso   1.000  C
  H14      1.0000 0.44510  0.43820  0.97680  Biso   1.000  H
  C27      1.0000 0.53760  0.35440  0.93060  Biso   1.000  C
  H15      1.0000 0.56340  0.38950  0.91400  Biso   1.000  H
  C28      1.0000 0.57010  0.27340  0.91770  Biso   1.000  C
  C29      1.0000 0.43090  0.19110  0.00630  Biso   1.000  C
  C30      1.0000 0.63900  0.23450  0.87610  Biso   1.000  C
  C31      1.0000 0.72900  0.91200  0.77360  Biso   1.000  C
  H16      1.0000 0.72890  0.95980  0.75520  Biso   1.000  H
  H17      1.0000 0.69760  0.88540  0.75870  Biso   1.000  H
  H18      1.0000 0.78440  0.87700  0.77110  Biso   1.000  H
  C32      1.0000 0.68900  0.93520  0.83150  Biso   1.000  C
  O195     1.0000 0.31750  0.37050  0.11130  Biso   1.000  O
  O196     1.0000 0.25220  0.59940  0.15700  Biso   1.000  O
  Na3      1.0000 0.17640  0.51540  0.19090  Biso   1.000  Na
  Na4      1.0000 0.74060  0.50850  0.94230  Biso   1.000  Na
