data_image0
_cell_length_a       18.555
_cell_length_b       18.555
_cell_length_c       38.688
_cell_angle_alpha    90
_cell_angle_beta     90
_cell_angle_gamma    120

_symmetry_space_group_name_H-M    "P 1"
_symmetry_int_tables_number       1

loop_
  _symmetry_equiv_pos_as_xyz
  'x, y, z'

loop_
  _atom_site_label
  _atom_site_occupancy
  _atom_site_fract_x
  _atom_site_fract_y
  _atom_site_fract_z
  _atom_site_thermal_displace_type
  _atom_site_B_iso_or_equiv
  _atom_site_type_symbol
  O1       1.0000 0.48161  0.37136  0.99709  Biso   1.000  O
  O2       1.0000 0.44086  0.41067  0.04439  Biso   1.000  O
  C1       1.0000 0.45270  0.36070  0.02737  Biso   1.000  C
  C2       1.0000 0.43120  0.28070  0.04421  Biso   1.000  C
  C3       1.0000 0.40060  0.26480  0.07796  Biso   1.000  C
  H1       1.0000 0.39030  0.30300  0.08920  Biso   1.000  H
  C4       1.0000 0.29300  0.18970  0.14340  Biso   1.000  C
  C5       1.0000 0.39690  0.24390  0.15560  Biso   1.000  C
  O3       1.0000 0.14828  0.70469  0.33042  Biso   1.000  O
  O4       1.0000 0.10753  0.74400  0.37772  Biso   1.000  O
  C6       1.0000 0.11937  0.69403  0.36070  Biso   1.000  C
  C7       1.0000 0.09787  0.61403  0.37754  Biso   1.000  C
  C8       1.0000 0.06727  0.59813  0.41129  Biso   1.000  C
  H2       1.0000 0.05697  0.63633  0.42253  Biso   1.000  H
  C9       1.0000 0.95967  0.52303  0.47673  Biso   1.000  C
  C10      1.0000 0.06357  0.57723  0.48893  Biso   1.000  C
  O5       1.0000 0.81494  0.03803  0.66376  Biso   1.000  O
  O6       1.0000 0.77419  0.07734  0.71106  Biso   1.000  O
  C11      1.0000 0.78603  0.02737  0.69404  Biso   1.000  C
  C12      1.0000 0.76453  0.94737  0.71088  Biso   1.000  C
  C13      1.0000 0.73393  0.93147  0.74463  Biso   1.000  C
  H3       1.0000 0.72363  0.96967  0.75587  Biso   1.000  H
  C14      1.0000 0.62633  0.85637  0.81007  Biso   1.000  C
  C15      1.0000 0.73023  0.91057  0.82227  Biso   1.000  C
  O7       1.0000 0.62864  0.11025  0.99709  Biso   1.000  O
  O8       1.0000 0.58933  0.03019  0.04439  Biso   1.000  O
  C16      1.0000 0.63930  0.09200  0.02737  Biso   1.000  C
  C17      1.0000 0.71930  0.15050  0.04421  Biso   1.000  C
  C18      1.0000 0.73520  0.13580  0.07796  Biso   1.000  C
  H4       1.0000 0.69700  0.08730  0.08920  Biso   1.000  H
  C19      1.0000 0.81030  0.10330  0.14340  Biso   1.000  C
  C20      1.0000 0.75610  0.15300  0.15560  Biso   1.000  C
  O9       1.0000 0.29531  0.44358  0.33042  Biso   1.000  O
  O10      1.0000 0.25600  0.36352  0.37772  Biso   1.000  O
  C21      1.0000 0.30597  0.42533  0.36070  Biso   1.000  C
  C22      1.0000 0.38597  0.48383  0.37754  Biso   1.000  C
  C23      1.0000 0.40187  0.46913  0.41129  Biso   1.000  C
  H5       1.0000 0.36367  0.42063  0.42253  Biso   1.000  H
  C24      1.0000 0.47697  0.43663  0.47673  Biso   1.000  C
  C25      1.0000 0.42277  0.48633  0.48893  Biso   1.000  C
  O11      1.0000 0.96197  0.77692  0.66376  Biso   1.000  O
  O12      1.0000 0.92266  0.69686  0.71106  Biso   1.000  O
  C26      1.0000 0.97263  0.75867  0.69404  Biso   1.000  C
  C27      1.0000 0.05263  0.81717  0.71088  Biso   1.000  C
  C28      1.0000 0.06853  0.80247  0.74463  Biso   1.000  C
  H6       1.0000 0.03033  0.75397  0.75587  Biso   1.000  H
  C29      1.0000 0.14363  0.76997  0.81007  Biso   1.000  C
  C30      1.0000 0.08943  0.81967  0.82227  Biso   1.000  C
  O13      1.0000 0.88975  0.51839  0.99709  Biso   1.000  O
  O14      1.0000 0.96981  0.55914  0.04439  Biso   1.000  O
  C31      1.0000 0.90800  0.54730  0.02737  Biso   1.000  C
  C32      1.0000 0.84950  0.56880  0.04421  Biso   1.000  C
  C33      1.0000 0.86420  0.59940  0.07796  Biso   1.000  C
  H7       1.0000 0.91270  0.60970  0.08920  Biso   1.000  H
  C34      1.0000 0.89670  0.70700  0.14340  Biso   1.000  C
  C35      1.0000 0.84700  0.60310  0.15560  Biso   1.000  C
  O15      1.0000 0.55642  0.85172  0.33042  Biso   1.000  O
  O16      1.0000 0.63648  0.89247  0.37772  Biso   1.000  O
  C36      1.0000 0.57467  0.88063  0.36070  Biso   1.000  C
  C37      1.0000 0.51617  0.90213  0.37754  Biso   1.000  C
  C38      1.0000 0.53087  0.93273  0.41129  Biso   1.000  C
  H8       1.0000 0.57937  0.94303  0.42253  Biso   1.000  H
  C39      1.0000 0.56337  0.04033  0.47673  Biso   1.000  C
  C40      1.0000 0.51367  0.93643  0.48893  Biso   1.000  C
  O17      1.0000 0.22308  0.18506  0.66376  Biso   1.000  O
  O18      1.0000 0.30314  0.22581  0.71106  Biso   1.000  O
  C41      1.0000 0.24133  0.21397  0.69404  Biso   1.000  C
  C42      1.0000 0.18283  0.23547  0.71088  Biso   1.000  C
  C43      1.0000 0.19753  0.26607  0.74463  Biso   1.000  C
  H9       1.0000 0.24603  0.27637  0.75587  Biso   1.000  H
  C44      1.0000 0.23003  0.37367  0.81007  Biso   1.000  C
  C45      1.0000 0.18033  0.26977  0.82227  Biso   1.000  C
  O19      1.0000 0.37136  0.48161  0.00291  Biso   1.000  O
  O20      1.0000 0.41067  0.44086  0.95561  Biso   1.000  O
  C46      1.0000 0.36070  0.45270  0.97263  Biso   1.000  C
  C47      1.0000 0.28070  0.43120  0.95579  Biso   1.000  C
  C48      1.0000 0.26480  0.40060  0.92204  Biso   1.000  C
  H10      1.0000 0.30300  0.39030  0.91080  Biso   1.000  H
  C49      1.0000 0.18970  0.29300  0.85660  Biso   1.000  C
  C50      1.0000 0.24390  0.39690  0.84440  Biso   1.000  C
  O21      1.0000 0.03803  0.81494  0.33624  Biso   1.000  O
  O22      1.0000 0.07734  0.77419  0.28894  Biso   1.000  O
  C51      1.0000 0.02737  0.78603  0.30596  Biso   1.000  C
  C52      1.0000 0.94737  0.76453  0.28912  Biso   1.000  C
  C53      1.0000 0.93147  0.73393  0.25537  Biso   1.000  C
  H11      1.0000 0.96967  0.72363  0.24413  Biso   1.000  H
  C54      1.0000 0.85637  0.62633  0.18993  Biso   1.000  C
  C55      1.0000 0.91057  0.73023  0.17773  Biso   1.000  C
  O23      1.0000 0.70469  0.14828  0.66958  Biso   1.000  O
  O24      1.0000 0.74400  0.10753  0.62228  Biso   1.000  O
  C56      1.0000 0.69403  0.11937  0.63930  Biso   1.000  C
  C57      1.0000 0.61403  0.09787  0.62246  Biso   1.000  C
  C58      1.0000 0.59813  0.06727  0.58871  Biso   1.000  C
  H12      1.0000 0.63633  0.05697  0.57747  Biso   1.000  H
  C59      1.0000 0.52303  0.95967  0.52327  Biso   1.000  C
  C60      1.0000 0.57723  0.06357  0.51107  Biso   1.000  C
  O25      1.0000 0.11025  0.62864  0.00291  Biso   1.000  O
  O26      1.0000 0.03019  0.58933  0.95561  Biso   1.000  O
  C61      1.0000 0.09200  0.63930  0.97263  Biso   1.000  C
  C62      1.0000 0.15050  0.71930  0.95579  Biso   1.000  C
  C63      1.0000 0.13580  0.73520  0.92204  Biso   1.000  C
  H13      1.0000 0.08730  0.69700  0.91080  Biso   1.000  H
  C64      1.0000 0.10330  0.81030  0.85660  Biso   1.000  C
  C65      1.0000 0.15300  0.75610  0.84440  Biso   1.000  C
  O27      1.0000 0.77692  0.96197  0.33624  Biso   1.000  O
  O28      1.0000 0.69686  0.92266  0.28894  Biso   1.000  O
  C66      1.0000 0.75867  0.97263  0.30596  Biso   1.000  C
  C67      1.0000 0.81717  0.05263  0.28912  Biso   1.000  C
  C68      1.0000 0.80247  0.06853  0.25537  Biso   1.000  C
  H14      1.0000 0.75397  0.03033  0.24413  Biso   1.000  H
  C69      1.0000 0.76997  0.14363  0.18993  Biso   1.000  C
  C70      1.0000 0.81967  0.08943  0.17773  Biso   1.000  C
  O29      1.0000 0.44358  0.29531  0.66958  Biso   1.000  O
  O30      1.0000 0.36352  0.25600  0.62228  Biso   1.000  O
  C71      1.0000 0.42533  0.30597  0.63930  Biso   1.000  C
  C72      1.0000 0.48383  0.38597  0.62246  Biso   1.000  C
  C73      1.0000 0.46913  0.40187  0.58871  Biso   1.000  C
  H15      1.0000 0.42063  0.36367  0.57747  Biso   1.000  H
  C74      1.0000 0.43663  0.47697  0.52327  Biso   1.000  C
  C75      1.0000 0.48633  0.42277  0.51107  Biso   1.000  C
  O31      1.0000 0.51839  0.88975  0.00291  Biso   1.000  O
  O32      1.0000 0.55914  0.96981  0.95561  Biso   1.000  O
  C76      1.0000 0.54730  0.90800  0.97263  Biso   1.000  C
  C77      1.0000 0.56880  0.84950  0.95579  Biso   1.000  C
  C78      1.0000 0.59940  0.86420  0.92204  Biso   1.000  C
  H16      1.0000 0.60970  0.91270  0.91080  Biso   1.000  H
  C79      1.0000 0.70700  0.89670  0.85660  Biso   1.000  C
  C80      1.0000 0.60310  0.84700  0.84440  Biso   1.000  C
  O33      1.0000 0.18506  0.22308  0.33624  Biso   1.000  O
  O34      1.0000 0.22581  0.30314  0.28894  Biso   1.000  O
  C81      1.0000 0.21397  0.24133  0.30596  Biso   1.000  C
  C82      1.0000 0.23547  0.18283  0.28912  Biso   1.000  C
  C83      1.0000 0.26607  0.19753  0.25537  Biso   1.000  C
  H17      1.0000 0.27637  0.24603  0.24413  Biso   1.000  H
  C84      1.0000 0.37367  0.23003  0.18993  Biso   1.000  C
  C85      1.0000 0.26977  0.18033  0.17773  Biso   1.000  C
  O35      1.0000 0.85172  0.55642  0.66958  Biso   1.000  O
  O36      1.0000 0.89247  0.63648  0.62228  Biso   1.000  O
  C86      1.0000 0.88063  0.57467  0.63930  Biso   1.000  C
  C87      1.0000 0.90213  0.51617  0.62246  Biso   1.000  C
  C88      1.0000 0.93273  0.53087  0.58871  Biso   1.000  C
  H18      1.0000 0.94303  0.57937  0.57747  Biso   1.000  H
  C89      1.0000 0.04033  0.56337  0.52327  Biso   1.000  C
  C90      1.0000 0.93643  0.51367  0.51107  Biso   1.000  C
  O37      1.0000 0.51839  0.62864  0.00291  Biso   1.000  O
  O38      1.0000 0.55914  0.58933  0.95561  Biso   1.000  O
  C91      1.0000 0.54730  0.63930  0.97263  Biso   1.000  C
  C92      1.0000 0.56880  0.71930  0.95579  Biso   1.000  C
  C93      1.0000 0.59940  0.73520  0.92204  Biso   1.000  C
  H19      1.0000 0.60970  0.69700  0.91080  Biso   1.000  H
  C94      1.0000 0.70700  0.81030  0.85660  Biso   1.000  C
  C95      1.0000 0.60310  0.75610  0.84440  Biso   1.000  C
  O39      1.0000 0.18506  0.96197  0.33624  Biso   1.000  O
  O40      1.0000 0.22581  0.92266  0.28894  Biso   1.000  O
  C96      1.0000 0.21397  0.97263  0.30596  Biso   1.000  C
  C97      1.0000 0.23547  0.05263  0.28912  Biso   1.000  C
  C98      1.0000 0.26607  0.06853  0.25537  Biso   1.000  C
  H20      1.0000 0.27637  0.03033  0.24413  Biso   1.000  H
  C99      1.0000 0.37367  0.14363  0.18993  Biso   1.000  C
  C100     1.0000 0.26977  0.08943  0.17773  Biso   1.000  C
  O41      1.0000 0.85172  0.29531  0.66958  Biso   1.000  O
  O42      1.0000 0.89247  0.25600  0.62228  Biso   1.000  O
  C101     1.0000 0.88063  0.30597  0.63930  Biso   1.000  C
  C102     1.0000 0.90213  0.38597  0.62246  Biso   1.000  C
  C103     1.0000 0.93273  0.40187  0.58871  Biso   1.000  C
  H21      1.0000 0.94303  0.36367  0.57747  Biso   1.000  H
  C104     1.0000 0.04033  0.47697  0.52327  Biso   1.000  C
  C105     1.0000 0.93643  0.42277  0.51107  Biso   1.000  C
  O43      1.0000 0.37136  0.88975  0.00291  Biso   1.000  O
  O44      1.0000 0.41067  0.96981  0.95561  Biso   1.000  O
  C106     1.0000 0.36070  0.90800  0.97263  Biso   1.000  C
  C107     1.0000 0.28070  0.84950  0.95579  Biso   1.000  C
  C108     1.0000 0.26480  0.86420  0.92204  Biso   1.000  C
  H22      1.0000 0.30300  0.91270  0.91080  Biso   1.000  H
  C109     1.0000 0.18970  0.89670  0.85660  Biso   1.000  C
  C110     1.0000 0.24390  0.84700  0.84440  Biso   1.000  C
  O45      1.0000 0.03803  0.22308  0.33624  Biso   1.000  O
  O46      1.0000 0.07734  0.30314  0.28894  Biso   1.000  O
  C111     1.0000 0.02737  0.24133  0.30596  Biso   1.000  C
  C112     1.0000 0.94737  0.18283  0.28912  Biso   1.000  C
  C113     1.0000 0.93147  0.19753  0.25537  Biso   1.000  C
  H23      1.0000 0.96967  0.24603  0.24413  Biso   1.000  H
  C114     1.0000 0.85637  0.23003  0.18993  Biso   1.000  C
  C115     1.0000 0.91057  0.18033  0.17773  Biso   1.000  C
  O47      1.0000 0.70469  0.55642  0.66958  Biso   1.000  O
  O48      1.0000 0.74400  0.63648  0.62228  Biso   1.000  O
  C116     1.0000 0.69403  0.57467  0.63930  Biso   1.000  C
  C117     1.0000 0.61403  0.51617  0.62246  Biso   1.000  C
  C118     1.0000 0.59813  0.53087  0.58871  Biso   1.000  C
  H24      1.0000 0.63633  0.57937  0.57747  Biso   1.000  H
  C119     1.0000 0.52303  0.56337  0.52327  Biso   1.000  C
  C120     1.0000 0.57723  0.51367  0.51107  Biso   1.000  C
  O49      1.0000 0.11025  0.48161  0.00291  Biso   1.000  O
  O50      1.0000 0.03019  0.44086  0.95561  Biso   1.000  O
  C121     1.0000 0.09200  0.45270  0.97263  Biso   1.000  C
  C122     1.0000 0.15050  0.43120  0.95579  Biso   1.000  C
  C123     1.0000 0.13580  0.40060  0.92204  Biso   1.000  C
  H25      1.0000 0.08730  0.39030  0.91080  Biso   1.000  H
  C124     1.0000 0.10330  0.29300  0.85660  Biso   1.000  C
  C125     1.0000 0.15300  0.39690  0.84440  Biso   1.000  C
  O51      1.0000 0.77692  0.81494  0.33624  Biso   1.000  O
  O52      1.0000 0.69686  0.77419  0.28894  Biso   1.000  O
  C126     1.0000 0.75867  0.78603  0.30596  Biso   1.000  C
  C127     1.0000 0.81717  0.76453  0.28912  Biso   1.000  C
  C128     1.0000 0.80247  0.73393  0.25537  Biso   1.000  C
  H26      1.0000 0.75397  0.72363  0.24413  Biso   1.000  H
  C129     1.0000 0.76997  0.62633  0.18993  Biso   1.000  C
  C130     1.0000 0.81967  0.73023  0.17773  Biso   1.000  C
  O53      1.0000 0.44358  0.14828  0.66958  Biso   1.000  O
  O54      1.0000 0.36352  0.10753  0.62228  Biso   1.000  O
  C131     1.0000 0.42533  0.11937  0.63930  Biso   1.000  C
  C132     1.0000 0.48383  0.09787  0.62246  Biso   1.000  C
  C133     1.0000 0.46913  0.06727  0.58871  Biso   1.000  C
  H27      1.0000 0.42063  0.05697  0.57747  Biso   1.000  H
  C134     1.0000 0.43663  0.95967  0.52327  Biso   1.000  C
  C135     1.0000 0.48633  0.06357  0.51107  Biso   1.000  C
  O55      1.0000 0.62864  0.51839  0.99709  Biso   1.000  O
  O56      1.0000 0.58933  0.55914  0.04439  Biso   1.000  O
  C136     1.0000 0.63930  0.54730  0.02737  Biso   1.000  C
  C137     1.0000 0.71930  0.56880  0.04421  Biso   1.000  C
  C138     1.0000 0.73520  0.59940  0.07796  Biso   1.000  C
  H28      1.0000 0.69700  0.60970  0.08920  Biso   1.000  H
  C139     1.0000 0.81030  0.70700  0.14340  Biso   1.000  C
  C140     1.0000 0.75610  0.60310  0.15560  Biso   1.000  C
  O57      1.0000 0.29531  0.85172  0.33042  Biso   1.000  O
  O58      1.0000 0.25600  0.89247  0.37772  Biso   1.000  O
  C141     1.0000 0.30597  0.88063  0.36070  Biso   1.000  C
  C142     1.0000 0.38597  0.90213  0.37754  Biso   1.000  C
  C143     1.0000 0.40187  0.93273  0.41129  Biso   1.000  C
  H29      1.0000 0.36367  0.94303  0.42253  Biso   1.000  H
  C144     1.0000 0.47697  0.04033  0.47673  Biso   1.000  C
  C145     1.0000 0.42277  0.93643  0.48893  Biso   1.000  C
  O59      1.0000 0.96197  0.18506  0.66376  Biso   1.000  O
  O60      1.0000 0.92266  0.22581  0.71106  Biso   1.000  O
  C146     1.0000 0.97263  0.21397  0.69404  Biso   1.000  C
  C147     1.0000 0.05263  0.23547  0.71088  Biso   1.000  C
  C148     1.0000 0.06853  0.26607  0.74463  Biso   1.000  C
  H30      1.0000 0.03033  0.27637  0.75587  Biso   1.000  H
  C149     1.0000 0.14363  0.37367  0.81007  Biso   1.000  C
  C150     1.0000 0.08943  0.26977  0.82227  Biso   1.000  C
  O61      1.0000 0.88975  0.37136  0.99709  Biso   1.000  O
  O62      1.0000 0.96981  0.41067  0.04439  Biso   1.000  O
  C151     1.0000 0.90800  0.36070  0.02737  Biso   1.000  C
  C152     1.0000 0.84950  0.28070  0.04421  Biso   1.000  C
  C153     1.0000 0.86420  0.26480  0.07796  Biso   1.000  C
  H31      1.0000 0.91270  0.30300  0.08920  Biso   1.000  H
  C154     1.0000 0.89670  0.18970  0.14340  Biso   1.000  C
  C155     1.0000 0.84700  0.24390  0.15560  Biso   1.000  C
  O63      1.0000 0.55642  0.70469  0.33042  Biso   1.000  O
  O64      1.0000 0.63648  0.74400  0.37772  Biso   1.000  O
  C156     1.0000 0.57467  0.69403  0.36070  Biso   1.000  C
  C157     1.0000 0.51617  0.61403  0.37754  Biso   1.000  C
  C158     1.0000 0.53087  0.59813  0.41129  Biso   1.000  C
  H32      1.0000 0.57937  0.63633  0.42253  Biso   1.000  H
  C159     1.0000 0.56337  0.52303  0.47673  Biso   1.000  C
  C160     1.0000 0.51367  0.57723  0.48893  Biso   1.000  C
  O65      1.0000 0.22308  0.03803  0.66376  Biso   1.000  O
  O66      1.0000 0.30314  0.07734  0.71106  Biso   1.000  O
  C161     1.0000 0.24133  0.02737  0.69404  Biso   1.000  C
  C162     1.0000 0.18283  0.94737  0.71088  Biso   1.000  C
  C163     1.0000 0.19753  0.93147  0.74463  Biso   1.000  C
  H33      1.0000 0.24603  0.96967  0.75587  Biso   1.000  H
  C164     1.0000 0.23003  0.85637  0.81007  Biso   1.000  C
  C165     1.0000 0.18033  0.91057  0.82227  Biso   1.000  C
  O67      1.0000 0.48161  0.11025  0.99709  Biso   1.000  O
  O68      1.0000 0.44086  0.03019  0.04439  Biso   1.000  O
  C166     1.0000 0.45270  0.09200  0.02737  Biso   1.000  C
  C167     1.0000 0.43120  0.15050  0.04421  Biso   1.000  C
  C168     1.0000 0.40060  0.13580  0.07796  Biso   1.000  C
  H34      1.0000 0.39030  0.08730  0.08920  Biso   1.000  H
  C169     1.0000 0.29300  0.10330  0.14340  Biso   1.000  C
  C170     1.0000 0.39690  0.15300  0.15560  Biso   1.000  C
  O69      1.0000 0.14828  0.44358  0.33042  Biso   1.000  O
  O70      1.0000 0.10753  0.36352  0.37772  Biso   1.000  O
  C171     1.0000 0.11937  0.42533  0.36070  Biso   1.000  C
  C172     1.0000 0.09787  0.48383  0.37754  Biso   1.000  C
  C173     1.0000 0.06727  0.46913  0.41129  Biso   1.000  C
  H35      1.0000 0.05697  0.42063  0.42253  Biso   1.000  H
  C174     1.0000 0.95967  0.43663  0.47673  Biso   1.000  C
  C175     1.0000 0.06357  0.48633  0.48893  Biso   1.000  C
  O71      1.0000 0.81494  0.77692  0.66376  Biso   1.000  O
  O72      1.0000 0.77419  0.69686  0.71106  Biso   1.000  O
  C176     1.0000 0.78603  0.75867  0.69404  Biso   1.000  C
  C177     1.0000 0.76453  0.81717  0.71088  Biso   1.000  C
  C178     1.0000 0.73393  0.80247  0.74463  Biso   1.000  C
  H36      1.0000 0.72363  0.75397  0.75587  Biso   1.000  H
  C179     1.0000 0.62633  0.76997  0.81007  Biso   1.000  C
  C180     1.0000 0.73023  0.81967  0.82227  Biso   1.000  C
  Cu1      1.0000 0.52396  0.47604  0.97199  Biso   1.000  Cu
  Cu2      1.0000 0.19063  0.80937  0.30533  Biso   1.000  Cu
  Cu3      1.0000 0.85729  0.14271  0.63866  Biso   1.000  Cu
  Cu4      1.0000 0.52396  0.04792  0.97199  Biso   1.000  Cu
  Cu5      1.0000 0.19063  0.38125  0.30533  Biso   1.000  Cu
  Cu6      1.0000 0.85729  0.71459  0.63866  Biso   1.000  Cu
  Cu7      1.0000 0.95208  0.47604  0.97199  Biso   1.000  Cu
  Cu8      1.0000 0.61875  0.80937  0.30533  Biso   1.000  Cu
  Cu9      1.0000 0.28541  0.14271  0.63866  Biso   1.000  Cu
  Cu10     1.0000 0.47604  0.52396  0.02801  Biso   1.000  Cu
  Cu11     1.0000 0.14271  0.85729  0.36134  Biso   1.000  Cu
  Cu12     1.0000 0.80937  0.19063  0.69467  Biso   1.000  Cu
  Cu13     1.0000 0.04792  0.52396  0.02801  Biso   1.000  Cu
  Cu14     1.0000 0.71459  0.85729  0.36134  Biso   1.000  Cu
  Cu15     1.0000 0.38125  0.19063  0.69467  Biso   1.000  Cu
  Cu16     1.0000 0.47604  0.95208  0.02801  Biso   1.000  Cu
  Cu17     1.0000 0.14271  0.28541  0.36134  Biso   1.000  Cu
  Cu18     1.0000 0.80937  0.61875  0.69467  Biso   1.000  Cu
  C181     1.0000 0.38550  0.19275  0.09490  Biso   1.000  C
  C182     1.0000 0.44460  0.22230  0.02785  Biso   1.000  C
  H37      1.0000 0.46320  0.23160  0.00510  Biso   1.000  H
  C183     1.0000 0.35680  0.17840  0.13205  Biso   1.000  C
  C184     1.0000 0.05217  0.52608  0.42823  Biso   1.000  C
  C185     1.0000 0.11127  0.55563  0.36118  Biso   1.000  C
  H38      1.0000 0.12987  0.56493  0.33843  Biso   1.000  H
  C186     1.0000 0.02347  0.51173  0.46538  Biso   1.000  C
  C187     1.0000 0.71883  0.85942  0.76157  Biso   1.000  C
  C188     1.0000 0.77793  0.88897  0.69452  Biso   1.000  C
  H39      1.0000 0.79653  0.89827  0.67177  Biso   1.000  H
  C189     1.0000 0.69013  0.84507  0.79872  Biso   1.000  C
  C190     1.0000 0.80725  0.19275  0.09490  Biso   1.000  C
  C191     1.0000 0.77770  0.22230  0.02785  Biso   1.000  C
  H40      1.0000 0.76840  0.23160  0.00510  Biso   1.000  H
  C192     1.0000 0.82160  0.17840  0.13205  Biso   1.000  C
  C193     1.0000 0.47392  0.52608  0.42823  Biso   1.000  C
  C194     1.0000 0.44437  0.55563  0.36118  Biso   1.000  C
  H41      1.0000 0.43507  0.56493  0.33843  Biso   1.000  H
  C195     1.0000 0.48827  0.51173  0.46538  Biso   1.000  C
  C196     1.0000 0.14058  0.85942  0.76157  Biso   1.000  C
  C197     1.0000 0.11103  0.88897  0.69452  Biso   1.000  C
  H42      1.0000 0.10173  0.89827  0.67177  Biso   1.000  H
  C198     1.0000 0.15493  0.84507  0.79872  Biso   1.000  C
  C199     1.0000 0.80725  0.61450  0.09490  Biso   1.000  C
  C200     1.0000 0.77770  0.55540  0.02785  Biso   1.000  C
  H43      1.0000 0.76840  0.53680  0.00510  Biso   1.000  H
  C201     1.0000 0.82160  0.64320  0.13205  Biso   1.000  C
  C202     1.0000 0.47392  0.94783  0.42823  Biso   1.000  C
  C203     1.0000 0.44437  0.88873  0.36118  Biso   1.000  C
  H44      1.0000 0.43507  0.87013  0.33843  Biso   1.000  H
  C204     1.0000 0.48827  0.97653  0.46538  Biso   1.000  C
  C205     1.0000 0.14058  0.28117  0.76157  Biso   1.000  C
  C206     1.0000 0.11103  0.22207  0.69452  Biso   1.000  C
  H45      1.0000 0.10173  0.20347  0.67177  Biso   1.000  H
  C207     1.0000 0.15493  0.30987  0.79872  Biso   1.000  C
  C208     1.0000 0.19275  0.38550  0.90510  Biso   1.000  C
  C209     1.0000 0.22230  0.44460  0.97215  Biso   1.000  C
  H46      1.0000 0.23160  0.46320  0.99490  Biso   1.000  H
  C210     1.0000 0.17840  0.35680  0.86795  Biso   1.000  C
  C211     1.0000 0.85942  0.71883  0.23843  Biso   1.000  C
  C212     1.0000 0.88897  0.77793  0.30548  Biso   1.000  C
  H47      1.0000 0.89827  0.79653  0.32823  Biso   1.000  H
  C213     1.0000 0.84507  0.69013  0.20128  Biso   1.000  C
  C214     1.0000 0.52608  0.05217  0.57177  Biso   1.000  C
  C215     1.0000 0.55563  0.11127  0.63882  Biso   1.000  C
  H48      1.0000 0.56493  0.12987  0.66157  Biso   1.000  H
  C216     1.0000 0.51173  0.02347  0.53462  Biso   1.000  C
  C217     1.0000 0.19275  0.80725  0.90510  Biso   1.000  C
  C218     1.0000 0.22230  0.77770  0.97215  Biso   1.000  C
  H49      1.0000 0.23160  0.76840  0.99490  Biso   1.000  H
  C219     1.0000 0.17840  0.82160  0.86795  Biso   1.000  C
  C220     1.0000 0.85942  0.14058  0.23843  Biso   1.000  C
  C221     1.0000 0.88897  0.11103  0.30548  Biso   1.000  C
  H50      1.0000 0.89827  0.10173  0.32823  Biso   1.000  H
  C222     1.0000 0.84507  0.15493  0.20128  Biso   1.000  C
  C223     1.0000 0.52608  0.47392  0.57177  Biso   1.000  C
  C224     1.0000 0.55563  0.44437  0.63882  Biso   1.000  C
  H51      1.0000 0.56493  0.43507  0.66157  Biso   1.000  H
  C225     1.0000 0.51173  0.48827  0.53462  Biso   1.000  C
  C226     1.0000 0.61450  0.80725  0.90510  Biso   1.000  C
  C227     1.0000 0.55540  0.77770  0.97215  Biso   1.000  C
  H52      1.0000 0.53680  0.76840  0.99490  Biso   1.000  H
  C228     1.0000 0.64320  0.82160  0.86795  Biso   1.000  C
  C229     1.0000 0.28117  0.14058  0.23843  Biso   1.000  C
  C230     1.0000 0.22207  0.11103  0.30548  Biso   1.000  C
  H53      1.0000 0.20347  0.10173  0.32823  Biso   1.000  H
  C231     1.0000 0.30987  0.15493  0.20128  Biso   1.000  C
  C232     1.0000 0.94783  0.47392  0.57177  Biso   1.000  C
  C233     1.0000 0.88873  0.44437  0.63882  Biso   1.000  C
  H54      1.0000 0.87013  0.43507  0.66157  Biso   1.000  H
  C234     1.0000 0.97653  0.48827  0.53462  Biso   1.000  C
