data_image0
_cell_length_a       9.668
_cell_length_b       9.6572
_cell_length_c       10.623
_cell_angle_alpha    74.161
_cell_angle_beta     74.675
_cell_angle_gamma    88.974

_symmetry_space_group_name_H-M    "P 1"
_symmetry_int_tables_number       1

loop_
  _symmetry_equiv_pos_as_xyz
  'x, y, z'

loop_
  _atom_site_label
  _atom_site_occupancy
  _atom_site_fract_x
  _atom_site_fract_y
  _atom_site_fract_z
  _atom_site_thermal_displace_type
  _atom_site_B_iso_or_equiv
  _atom_site_type_symbol
  P1       1.0000 0.50270  0.96880  0.79450  Biso   1.000  P
  P2       1.0000 0.27570  0.47590  0.90280  Biso   1.000  P
  P3       1.0000 0.03420  0.79960  0.64970  Biso   1.000  P
  P4       1.0000 0.18720  0.76790  0.14010  Biso   1.000  P
  Al1      1.0000 0.23140  0.78650  0.83900  Biso   1.000  Al
  Al2      1.0000 0.48480  0.22470  0.92230  Biso   1.000  Al
  Al3      1.0000 0.17820  0.95140  0.34210  Biso   1.000  Al
  Al4      1.0000 0.97720  0.50050  0.86710  Biso   1.000  Al
  O1       1.0000 0.16710  0.44680  0.83050  Biso   1.000  O
  O2       1.0000 0.40370  0.38300  0.87710  Biso   1.000  O
  O3       1.0000 0.19930  0.84310  0.99050  Biso   1.000  O
  O4       1.0000 0.44740  0.09320  0.85260  Biso   1.000  O
  O5       1.0000 0.38810  0.91310  0.74560  Biso   1.000  O
  O6       1.0000 0.33730  0.63410  0.83840  Biso   1.000  O
  O7       1.0000 0.99260  0.64070  0.70730  Biso   1.000  O
  O8       1.0000 0.10550  0.83090  0.49790  Biso   1.000  O
  O9       1.0000 0.04840  0.63980  0.94740  Biso   1.000  O
  O10      1.0000 0.21080  0.45010  0.05550  Biso   1.000  O
  O11      1.0000 0.13550  0.85190  0.71730  Biso   1.000  O
  O12      1.0000 0.33510  0.71700  0.15380  Biso   1.000  O
  O13      1.0000 0.14570  0.88220  0.21690  Biso   1.000  O
  O14      1.0000 0.63850  0.01980  0.67800  Biso   1.000  O
  O15      1.0000 0.54600  0.84820  0.90370  Biso   1.000  O
  O16      1.0000 0.07980  0.64090  0.19790  Biso   1.000  O
  O17      1.0000 0.89690  0.88240  0.66890  Biso   1.000  O
  H1       1.0000 0.97310  0.69680  0.96800  Biso   1.000  H
  P5       1.0000 0.49730  0.03120  0.20550  Biso   1.000  P
  P6       1.0000 0.72430  0.52410  0.09720  Biso   1.000  P
  P7       1.0000 0.96580  0.20040  0.35030  Biso   1.000  P
  P8       1.0000 0.81280  0.23210  0.85990  Biso   1.000  P
  Al5      1.0000 0.76860  0.21350  0.16100  Biso   1.000  Al
  Al6      1.0000 0.51520  0.77530  0.07770  Biso   1.000  Al
  Al7      1.0000 0.82180  0.04860  0.65790  Biso   1.000  Al
  Al8      1.0000 0.02280  0.49950  0.13290  Biso   1.000  Al
  O18      1.0000 0.83290  0.55320  0.16950  Biso   1.000  O
  O19      1.0000 0.59630  0.61700  0.12290  Biso   1.000  O
  O20      1.0000 0.80070  0.15690  0.00950  Biso   1.000  O
  O21      1.0000 0.55260  0.90680  0.14740  Biso   1.000  O
  O22      1.0000 0.61190  0.08690  0.25440  Biso   1.000  O
  O23      1.0000 0.66270  0.36590  0.16160  Biso   1.000  O
  O24      1.0000 0.00740  0.35930  0.29270  Biso   1.000  O
  O25      1.0000 0.89450  0.16910  0.50210  Biso   1.000  O
  O26      1.0000 0.95160  0.36020  0.05260  Biso   1.000  O
  O27      1.0000 0.78920  0.54990  0.94450  Biso   1.000  O
  O28      1.0000 0.86450  0.14810  0.28270  Biso   1.000  O
  O29      1.0000 0.66490  0.28300  0.84620  Biso   1.000  O
  O30      1.0000 0.85430  0.11780  0.78310  Biso   1.000  O
  O31      1.0000 0.36150  0.98020  0.32200  Biso   1.000  O
  O32      1.0000 0.45400  0.15180  0.09630  Biso   1.000  O
  O33      1.0000 0.92020  0.35910  0.80210  Biso   1.000  O
  O34      1.0000 0.10310  0.11760  0.33110  Biso   1.000  O
  H2       1.0000 0.02690  0.30320  0.03200  Biso   1.000  H
