data_image0
_cell_length_a       9.6455
_cell_length_b       9.6406
_cell_length_c       10.5987
_cell_angle_alpha    74.159
_cell_angle_beta     74.714
_cell_angle_gamma    88.955

_symmetry_space_group_name_H-M    "P 1"
_symmetry_int_tables_number       1

loop_
  _symmetry_equiv_pos_as_xyz
  'x, y, z'

loop_
  _atom_site_label
  _atom_site_occupancy
  _atom_site_fract_x
  _atom_site_fract_y
  _atom_site_fract_z
  _atom_site_thermal_displace_type
  _atom_site_B_iso_or_equiv
  _atom_site_type_symbol
  P1       1.0000 0.50290  0.96890  0.79430  Biso   1.000  P
  P2       1.0000 0.27590  0.47610  0.90280  Biso   1.000  P
  P3       1.0000 0.03400  0.79870  0.64960  Biso   1.000  P
  P4       1.0000 0.18710  0.76810  0.13990  Biso   1.000  P
  Al1      1.0000 0.23160  0.78660  0.83890  Biso   1.000  Al
  Al2      1.0000 0.48430  0.22430  0.92290  Biso   1.000  Al
  Al3      1.0000 0.17850  0.95120  0.34220  Biso   1.000  Al
  Al4      1.0000 0.97720  0.50040  0.86750  Biso   1.000  Al
  O1       1.0000 0.16960  0.44660  0.83040  Biso   1.000  O
  O2       1.0000 0.40390  0.38390  0.87720  Biso   1.000  O
  O3       1.0000 0.19950  0.84320  0.98980  Biso   1.000  O
  O4       1.0000 0.44830  0.09240  0.85120  Biso   1.000  O
  O5       1.0000 0.38950  0.91280  0.74520  Biso   1.000  O
  O6       1.0000 0.33770  0.63320  0.83770  Biso   1.000  O
  O7       1.0000 0.99240  0.64090  0.70720  Biso   1.000  O
  O8       1.0000 0.10520  0.83250  0.49840  Biso   1.000  O
  O9       1.0000 0.04690  0.64030  0.94710  Biso   1.000  O
  O10      1.0000 0.21170  0.45000  0.05520  Biso   1.000  O
  O11      1.0000 0.13510  0.85160  0.71730  Biso   1.000  O
  O12      1.0000 0.33600  0.71560  0.15390  Biso   1.000  O
  O13      1.0000 0.14710  0.88090  0.21580  Biso   1.000  O
  O14      1.0000 0.63680  0.02010  0.67890  Biso   1.000  O
  O15      1.0000 0.54550  0.84970  0.90250  Biso   1.000  O
  O16      1.0000 0.08070  0.64180  0.19670  Biso   1.000  O
  O17      1.0000 0.89560  0.88300  0.66850  Biso   1.000  O
  P5       1.0000 0.49710  0.03110  0.20570  Biso   1.000  P
  P6       1.0000 0.72410  0.52390  0.09720  Biso   1.000  P
  P7       1.0000 0.96600  0.20130  0.35040  Biso   1.000  P
  P8       1.0000 0.81290  0.23190  0.86010  Biso   1.000  P
  Al5      1.0000 0.76840  0.21340  0.16110  Biso   1.000  Al
  Al6      1.0000 0.51570  0.77570  0.07710  Biso   1.000  Al
  Al7      1.0000 0.82150  0.04880  0.65780  Biso   1.000  Al
  Al8      1.0000 0.02280  0.49960  0.13250  Biso   1.000  Al
  O18      1.0000 0.83040  0.55340  0.16960  Biso   1.000  O
  O19      1.0000 0.59610  0.61610  0.12280  Biso   1.000  O
  O20      1.0000 0.80050  0.15680  0.01020  Biso   1.000  O
  O21      1.0000 0.55170  0.90760  0.14880  Biso   1.000  O
  O22      1.0000 0.61050  0.08720  0.25480  Biso   1.000  O
  O23      1.0000 0.66230  0.36680  0.16230  Biso   1.000  O
  O24      1.0000 0.00760  0.35910  0.29280  Biso   1.000  O
  O25      1.0000 0.89480  0.16750  0.50160  Biso   1.000  O
  O26      1.0000 0.95310  0.35970  0.05290  Biso   1.000  O
  O27      1.0000 0.78830  0.55000  0.94480  Biso   1.000  O
  O28      1.0000 0.86490  0.14840  0.28270  Biso   1.000  O
  O29      1.0000 0.66400  0.28440  0.84610  Biso   1.000  O
  O30      1.0000 0.85290  0.11910  0.78420  Biso   1.000  O
  O31      1.0000 0.36320  0.97990  0.32110  Biso   1.000  O
  O32      1.0000 0.45450  0.15030  0.09750  Biso   1.000  O
  O33      1.0000 0.91930  0.35820  0.80330  Biso   1.000  O
  O34      1.0000 0.10440  0.11700  0.33150  Biso   1.000  O
