data_image0
_cell_length_a       15.115
_cell_length_b       16.256
_cell_length_c       27.421
_cell_angle_alpha    90
_cell_angle_beta     105.521
_cell_angle_gamma    90

_symmetry_space_group_name_H-M    "P 1"
_symmetry_int_tables_number       1

loop_
  _symmetry_equiv_pos_as_xyz
  'x, y, z'

loop_
  _atom_site_label
  _atom_site_occupancy
  _atom_site_fract_x
  _atom_site_fract_y
  _atom_site_fract_z
  _atom_site_thermal_displace_type
  _atom_site_B_iso_or_equiv
  _atom_site_type_symbol
  W1       1.0000 0.56240  0.22729  0.44887  Biso   1.000  W
  W2       1.0000 0.75113  0.28263  0.39117  Biso   1.000  W
  W3       1.0000 0.58493  0.23634  0.57315  Biso   1.000  W
  W4       1.0000 0.93225  0.36782  0.47550  Biso   1.000  W
  W5       1.0000 0.89549  0.16144  0.47599  Biso   1.000  W
  W6       1.0000 0.95731  0.37700  0.61041  Biso   1.000  W
  W7       1.0000 0.80011  0.30473  0.66585  Biso   1.000  W
  W8       1.0000 0.70440  0.09674  0.52677  Biso   1.000  W
  W9       1.0000 0.91777  0.17073  0.61414  Biso   1.000  W
  W10      1.0000 0.59538  0.44028  0.41621  Biso   1.000  W
  W11      1.0000 0.37359  0.54607  0.39828  Biso   1.000  W
  Ce1      1.0000 0.80257  0.56681  0.52513  Biso   1.000  Ce
  Ce2      1.0000 0.65082  0.72140  0.26537  Biso   1.000  Ce
  As1      1.0000 0.75656  0.32404  0.52625  Biso   1.000  As
  P1       1.0000 0.51410  0.56890  0.32260  Biso   1.000  P
  P2       1.0000 0.41210  0.41250  0.31638  Biso   1.000  P
  O1       1.0000 0.68490  0.38410  0.39290  Biso   1.000  O
  O2       1.0000 0.91090  0.36390  0.67090  Biso   1.000  O
  O3       1.0000 0.81770  0.28630  0.48280  Biso   1.000  O
  O4       1.0000 0.50020  0.38060  0.35430  Biso   1.000  O
  O5       1.0000 0.93360  0.16030  0.54790  Biso   1.000  O
  O6       1.0000 0.35010  0.45870  0.34380  Biso   1.000  O
  O7       1.0000 0.48700  0.49370  0.42450  Biso   1.000  O
  O8       1.0000 0.61310  0.12620  0.56590  Biso   1.000  O
  O9       1.0000 0.40340  0.64370  0.43350  Biso   1.000  O
  O10      1.0000 0.85960  0.34420  0.40600  Biso   1.000  O
  O11      1.0000 0.83430  0.29390  0.58510  Biso   1.000  O
  O12      1.0000 0.87040  0.45420  0.48170  Biso   1.000  O
  O13      1.0000 0.44200  0.60390  0.34830  Biso   1.000  O
  O14      1.0000 0.86400  0.20550  0.66680  Biso   1.000  O
  O15      1.0000 0.97320  0.24620  0.47090  Biso   1.000  O
  O16      1.0000 0.78010  0.11160  0.48610  Biso   1.000  O
  O17      1.0000 0.50980  0.24000  0.50430  Biso   1.000  O
  O18      1.0000 0.68440  0.23600  0.52160  Biso   1.000  O
  O19      1.0000 0.97890  0.34930  0.54620  Biso   1.000  O
  O20      1.0000 0.57440  0.34870  0.45120  Biso   1.000  O
  O21      1.0000 0.65410  0.23460  0.41240  Biso   1.000  O
  O22      1.0000 0.59470  0.52350  0.36250  Biso   1.000  O
  O23      1.0000 0.81670  0.18400  0.40890  Biso   1.000  O
  O24      1.0000 0.99920  0.25640  0.62850  Biso   1.000  O
  O25      1.0000 0.79730  0.11720  0.58340  Biso   1.000  O
  O26      1.0000 0.35920  0.34690  0.28170  Biso   1.000  O
  O27      1.0000 0.26610  0.59730  0.35670  Biso   1.000  O
  O28      1.0000 0.67480  0.49250  0.46400  Biso   1.000  O
  O29      1.0000 0.88480  0.46070  0.58540  Biso   1.000  O
  O30      1.0000 0.69020  0.25010  0.62890  Biso   1.000  O
  O31      1.0000 0.03120  0.40600  0.46150  Biso   1.000  O
  O32      1.0000 0.31630  0.49660  0.43580  Biso   1.000  O
  O33      1.0000 0.55340  0.63100  0.29360  Biso   1.000  O
  O34      1.0000 0.59520  0.12140  0.46730  Biso   1.000  O
  O35      1.0000 0.51620  0.45430  0.25590  Biso   1.000  O
  H1       1.0000 0.49260  0.41610  0.23750  Biso   1.000  H
  C1       1.0000 0.44950  0.48990  0.27900  Biso   1.000  C
  C2       1.0000 0.37230  0.52610  0.24270  Biso   1.000  C
  H2       1.0000 0.33040  0.54860  0.26000  Biso   1.000  H
  H3       1.0000 0.39350  0.56900  0.22460  Biso   1.000  H
  H4       1.0000 0.34150  0.48470  0.21930  Biso   1.000  H
  W12      1.0000 0.43760  0.72729  0.05113  Biso   1.000  W
  W13      1.0000 0.24887  0.78263  0.10883  Biso   1.000  W
  W14      1.0000 0.41507  0.73634  0.92685  Biso   1.000  W
  W15      1.0000 0.06775  0.86782  0.02450  Biso   1.000  W
  W16      1.0000 0.10451  0.66144  0.02401  Biso   1.000  W
  W17      1.0000 0.04269  0.87700  0.88959  Biso   1.000  W
  W18      1.0000 0.19989  0.80473  0.83415  Biso   1.000  W
  W19      1.0000 0.29560  0.59674  0.97323  Biso   1.000  W
  W20      1.0000 0.08223  0.67073  0.88586  Biso   1.000  W
  W21      1.0000 0.40462  0.94028  0.08379  Biso   1.000  W
  W22      1.0000 0.62641  0.04607  0.10172  Biso   1.000  W
  Ce3      1.0000 0.19743  0.06681  0.97487  Biso   1.000  Ce
  Ce4      1.0000 0.34918  0.22140  0.23463  Biso   1.000  Ce
  As2      1.0000 0.24344  0.82404  0.97375  Biso   1.000  As
  P3       1.0000 0.48590  0.06890  0.17740  Biso   1.000  P
  P4       1.0000 0.58790  0.91250  0.18362  Biso   1.000  P
  O36      1.0000 0.31510  0.88410  0.10710  Biso   1.000  O
  O37      1.0000 0.08910  0.86390  0.82910  Biso   1.000  O
  O38      1.0000 0.18230  0.78630  0.01720  Biso   1.000  O
  O39      1.0000 0.49980  0.88060  0.14570  Biso   1.000  O
  O40      1.0000 0.06640  0.66030  0.95210  Biso   1.000  O
  O41      1.0000 0.64990  0.95870  0.15620  Biso   1.000  O
  O42      1.0000 0.51300  0.99370  0.07550  Biso   1.000  O
  O43      1.0000 0.38690  0.62620  0.93410  Biso   1.000  O
  O44      1.0000 0.59660  0.14370  0.06650  Biso   1.000  O
  O45      1.0000 0.14040  0.84420  0.09400  Biso   1.000  O
  O46      1.0000 0.16570  0.79390  0.91490  Biso   1.000  O
  O47      1.0000 0.12960  0.95420  0.01830  Biso   1.000  O
  O48      1.0000 0.55800  0.10390  0.15170  Biso   1.000  O
  O49      1.0000 0.13600  0.70550  0.83320  Biso   1.000  O
  O50      1.0000 0.02680  0.74620  0.02910  Biso   1.000  O
  O51      1.0000 0.21990  0.61160  0.01390  Biso   1.000  O
  O52      1.0000 0.49020  0.74000  0.99570  Biso   1.000  O
  O53      1.0000 0.31560  0.73600  0.97840  Biso   1.000  O
  O54      1.0000 0.02110  0.84930  0.95380  Biso   1.000  O
  O55      1.0000 0.42560  0.84870  0.04880  Biso   1.000  O
  O56      1.0000 0.34590  0.73460  0.08760  Biso   1.000  O
  O57      1.0000 0.40530  0.02350  0.13750  Biso   1.000  O
  O58      1.0000 0.18330  0.68400  0.09110  Biso   1.000  O
  O59      1.0000 0.00080  0.75640  0.87150  Biso   1.000  O
  O60      1.0000 0.20270  0.61720  0.91660  Biso   1.000  O
  O61      1.0000 0.64080  0.84690  0.21830  Biso   1.000  O
  O62      1.0000 0.73390  0.09730  0.14330  Biso   1.000  O
  O63      1.0000 0.32520  0.99250  0.03600  Biso   1.000  O
  O64      1.0000 0.11520  0.96070  0.91460  Biso   1.000  O
  O65      1.0000 0.30980  0.75010  0.87110  Biso   1.000  O
  O66      1.0000 0.96880  0.90600  0.03850  Biso   1.000  O
  O67      1.0000 0.68370  0.99660  0.06420  Biso   1.000  O
  O68      1.0000 0.44660  0.13100  0.20640  Biso   1.000  O
  O69      1.0000 0.40480  0.62140  0.03270  Biso   1.000  O
  O70      1.0000 0.48380  0.95430  0.24410  Biso   1.000  O
  H5       1.0000 0.50740  0.91610  0.26250  Biso   1.000  H
  C3       1.0000 0.55050  0.98990  0.22100  Biso   1.000  C
  C4       1.0000 0.62770  0.02610  0.25730  Biso   1.000  C
  H6       1.0000 0.66960  0.04860  0.24000  Biso   1.000  H
  H7       1.0000 0.60650  0.06900  0.27540  Biso   1.000  H
  H8       1.0000 0.65850  0.98470  0.28070  Biso   1.000  H
  W23      1.0000 0.43760  0.77271  0.55113  Biso   1.000  W
  W24      1.0000 0.24887  0.71737  0.60883  Biso   1.000  W
  W25      1.0000 0.41507  0.76366  0.42685  Biso   1.000  W
  W26      1.0000 0.06775  0.63218  0.52450  Biso   1.000  W
  W27      1.0000 0.10451  0.83856  0.52401  Biso   1.000  W
  W28      1.0000 0.04269  0.62300  0.38959  Biso   1.000  W
  W29      1.0000 0.19989  0.69527  0.33415  Biso   1.000  W
  W30      1.0000 0.29560  0.90326  0.47323  Biso   1.000  W
  W31      1.0000 0.08223  0.82927  0.38586  Biso   1.000  W
  W32      1.0000 0.40462  0.55972  0.58379  Biso   1.000  W
  W33      1.0000 0.62641  0.45393  0.60172  Biso   1.000  W
  Ce5      1.0000 0.19743  0.43319  0.47487  Biso   1.000  Ce
  Ce6      1.0000 0.34918  0.27860  0.73463  Biso   1.000  Ce
  As3      1.0000 0.24344  0.67596  0.47375  Biso   1.000  As
  P5       1.0000 0.48590  0.43110  0.67740  Biso   1.000  P
  P6       1.0000 0.58790  0.58750  0.68362  Biso   1.000  P
  O71      1.0000 0.31510  0.61590  0.60710  Biso   1.000  O
  O72      1.0000 0.08910  0.63610  0.32910  Biso   1.000  O
  O73      1.0000 0.18230  0.71370  0.51720  Biso   1.000  O
  O74      1.0000 0.49980  0.61940  0.64570  Biso   1.000  O
  O75      1.0000 0.06640  0.83970  0.45210  Biso   1.000  O
  O76      1.0000 0.64990  0.54130  0.65620  Biso   1.000  O
  O77      1.0000 0.51300  0.50630  0.57550  Biso   1.000  O
  O78      1.0000 0.38690  0.87380  0.43410  Biso   1.000  O
  O79      1.0000 0.59660  0.35630  0.56650  Biso   1.000  O
  O80      1.0000 0.14040  0.65580  0.59400  Biso   1.000  O
  O81      1.0000 0.16570  0.70610  0.41490  Biso   1.000  O
  O82      1.0000 0.12960  0.54580  0.51830  Biso   1.000  O
  O83      1.0000 0.55800  0.39610  0.65170  Biso   1.000  O
  O84      1.0000 0.13600  0.79450  0.33320  Biso   1.000  O
  O85      1.0000 0.02680  0.75380  0.52910  Biso   1.000  O
  O86      1.0000 0.21990  0.88840  0.51390  Biso   1.000  O
  O87      1.0000 0.49020  0.76000  0.49570  Biso   1.000  O
  O88      1.0000 0.31560  0.76400  0.47840  Biso   1.000  O
  O89      1.0000 0.02110  0.65070  0.45380  Biso   1.000  O
  O90      1.0000 0.42560  0.65130  0.54880  Biso   1.000  O
  O91      1.0000 0.34590  0.76540  0.58760  Biso   1.000  O
  O92      1.0000 0.40530  0.47650  0.63750  Biso   1.000  O
  O93      1.0000 0.18330  0.81600  0.59110  Biso   1.000  O
  O94      1.0000 0.00080  0.74360  0.37150  Biso   1.000  O
  O95      1.0000 0.20270  0.88280  0.41660  Biso   1.000  O
  O96      1.0000 0.64080  0.65310  0.71830  Biso   1.000  O
  O97      1.0000 0.73390  0.40270  0.64330  Biso   1.000  O
  O98      1.0000 0.32520  0.50750  0.53600  Biso   1.000  O
  O99      1.0000 0.11520  0.53930  0.41460  Biso   1.000  O
  O100     1.0000 0.30980  0.74990  0.37110  Biso   1.000  O
  O101     1.0000 0.96880  0.59400  0.53850  Biso   1.000  O
  O102     1.0000 0.68370  0.50340  0.56420  Biso   1.000  O
  O103     1.0000 0.44660  0.36900  0.70640  Biso   1.000  O
  O104     1.0000 0.40480  0.87860  0.53270  Biso   1.000  O
  O105     1.0000 0.48380  0.54570  0.74410  Biso   1.000  O
  H9       1.0000 0.50740  0.58390  0.76250  Biso   1.000  H
  C5       1.0000 0.55050  0.51010  0.72100  Biso   1.000  C
  C6       1.0000 0.62770  0.47390  0.75730  Biso   1.000  C
  H10      1.0000 0.66960  0.45140  0.74000  Biso   1.000  H
  H11      1.0000 0.60650  0.43100  0.77540  Biso   1.000  H
  H12      1.0000 0.65850  0.51530  0.78070  Biso   1.000  H
  W34      1.0000 0.56240  0.27271  0.94887  Biso   1.000  W
  W35      1.0000 0.75113  0.21737  0.89117  Biso   1.000  W
  W36      1.0000 0.58493  0.26366  0.07315  Biso   1.000  W
  W37      1.0000 0.93225  0.13218  0.97550  Biso   1.000  W
  W38      1.0000 0.89549  0.33856  0.97599  Biso   1.000  W
  W39      1.0000 0.95731  0.12300  0.11041  Biso   1.000  W
  W40      1.0000 0.80011  0.19527  0.16585  Biso   1.000  W
  W41      1.0000 0.70440  0.40326  0.02677  Biso   1.000  W
  W42      1.0000 0.91777  0.32927  0.11414  Biso   1.000  W
  W43      1.0000 0.59538  0.05972  0.91621  Biso   1.000  W
  W44      1.0000 0.37359  0.95393  0.89828  Biso   1.000  W
  Ce7      1.0000 0.80257  0.93319  0.02513  Biso   1.000  Ce
  Ce8      1.0000 0.65082  0.77860  0.76537  Biso   1.000  Ce
  As4      1.0000 0.75656  0.17596  0.02625  Biso   1.000  As
  P7       1.0000 0.51410  0.93110  0.82260  Biso   1.000  P
  P8       1.0000 0.41210  0.08750  0.81638  Biso   1.000  P
  O106     1.0000 0.68490  0.11590  0.89290  Biso   1.000  O
  O107     1.0000 0.91090  0.13610  0.17090  Biso   1.000  O
  O108     1.0000 0.81770  0.21370  0.98280  Biso   1.000  O
  O109     1.0000 0.50020  0.11940  0.85430  Biso   1.000  O
  O110     1.0000 0.93360  0.33970  0.04790  Biso   1.000  O
  O111     1.0000 0.35010  0.04130  0.84380  Biso   1.000  O
  O112     1.0000 0.48700  0.00630  0.92450  Biso   1.000  O
  O113     1.0000 0.61310  0.37380  0.06590  Biso   1.000  O
  O114     1.0000 0.40340  0.85630  0.93350  Biso   1.000  O
  O115     1.0000 0.85960  0.15580  0.90600  Biso   1.000  O
  O116     1.0000 0.83430  0.20610  0.08510  Biso   1.000  O
  O117     1.0000 0.87040  0.04580  0.98170  Biso   1.000  O
  O118     1.0000 0.44200  0.89610  0.84830  Biso   1.000  O
  O119     1.0000 0.86400  0.29450  0.16680  Biso   1.000  O
  O120     1.0000 0.97320  0.25380  0.97090  Biso   1.000  O
  O121     1.0000 0.78010  0.38840  0.98610  Biso   1.000  O
  O122     1.0000 0.50980  0.26000  0.00430  Biso   1.000  O
  O123     1.0000 0.68440  0.26400  0.02160  Biso   1.000  O
  O124     1.0000 0.97890  0.15070  0.04620  Biso   1.000  O
  O125     1.0000 0.57440  0.15130  0.95120  Biso   1.000  O
  O126     1.0000 0.65410  0.26540  0.91240  Biso   1.000  O
  O127     1.0000 0.59470  0.97650  0.86250  Biso   1.000  O
  O128     1.0000 0.81670  0.31600  0.90890  Biso   1.000  O
  O129     1.0000 0.99920  0.24360  0.12850  Biso   1.000  O
  O130     1.0000 0.79730  0.38280  0.08340  Biso   1.000  O
  O131     1.0000 0.35920  0.15310  0.78170  Biso   1.000  O
  O132     1.0000 0.26610  0.90270  0.85670  Biso   1.000  O
  O133     1.0000 0.67480  0.00750  0.96400  Biso   1.000  O
  O134     1.0000 0.88480  0.03930  0.08540  Biso   1.000  O
  O135     1.0000 0.69020  0.24990  0.12890  Biso   1.000  O
  O136     1.0000 0.03120  0.09400  0.96150  Biso   1.000  O
  O137     1.0000 0.31630  0.00340  0.93580  Biso   1.000  O
  O138     1.0000 0.55340  0.86900  0.79360  Biso   1.000  O
  O139     1.0000 0.59520  0.37860  0.96730  Biso   1.000  O
  O140     1.0000 0.51620  0.04570  0.75590  Biso   1.000  O
  H13      1.0000 0.49260  0.08390  0.73750  Biso   1.000  H
  C7       1.0000 0.44950  0.01010  0.77900  Biso   1.000  C
  C8       1.0000 0.37230  0.97390  0.74270  Biso   1.000  C
  H14      1.0000 0.33040  0.95140  0.76000  Biso   1.000  H
  H15      1.0000 0.39350  0.93100  0.72460  Biso   1.000  H
  H16      1.0000 0.34150  0.01530  0.71930  Biso   1.000  H
