data_WAQDOJ_charged
_audit_creation_date              2014-07-02
_audit_creation_method            'Materials Studio'
_symmetry_space_group_name_H-M    'P1'
_symmetry_Int_Tables_number       1
_symmetry_cell_setting            triclinic
loop_
_symmetry_equiv_pos_as_xyz
  x,y,z
_cell_length_a                    18.8832
_cell_length_b                    18.8832
_cell_length_c                    18.8832
_cell_angle_alpha                 62.0984
_cell_angle_beta                  62.0984
_cell_angle_gamma                 62.0984
loop_
_atom_site_label
_atom_site_type_symbol
_atom_site_fract_x
_atom_site_fract_y
_atom_site_fract_z
_atom_site_U_iso_or_equiv
_atom_site_adp_type
_atom_site_occupancy
Mg1    Mg    0.25000   0.35174   0.14826   0.01267  Uiso   1.00
Mg2    Mg    0.14826   0.25000   0.35174   0.01267  Uiso   1.00
Mg3    Mg    0.35174   0.14826   0.25000   0.01267  Uiso   1.00
Mg4    Mg    0.75000   0.64826   0.85174   0.01267  Uiso   1.00
Mg5    Mg    0.85174   0.75000   0.64826   0.01267  Uiso   1.00
Mg6    Mg    0.64826   0.85174   0.75000   0.01267  Uiso   1.00
H1     H     0.96710   0.65930   0.51190   0.01267  Uiso   1.00
H2     H     0.10620   0.42790   0.44640   0.01267  Uiso   1.00
H3     H     0.06780   0.53530   0.49710   0.01267  Uiso   1.00
H4     H     0.13980   0.68810   0.26480   0.01267  Uiso   1.00
H5     H     0.18050   0.58150   0.21130   0.01267  Uiso   1.00
H6     H     0.51190   0.96710   0.65930   0.01267  Uiso   1.00
H7     H     0.44640   0.10620   0.42790   0.01267  Uiso   1.00
H8     H     0.49710   0.06780   0.53530   0.01267  Uiso   1.00
H9     H     0.26480   0.13980   0.68810   0.01267  Uiso   1.00
H10    H     0.21130   0.18050   0.58150   0.01267  Uiso   1.00
H11    H     0.65930   0.51190   0.96710   0.01267  Uiso   1.00
H12    H     0.42790   0.44640   0.10620   0.01267  Uiso   1.00
H13    H     0.53530   0.49710   0.06780   0.01267  Uiso   1.00
H14    H     0.68810   0.26480   0.13980   0.01267  Uiso   1.00
H15    H     0.58150   0.21130   0.18050   0.01267  Uiso   1.00
H16    H     0.84070   0.53290   0.98810   0.01267  Uiso   1.00
H17    H     0.07210   0.39380   0.05360   0.01267  Uiso   1.00
H18    H     0.96470   0.43220   0.00290   0.01267  Uiso   1.00
H19    H     0.81190   0.36020   0.23520   0.01267  Uiso   1.00
H20    H     0.91850   0.31950   0.28870   0.01267  Uiso   1.00
H21    H     0.53290   0.98810   0.84070   0.01267  Uiso   1.00
H22    H     0.39380   0.05360   0.07210   0.01267  Uiso   1.00
H23    H     0.43220   0.00290   0.96470   0.01267  Uiso   1.00
H24    H     0.36020   0.23520   0.81190   0.01267  Uiso   1.00
H25    H     0.31950   0.28870   0.91850   0.01267  Uiso   1.00
H26    H     0.98810   0.84070   0.53290   0.01267  Uiso   1.00
H27    H     0.05360   0.07210   0.39380   0.01267  Uiso   1.00
H28    H     0.00290   0.96470   0.43220   0.01267  Uiso   1.00
H29    H     0.23520   0.81190   0.36020   0.01267  Uiso   1.00
H30    H     0.28870   0.91850   0.31950   0.01267  Uiso   1.00
H31    H     0.03290   0.34070   0.48810   0.01267  Uiso   1.00
H32    H     0.89380   0.57210   0.55360   0.01267  Uiso   1.00
H33    H     0.93220   0.46470   0.50290   0.01267  Uiso   1.00
H34    H     0.86020   0.31190   0.73520   0.01267  Uiso   1.00
H35    H     0.81950   0.41850   0.78870   0.01267  Uiso   1.00
H36    H     0.48810   0.03290   0.34070   0.01267  Uiso   1.00
H37    H     0.55360   0.89380   0.57210   0.01267  Uiso   1.00
H38    H     0.50290   0.93220   0.46470   0.01267  Uiso   1.00
H39    H     0.73520   0.86020   0.31190   0.01267  Uiso   1.00
H40    H     0.78870   0.81950   0.41850   0.01267  Uiso   1.00
H41    H     0.34070   0.48810   0.03290   0.01267  Uiso   1.00
H42    H     0.57210   0.55360   0.89380   0.01267  Uiso   1.00
H43    H     0.46470   0.50290   0.93220   0.01267  Uiso   1.00
H44    H     0.31190   0.73520   0.86020   0.01267  Uiso   1.00
H45    H     0.41850   0.78870   0.81950   0.01267  Uiso   1.00
H46    H     0.15930   0.46710   0.01190   0.01267  Uiso   1.00
H47    H     0.92790   0.60620   0.94640   0.01267  Uiso   1.00
H48    H     0.03530   0.56780   0.99710   0.01267  Uiso   1.00
H49    H     0.18810   0.63980   0.76480   0.01267  Uiso   1.00
H50    H     0.08150   0.68050   0.71130   0.01267  Uiso   1.00
H51    H     0.46710   0.01190   0.15930   0.01267  Uiso   1.00
H52    H     0.60620   0.94640   0.92790   0.01267  Uiso   1.00
H53    H     0.56780   0.99710   0.03530   0.01267  Uiso   1.00
H54    H     0.63980   0.76480   0.18810   0.01267  Uiso   1.00
H55    H     0.68050   0.71130   0.08150   0.01267  Uiso   1.00
H56    H     0.01190   0.15930   0.46710   0.01267  Uiso   1.00
H57    H     0.94640   0.92790   0.60620   0.01267  Uiso   1.00
H58    H     0.99710   0.03530   0.56780   0.01267  Uiso   1.00
H59    H     0.76480   0.18810   0.63980   0.01267  Uiso   1.00
H60    H     0.71130   0.08150   0.68050   0.01267  Uiso   1.00
H61    H     0.15735   0.75000   0.34265   0.01267  Uiso   1.00
H62    H     0.34265   0.15735   0.75000   0.01267  Uiso   1.00
H63    H     0.75000   0.34265   0.15735   0.01267  Uiso   1.00
H64    H     0.84265   0.25000   0.65735   0.01267  Uiso   1.00
H65    H     0.65735   0.84265   0.25000   0.01267  Uiso   1.00
H66    H     0.25000   0.65735   0.84265   0.01267  Uiso   1.00
C1     C     0.99678   0.69587   0.49317   0.01267  Uiso   1.00
C2     C     0.07174   0.68952   0.42306   0.01267  Uiso   1.00
C3     C     0.16287   0.42764   0.28817   0.01267  Uiso   1.00
C4     C     0.14827   0.49329   0.32133   0.01267  Uiso   1.00
C5     C     0.11342   0.47976   0.40898   0.01267  Uiso   1.00
C6     C     0.09005   0.54486   0.43904   0.01267  Uiso   1.00
C7     C     0.09892   0.62424   0.38466   0.01267  Uiso   1.00
C8     C     0.13254   0.63614   0.30194   0.01267  Uiso   1.00
C9     C     0.15732   0.57112   0.26952   0.01267  Uiso   1.00
C10    C     0.49317   0.99678   0.69587   0.01267  Uiso   1.00
C11    C     0.42306   0.07174   0.68952   0.01267  Uiso   1.00
C12    C     0.28817   0.16287   0.42764   0.01267  Uiso   1.00
C13    C     0.32133   0.14827   0.49329   0.01267  Uiso   1.00
C14    C     0.40898   0.11342   0.47976   0.01267  Uiso   1.00
C15    C     0.43904   0.09005   0.54486   0.01267  Uiso   1.00
C16    C     0.38466   0.09892   0.62424   0.01267  Uiso   1.00
C17    C     0.30194   0.13254   0.63614   0.01267  Uiso   1.00
C18    C     0.26952   0.15732   0.57112   0.01267  Uiso   1.00
C19    C     0.69587   0.49317   0.99678   0.01267  Uiso   1.00
C20    C     0.68952   0.42306   0.07174   0.01267  Uiso   1.00
C21    C     0.42764   0.28817   0.16287   0.01267  Uiso   1.00
C22    C     0.49329   0.32133   0.14827   0.01267  Uiso   1.00
C23    C     0.47976   0.40898   0.11342   0.01267  Uiso   1.00
C24    C     0.54486   0.43904   0.09005   0.01267  Uiso   1.00
C25    C     0.62424   0.38466   0.09892   0.01267  Uiso   1.00
C26    C     0.63614   0.30194   0.13254   0.01267  Uiso   1.00
C27    C     0.57112   0.26952   0.15732   0.01267  Uiso   1.00
C28    C     0.80413   0.50322   0.00683   0.01267  Uiso   1.00
C29    C     0.81048   0.42826   0.07694   0.01267  Uiso   1.00
C30    C     0.07236   0.33713   0.21183   0.01267  Uiso   1.00
C31    C     0.00671   0.35173   0.17867   0.01267  Uiso   1.00
C32    C     0.02024   0.38658   0.09102   0.01267  Uiso   1.00
C33    C     0.95514   0.40995   0.06096   0.01267  Uiso   1.00
C34    C     0.87576   0.40108   0.11534   0.01267  Uiso   1.00
C35    C     0.86386   0.36746   0.19806   0.01267  Uiso   1.00
C36    C     0.92888   0.34268   0.23048   0.01267  Uiso   1.00
C37    C     0.50322   0.00683   0.80413   0.01267  Uiso   1.00
C38    C     0.42826   0.07694   0.81048   0.01267  Uiso   1.00
C39    C     0.33713   0.21183   0.07236   0.01267  Uiso   1.00
C40    C     0.35173   0.17867   0.00671   0.01267  Uiso   1.00
C41    C     0.38658   0.09102   0.02024   0.01267  Uiso   1.00
C42    C     0.40995   0.06096   0.95514   0.01267  Uiso   1.00
C43    C     0.40108   0.11534   0.87576   0.01267  Uiso   1.00
C44    C     0.36746   0.19806   0.86386   0.01267  Uiso   1.00
C45    C     0.34268   0.23048   0.92888   0.01267  Uiso   1.00
C46    C     0.00683   0.80413   0.50322   0.01267  Uiso   1.00
C47    C     0.07694   0.81048   0.42826   0.01267  Uiso   1.00
C48    C     0.21183   0.07236   0.33713   0.01267  Uiso   1.00
C49    C     0.17867   0.00671   0.35173   0.01267  Uiso   1.00
C50    C     0.09102   0.02024   0.38658   0.01267  Uiso   1.00
C51    C     0.06096   0.95514   0.40995   0.01267  Uiso   1.00
C52    C     0.11534   0.87576   0.40108   0.01267  Uiso   1.00
C53    C     0.19806   0.86386   0.36746   0.01267  Uiso   1.00
C54    C     0.23048   0.92888   0.34268   0.01267  Uiso   1.00
C55    C     0.00322   0.30413   0.50683   0.01267  Uiso   1.00
C56    C     0.92826   0.31048   0.57694   0.01267  Uiso   1.00
C57    C     0.83713   0.57236   0.71183   0.01267  Uiso   1.00
C58    C     0.85173   0.50671   0.67867   0.01267  Uiso   1.00
C59    C     0.88658   0.52024   0.59102   0.01267  Uiso   1.00
C60    C     0.90995   0.45514   0.56096   0.01267  Uiso   1.00
C61    C     0.90108   0.37576   0.61534   0.01267  Uiso   1.00
C62    C     0.86746   0.36386   0.69806   0.01267  Uiso   1.00
C63    C     0.84268   0.42888   0.73048   0.01267  Uiso   1.00
C64    C     0.50683   0.00322   0.30413   0.01267  Uiso   1.00
C65    C     0.57694   0.92826   0.31048   0.01267  Uiso   1.00
C66    C     0.71183   0.83713   0.57236   0.01267  Uiso   1.00
C67    C     0.67867   0.85173   0.50671   0.01267  Uiso   1.00
C68    C     0.59102   0.88658   0.52024   0.01267  Uiso   1.00
C69    C     0.56096   0.90995   0.45514   0.01267  Uiso   1.00
C70    C     0.61534   0.90108   0.37576   0.01267  Uiso   1.00
C71    C     0.69806   0.86746   0.36386   0.01267  Uiso   1.00
C72    C     0.73048   0.84268   0.42888   0.01267  Uiso   1.00
C73    C     0.30413   0.50683   0.00322   0.01267  Uiso   1.00
C74    C     0.31048   0.57694   0.92826   0.01267  Uiso   1.00
C75    C     0.57236   0.71183   0.83713   0.01267  Uiso   1.00
C76    C     0.50671   0.67867   0.85173   0.01267  Uiso   1.00
C77    C     0.52024   0.59102   0.88658   0.01267  Uiso   1.00
C78    C     0.45514   0.56096   0.90995   0.01267  Uiso   1.00
C79    C     0.37576   0.61534   0.90108   0.01267  Uiso   1.00
C80    C     0.36386   0.69806   0.86746   0.01267  Uiso   1.00
C81    C     0.42888   0.73048   0.84268   0.01267  Uiso   1.00
C82    C     0.19587   0.49678   0.99317   0.01267  Uiso   1.00
C83    C     0.18952   0.57174   0.92306   0.01267  Uiso   1.00
C84    C     0.92764   0.66287   0.78817   0.01267  Uiso   1.00
C85    C     0.99329   0.64827   0.82133   0.01267  Uiso   1.00
C86    C     0.97976   0.61342   0.90898   0.01267  Uiso   1.00
C87    C     0.04486   0.59005   0.93904   0.01267  Uiso   1.00
C88    C     0.12424   0.59892   0.88466   0.01267  Uiso   1.00
C89    C     0.13614   0.63254   0.80194   0.01267  Uiso   1.00
C90    C     0.07112   0.65732   0.76952   0.01267  Uiso   1.00
C91    C     0.49678   0.99317   0.19587   0.01267  Uiso   1.00
C92    C     0.57174   0.92306   0.18952   0.01267  Uiso   1.00
C93    C     0.66287   0.78817   0.92764   0.01267  Uiso   1.00
C94    C     0.64827   0.82133   0.99329   0.01267  Uiso   1.00
C95    C     0.61342   0.90898   0.97976   0.01267  Uiso   1.00
C96    C     0.59005   0.93904   0.04486   0.01267  Uiso   1.00
C97    C     0.59892   0.88466   0.12424   0.01267  Uiso   1.00
C98    C     0.63254   0.80194   0.13614   0.01267  Uiso   1.00
C99    C     0.65732   0.76952   0.07112   0.01267  Uiso   1.00
C100   C     0.99317   0.19587   0.49678   0.01267  Uiso   1.00
C101   C     0.92306   0.18952   0.57174   0.01267  Uiso   1.00
C102   C     0.78817   0.92764   0.66287   0.01267  Uiso   1.00
C103   C     0.82133   0.99329   0.64827   0.01267  Uiso   1.00
C104   C     0.90898   0.97976   0.61342   0.01267  Uiso   1.00
C105   C     0.93904   0.04486   0.59005   0.01267  Uiso   1.00
C106   C     0.88466   0.12424   0.59892   0.01267  Uiso   1.00
C107   C     0.80194   0.13614   0.63254   0.01267  Uiso   1.00
C108   C     0.76952   0.07112   0.65732   0.01267  Uiso   1.00
C109   C     0.10965   0.75000   0.39035   0.01267  Uiso   1.00
C110   C     0.39035   0.10965   0.75000   0.01267  Uiso   1.00
C111   C     0.75000   0.39035   0.10965   0.01267  Uiso   1.00
C112   C     0.89035   0.25000   0.60965   0.01267  Uiso   1.00
C113   C     0.60965   0.89035   0.25000   0.01267  Uiso   1.00
C114   C     0.25000   0.60965   0.89035   0.01267  Uiso   1.00
N1     N     0.96657   0.75000   0.53343   0.01267  Uiso   1.00
N2     N     0.53343   0.96657   0.75000   0.01267  Uiso   1.00
N3     N     0.75000   0.53343   0.96657   0.01267  Uiso   1.00
N4     N     0.03343   0.25000   0.46657   0.01267  Uiso   1.00
N5     N     0.46657   0.03343   0.25000   0.01267  Uiso   1.00
N6     N     0.25000   0.46657   0.03343   0.01267  Uiso   1.00
O1     O     0.21076   0.43283   0.21328   0.01267  Uiso   1.00
O2     O     0.12913   0.37177   0.33797   0.01267  Uiso   1.00
O3     O     0.21328   0.21076   0.43283   0.01267  Uiso   1.00
O4     O     0.33797   0.12913   0.37177   0.01267  Uiso   1.00
O5     O     0.43283   0.21328   0.21076   0.01267  Uiso   1.00
O6     O     0.37177   0.33797   0.12913   0.01267  Uiso   1.00
O7     O     0.06717   0.28924   0.28672   0.01267  Uiso   1.00
O8     O     0.12823   0.37087   0.16203   0.01267  Uiso   1.00
O9     O     0.28924   0.28672   0.06717   0.01267  Uiso   1.00
O10    O     0.37087   0.16203   0.12823   0.01267  Uiso   1.00
O11    O     0.28672   0.06717   0.28924   0.01267  Uiso   1.00
O12    O     0.16203   0.12823   0.37087   0.01267  Uiso   1.00
O13    O     0.78924   0.56717   0.78672   0.01267  Uiso   1.00
O14    O     0.87087   0.62823   0.66203   0.01267  Uiso   1.00
O15    O     0.78672   0.78924   0.56717   0.01267  Uiso   1.00
O16    O     0.66203   0.87087   0.62823   0.01267  Uiso   1.00
O17    O     0.56717   0.78672   0.78924   0.01267  Uiso   1.00
O18    O     0.62823   0.66203   0.87087   0.01267  Uiso   1.00
O19    O     0.93283   0.71076   0.71328   0.01267  Uiso   1.00
O20    O     0.87177   0.62913   0.83797   0.01267  Uiso   1.00
O21    O     0.71076   0.71328   0.93283   0.01267  Uiso   1.00
O22    O     0.62913   0.83797   0.87177   0.01267  Uiso   1.00
O23    O     0.71328   0.93283   0.71076   0.01267  Uiso   1.00
O24    O     0.83797   0.87177   0.62913   0.01267  Uiso   1.00
O25    O     0.25000   0.25000   0.25000   0.01267  Uiso   1.00
O26    O     0.75000   0.75000   0.75000   0.01267  Uiso   1.00
