data_image0
_cell_length_a       10.246
_cell_length_b       16.147
_cell_length_c       19.161
_cell_angle_alpha    90
_cell_angle_beta     99.98
_cell_angle_gamma    90

_symmetry_space_group_name_H-M    "P 1"
_symmetry_int_tables_number       1

loop_
  _symmetry_equiv_pos_as_xyz
  'x, y, z'

loop_
  _atom_site_label
  _atom_site_occupancy
  _atom_site_fract_x
  _atom_site_fract_y
  _atom_site_fract_z
  _atom_site_thermal_displace_type
  _atom_site_B_iso_or_equiv
  _atom_site_type_symbol
  Zn1      1.0000 0.72129  0.13247  0.01071  Biso   1.000  Zn
  Zn2      1.0000 0.96487  0.22661  0.12545  Biso   1.000  Zn
  S1       1.0000 0.79717  0.37626  0.53212  Biso   1.000  S
  C1       1.0000 0.21780  0.23280  0.15510  Biso   1.000  C
  C2       1.0000 0.35720  0.24950  0.18920  Biso   1.000  C
  C3       1.0000 0.45840  0.23780  0.15050  Biso   1.000  C
  H1       1.0000 0.43960  0.21980  0.10370  Biso   1.000  H
  C4       1.0000 0.59000  0.25350  0.18330  Biso   1.000  C
  C5       1.0000 0.69970  0.23940  0.14260  Biso   1.000  C
  C6       1.0000 0.61950  0.27820  0.25320  Biso   1.000  C
  H2       1.0000 0.70710  0.28760  0.27430  Biso   1.000  H
  C7       1.0000 0.51690  0.28930  0.29240  Biso   1.000  C
  C8       1.0000 0.38550  0.27540  0.26000  Biso   1.000  C
  H3       1.0000 0.31700  0.28330  0.28550  Biso   1.000  H
  C9       1.0000 0.65240  0.33540  0.40250  Biso   1.000  C
  C10      1.0000 0.65170  0.34760  0.48090  Biso   1.000  C
  C11      1.0000 0.55760  0.33960  0.52000  Biso   1.000  C
  H4       1.0000 0.47120  0.32390  0.50140  Biso   1.000  H
  C12      1.0000 0.60160  0.35720  0.59310  Biso   1.000  C
  H5       1.0000 0.54750  0.35510  0.62730  Biso   1.000  H
  C13      1.0000 0.73030  0.37730  0.60660  Biso   1.000  C
  C14      1.0000 0.82090  0.39250  0.67440  Biso   1.000  C
  C15      1.0000 0.84210  0.39160  0.80330  Biso   1.000  C
  C16      1.0000 0.83560  0.33010  0.85390  Biso   1.000  C
  H6       1.0000 0.78740  0.28210  0.84080  Biso   1.000  H
  C17      1.0000 0.89940  0.33960  0.92280  Biso   1.000  C
  C18      1.0000 0.97720  0.41320  0.94130  Biso   1.000  C
  H7       1.0000 0.02310  0.42050  0.98720  Biso   1.000  H
  C19      1.0000 0.98280  0.47140  0.89130  Biso   1.000  C
  C20      1.0000 0.91290  0.46440  0.82070  Biso   1.000  C
  H8       1.0000 0.91440  0.50640  0.78770  Biso   1.000  H
  C21      1.0000 0.05930  0.54940  0.91020  Biso   1.000  C
  C22      1.0000 0.88680  0.27810  0.97790  Biso   1.000  C
  N1       1.0000 0.53810  0.31280  0.36300  Biso   1.000  N
  H9       1.0000 0.46990  0.31270  0.38360  Biso   1.000  H
  N2       1.0000 0.76680  0.38080  0.73400  Biso   1.000  N
  H10      1.0000 0.68490  0.36650  0.72960  Biso   1.000  H
  O1       1.0000 0.66990  0.21270  0.07963  Biso   1.000  O
  O2       1.0000 0.81680  0.25640  0.17408  Biso   1.000  O
  O3       1.0000 0.12670  0.26010  0.18981  Biso   1.000  O
  O4       1.0000 0.19190  0.19770  0.09698  Biso   1.000  O
  O5       1.0000 0.94140  0.29450  0.04086  Biso   1.000  O
  O6       1.0000 0.82200  0.21480  0.95865  Biso   1.000  O
  O7       1.0000 0.12850  0.55370  0.97187  Biso   1.000  O
  O8       1.0000 0.05190  0.60590  0.86417  Biso   1.000  O
  O9       1.0000 0.75560  0.34400  0.38270  Biso   1.000  O
  O10      1.0000 0.93400  0.41410  0.67540  Biso   1.000  O
  Zn3      1.0000 0.27871  0.63247  0.98929  Biso   1.000  Zn
  Zn4      1.0000 0.03513  0.72661  0.87455  Biso   1.000  Zn
  S2       1.0000 0.20283  0.87626  0.46788  Biso   1.000  S
  C23      1.0000 0.78220  0.73280  0.84490  Biso   1.000  C
  C24      1.0000 0.64280  0.74950  0.81080  Biso   1.000  C
  C25      1.0000 0.54160  0.73780  0.84950  Biso   1.000  C
  H11      1.0000 0.56040  0.71980  0.89630  Biso   1.000  H
  C26      1.0000 0.41000  0.75350  0.81670  Biso   1.000  C
  C27      1.0000 0.30030  0.73940  0.85740  Biso   1.000  C
  C28      1.0000 0.38050  0.77820  0.74680  Biso   1.000  C
  H12      1.0000 0.29290  0.78760  0.72570  Biso   1.000  H
  C29      1.0000 0.48310  0.78930  0.70760  Biso   1.000  C
  C30      1.0000 0.61450  0.77540  0.74000  Biso   1.000  C
  H13      1.0000 0.68300  0.78330  0.71450  Biso   1.000  H
  C31      1.0000 0.34760  0.83540  0.59750  Biso   1.000  C
  C32      1.0000 0.34830  0.84760  0.51910  Biso   1.000  C
  C33      1.0000 0.44240  0.83960  0.48000  Biso   1.000  C
  H14      1.0000 0.52880  0.82390  0.49860  Biso   1.000  H
  C34      1.0000 0.39840  0.85720  0.40690  Biso   1.000  C
  H15      1.0000 0.45250  0.85510  0.37270  Biso   1.000  H
  C35      1.0000 0.26970  0.87730  0.39340  Biso   1.000  C
  C36      1.0000 0.17910  0.89250  0.32560  Biso   1.000  C
  C37      1.0000 0.15790  0.89160  0.19670  Biso   1.000  C
  C38      1.0000 0.16440  0.83010  0.14610  Biso   1.000  C
  H16      1.0000 0.21260  0.78210  0.15920  Biso   1.000  H
  C39      1.0000 0.10060  0.83960  0.07720  Biso   1.000  C
  C40      1.0000 0.02280  0.91320  0.05870  Biso   1.000  C
  H17      1.0000 0.97690  0.92050  0.01280  Biso   1.000  H
  C41      1.0000 0.01720  0.97140  0.10870  Biso   1.000  C
  C42      1.0000 0.08710  0.96440  0.17930  Biso   1.000  C
  H18      1.0000 0.08560  0.00640  0.21230  Biso   1.000  H
  C43      1.0000 0.94070  0.04940  0.08980  Biso   1.000  C
  C44      1.0000 0.11320  0.77810  0.02210  Biso   1.000  C
  N3       1.0000 0.46190  0.81280  0.63700  Biso   1.000  N
  H19      1.0000 0.53010  0.81270  0.61640  Biso   1.000  H
  N4       1.0000 0.23320  0.88080  0.26600  Biso   1.000  N
  H20      1.0000 0.31510  0.86650  0.27040  Biso   1.000  H
  O11      1.0000 0.33010  0.71270  0.92037  Biso   1.000  O
  O12      1.0000 0.18320  0.75640  0.82592  Biso   1.000  O
  O13      1.0000 0.87330  0.76010  0.81019  Biso   1.000  O
  O14      1.0000 0.80810  0.69770  0.90302  Biso   1.000  O
  O15      1.0000 0.05860  0.79450  0.95914  Biso   1.000  O
  O16      1.0000 0.17800  0.71480  0.04135  Biso   1.000  O
  O17      1.0000 0.87150  0.05370  0.02813  Biso   1.000  O
  O18      1.0000 0.94810  0.10590  0.13583  Biso   1.000  O
  O19      1.0000 0.24440  0.84400  0.61730  Biso   1.000  O
  O20      1.0000 0.06600  0.91410  0.32460  Biso   1.000  O
