data_image0
_cell_length_a       24.7935
_cell_length_b       33.5631
_cell_length_c       18.6669
_cell_angle_alpha    90
_cell_angle_beta     90
_cell_angle_gamma    90

_symmetry_space_group_name_H-M    "P 1"
_symmetry_int_tables_number       1

loop_
  _symmetry_equiv_pos_as_xyz
  'x, y, z'

loop_
  _atom_site_label
  _atom_site_occupancy
  _atom_site_fract_x
  _atom_site_fract_y
  _atom_site_fract_z
  _atom_site_thermal_displace_type
  _atom_site_B_iso_or_equiv
  _atom_site_type_symbol
  Cu1      1.0000 0.21013  0.26753  0.53533  Biso   1.000  Cu
  O1       1.0000 0.18246  0.21337  0.54500  Biso   1.000  O
  O2       1.0000 0.25480  0.25774  0.61960  Biso   1.000  O
  O3       1.0000 0.17782  0.27203  0.43940  Biso   1.000  O
  O4       1.0000 0.25062  0.31633  0.51520  Biso   1.000  O
  C1       1.0000 0.20660  0.18326  0.52220  Biso   1.000  C
  C2       1.0000 0.29890  0.23953  0.61650  Biso   1.000  C
  C3       1.0000 0.18380  0.14285  0.53970  Biso   1.000  C
  C4       1.0000 0.32620  0.22992  0.68540  Biso   1.000  C
  C5       1.0000 0.21100  0.10875  0.51870  Biso   1.000  C
  C6       1.0000 0.13910  0.14085  0.58380  Biso   1.000  C
  C7       1.0000 0.37500  0.20890  0.68590  Biso   1.000  C
  H1       1.0000 0.24210  0.11060  0.49100  Biso   1.000  H
  C8       1.0000 0.19100  0.07135  0.53980  Biso   1.000  C
  H2       1.0000 0.12210  0.16410  0.59880  Biso   1.000  H
  C9       1.0000 0.11970  0.10429  0.60560  Biso   1.000  C
  H3       1.0000 0.39100  0.20190  0.64260  Biso   1.000  H
  C10      1.0000 0.22070  0.03441  0.51890  Biso   1.000  C
  C11      1.0000 0.14640  0.06953  0.58310  Biso   1.000  C
  C12      1.0000 0.07290  0.10310  0.65750  Biso   1.000  C
  C13      1.0000 0.27760  0.03370  0.51950  Biso   1.000  C
  H4       1.0000 0.13350  0.04480  0.59780  Biso   1.000  H
  O5       1.0000 0.05608  0.06915  0.67580  Biso   1.000  O
  O6       1.0000 0.05472  0.13562  0.67590  Biso   1.000  O
  C14      1.0000 0.45200  0.13650  0.70290  Biso   1.000  C
  H5       1.0000 0.29690  0.05630  0.53300  Biso   1.000  H
  H6       1.0000 0.41580  0.13120  0.68400  Biso   1.000  H
  Cu2      1.0000 0.71013  0.76753  0.53533  Biso   1.000  Cu
  O7       1.0000 0.68246  0.71337  0.54500  Biso   1.000  O
  O8       1.0000 0.75480  0.75774  0.61960  Biso   1.000  O
  O9       1.0000 0.67782  0.77203  0.43940  Biso   1.000  O
  O10      1.0000 0.75062  0.81633  0.51520  Biso   1.000  O
  C15      1.0000 0.70660  0.68326  0.52220  Biso   1.000  C
  C16      1.0000 0.79890  0.73953  0.61650  Biso   1.000  C
  C17      1.0000 0.68380  0.64285  0.53970  Biso   1.000  C
  C18      1.0000 0.82620  0.72992  0.68540  Biso   1.000  C
  C19      1.0000 0.71100  0.60875  0.51870  Biso   1.000  C
  C20      1.0000 0.63910  0.64085  0.58380  Biso   1.000  C
  C21      1.0000 0.87500  0.70890  0.68590  Biso   1.000  C
  H7       1.0000 0.74210  0.61060  0.49100  Biso   1.000  H
  C22      1.0000 0.69100  0.57135  0.53980  Biso   1.000  C
  H8       1.0000 0.62210  0.66410  0.59880  Biso   1.000  H
  C23      1.0000 0.61970  0.60429  0.60560  Biso   1.000  C
  H9       1.0000 0.89100  0.70190  0.64260  Biso   1.000  H
  C24      1.0000 0.72070  0.53441  0.51890  Biso   1.000  C
  C25      1.0000 0.64640  0.56953  0.58310  Biso   1.000  C
  C26      1.0000 0.57290  0.60310  0.65750  Biso   1.000  C
  C27      1.0000 0.77760  0.53370  0.51950  Biso   1.000  C
  H10      1.0000 0.63350  0.54480  0.59780  Biso   1.000  H
  O11      1.0000 0.55608  0.56915  0.67580  Biso   1.000  O
  O12      1.0000 0.55472  0.63562  0.67590  Biso   1.000  O
  C28      1.0000 0.95200  0.63650  0.70290  Biso   1.000  C
  H11      1.0000 0.79690  0.55630  0.53300  Biso   1.000  H
  H12      1.0000 0.91580  0.63120  0.68400  Biso   1.000  H
  Cu3      1.0000 0.78987  0.73247  0.03533  Biso   1.000  Cu
  O13      1.0000 0.81754  0.78663  0.04500  Biso   1.000  O
  O14      1.0000 0.74520  0.74226  0.11960  Biso   1.000  O
  O15      1.0000 0.82218  0.72797  0.93940  Biso   1.000  O
  O16      1.0000 0.74938  0.68367  0.01520  Biso   1.000  O
  C29      1.0000 0.79340  0.81674  0.02220  Biso   1.000  C
  C30      1.0000 0.70110  0.76047  0.11650  Biso   1.000  C
  C31      1.0000 0.81620  0.85715  0.03970  Biso   1.000  C
  C32      1.0000 0.67380  0.77008  0.18540  Biso   1.000  C
  C33      1.0000 0.78900  0.89125  0.01870  Biso   1.000  C
  C34      1.0000 0.86090  0.85915  0.08380  Biso   1.000  C
  C35      1.0000 0.62500  0.79110  0.18590  Biso   1.000  C
  H13      1.0000 0.75790  0.88940  0.99100  Biso   1.000  H
  C36      1.0000 0.80900  0.92865  0.03980  Biso   1.000  C
  H14      1.0000 0.87790  0.83590  0.09880  Biso   1.000  H
  C37      1.0000 0.88030  0.89571  0.10560  Biso   1.000  C
  H15      1.0000 0.60900  0.79810  0.14260  Biso   1.000  H
  C38      1.0000 0.77930  0.96559  0.01890  Biso   1.000  C
  C39      1.0000 0.85360  0.93047  0.08310  Biso   1.000  C
  C40      1.0000 0.92710  0.89690  0.15750  Biso   1.000  C
  C41      1.0000 0.72240  0.96630  0.01950  Biso   1.000  C
  H16      1.0000 0.86650  0.95520  0.09780  Biso   1.000  H
  O17      1.0000 0.94392  0.93085  0.17580  Biso   1.000  O
  O18      1.0000 0.94528  0.86438  0.17590  Biso   1.000  O
  C42      1.0000 0.54800  0.86350  0.20290  Biso   1.000  C
  H17      1.0000 0.70310  0.94370  0.03300  Biso   1.000  H
  H18      1.0000 0.58420  0.86880  0.18400  Biso   1.000  H
  Cu4      1.0000 0.28987  0.23247  0.03533  Biso   1.000  Cu
  O19      1.0000 0.31754  0.28663  0.04500  Biso   1.000  O
  O20      1.0000 0.24520  0.24226  0.11960  Biso   1.000  O
  O21      1.0000 0.32218  0.22797  0.93940  Biso   1.000  O
  O22      1.0000 0.24938  0.18367  0.01520  Biso   1.000  O
  C43      1.0000 0.29340  0.31674  0.02220  Biso   1.000  C
  C44      1.0000 0.20110  0.26047  0.11650  Biso   1.000  C
  C45      1.0000 0.31620  0.35715  0.03970  Biso   1.000  C
  C46      1.0000 0.17380  0.27008  0.18540  Biso   1.000  C
  C47      1.0000 0.28900  0.39125  0.01870  Biso   1.000  C
  C48      1.0000 0.36090  0.35915  0.08380  Biso   1.000  C
  C49      1.0000 0.12500  0.29110  0.18590  Biso   1.000  C
  H19      1.0000 0.25790  0.38940  0.99100  Biso   1.000  H
  C50      1.0000 0.30900  0.42865  0.03980  Biso   1.000  C
  H20      1.0000 0.37790  0.33590  0.09880  Biso   1.000  H
  C51      1.0000 0.38030  0.39571  0.10560  Biso   1.000  C
  H21      1.0000 0.10900  0.29810  0.14260  Biso   1.000  H
  C52      1.0000 0.27930  0.46559  0.01890  Biso   1.000  C
  C53      1.0000 0.35360  0.43047  0.08310  Biso   1.000  C
  C54      1.0000 0.42710  0.39690  0.15750  Biso   1.000  C
  C55      1.0000 0.22240  0.46630  0.01950  Biso   1.000  C
  H22      1.0000 0.36650  0.45520  0.09780  Biso   1.000  H
  O23      1.0000 0.44392  0.43085  0.17580  Biso   1.000  O
  O24      1.0000 0.44528  0.36438  0.17590  Biso   1.000  O
  C56      1.0000 0.04800  0.36350  0.20290  Biso   1.000  C
  H23      1.0000 0.20310  0.44370  0.03300  Biso   1.000  H
  H24      1.0000 0.08420  0.36880  0.18400  Biso   1.000  H
  Cu5      1.0000 0.78987  0.26753  0.96467  Biso   1.000  Cu
  O25      1.0000 0.81754  0.21337  0.95500  Biso   1.000  O
  O26      1.0000 0.74520  0.25774  0.88040  Biso   1.000  O
  O27      1.0000 0.82218  0.27203  0.06060  Biso   1.000  O
  O28      1.0000 0.74938  0.31633  0.98480  Biso   1.000  O
  C57      1.0000 0.79340  0.18326  0.97780  Biso   1.000  C
  C58      1.0000 0.70110  0.23953  0.88350  Biso   1.000  C
  C59      1.0000 0.81620  0.14285  0.96030  Biso   1.000  C
  C60      1.0000 0.67380  0.22992  0.81460  Biso   1.000  C
  C61      1.0000 0.78900  0.10875  0.98130  Biso   1.000  C
  C62      1.0000 0.86090  0.14085  0.91620  Biso   1.000  C
  C63      1.0000 0.62500  0.20890  0.81410  Biso   1.000  C
  H25      1.0000 0.75790  0.11060  0.00900  Biso   1.000  H
  C64      1.0000 0.80900  0.07135  0.96020  Biso   1.000  C
  H26      1.0000 0.87790  0.16410  0.90120  Biso   1.000  H
  C65      1.0000 0.88030  0.10429  0.89440  Biso   1.000  C
  H27      1.0000 0.60900  0.20190  0.85740  Biso   1.000  H
  C66      1.0000 0.77930  0.03441  0.98110  Biso   1.000  C
  C67      1.0000 0.85360  0.06953  0.91690  Biso   1.000  C
  C68      1.0000 0.92710  0.10310  0.84250  Biso   1.000  C
  C69      1.0000 0.72240  0.03370  0.98050  Biso   1.000  C
  H28      1.0000 0.86650  0.04480  0.90220  Biso   1.000  H
  O29      1.0000 0.94392  0.06915  0.82420  Biso   1.000  O
  O30      1.0000 0.94528  0.13562  0.82410  Biso   1.000  O
  C70      1.0000 0.54800  0.13650  0.79710  Biso   1.000  C
  H29      1.0000 0.70310  0.05630  0.96700  Biso   1.000  H
  H30      1.0000 0.58420  0.13120  0.81600  Biso   1.000  H
  Cu6      1.0000 0.28987  0.76753  0.96467  Biso   1.000  Cu
  O31      1.0000 0.31754  0.71337  0.95500  Biso   1.000  O
  O32      1.0000 0.24520  0.75774  0.88040  Biso   1.000  O
  O33      1.0000 0.32218  0.77203  0.06060  Biso   1.000  O
  O34      1.0000 0.24938  0.81633  0.98480  Biso   1.000  O
  C71      1.0000 0.29340  0.68326  0.97780  Biso   1.000  C
  C72      1.0000 0.20110  0.73953  0.88350  Biso   1.000  C
  C73      1.0000 0.31620  0.64285  0.96030  Biso   1.000  C
  C74      1.0000 0.17380  0.72992  0.81460  Biso   1.000  C
  C75      1.0000 0.28900  0.60875  0.98130  Biso   1.000  C
  C76      1.0000 0.36090  0.64085  0.91620  Biso   1.000  C
  C77      1.0000 0.12500  0.70890  0.81410  Biso   1.000  C
  H31      1.0000 0.25790  0.61060  0.00900  Biso   1.000  H
  C78      1.0000 0.30900  0.57135  0.96020  Biso   1.000  C
  H32      1.0000 0.37790  0.66410  0.90120  Biso   1.000  H
  C79      1.0000 0.38030  0.60429  0.89440  Biso   1.000  C
  H33      1.0000 0.10900  0.70190  0.85740  Biso   1.000  H
  C80      1.0000 0.27930  0.53441  0.98110  Biso   1.000  C
  C81      1.0000 0.35360  0.56953  0.91690  Biso   1.000  C
  C82      1.0000 0.42710  0.60310  0.84250  Biso   1.000  C
  C83      1.0000 0.22240  0.53370  0.98050  Biso   1.000  C
  H34      1.0000 0.36650  0.54480  0.90220  Biso   1.000  H
  O35      1.0000 0.44392  0.56915  0.82420  Biso   1.000  O
  O36      1.0000 0.44528  0.63562  0.82410  Biso   1.000  O
  C84      1.0000 0.04800  0.63650  0.79710  Biso   1.000  C
  H35      1.0000 0.20310  0.55630  0.96700  Biso   1.000  H
  H36      1.0000 0.08420  0.63120  0.81600  Biso   1.000  H
  Cu7      1.0000 0.21013  0.73247  0.46467  Biso   1.000  Cu
  O37      1.0000 0.18246  0.78663  0.45500  Biso   1.000  O
  O38      1.0000 0.25480  0.74226  0.38040  Biso   1.000  O
  O39      1.0000 0.17782  0.72797  0.56060  Biso   1.000  O
  O40      1.0000 0.25062  0.68367  0.48480  Biso   1.000  O
  C85      1.0000 0.20660  0.81674  0.47780  Biso   1.000  C
  C86      1.0000 0.29890  0.76047  0.38350  Biso   1.000  C
  C87      1.0000 0.18380  0.85715  0.46030  Biso   1.000  C
  C88      1.0000 0.32620  0.77008  0.31460  Biso   1.000  C
  C89      1.0000 0.21100  0.89125  0.48130  Biso   1.000  C
  C90      1.0000 0.13910  0.85915  0.41620  Biso   1.000  C
  C91      1.0000 0.37500  0.79110  0.31410  Biso   1.000  C
  H37      1.0000 0.24210  0.88940  0.50900  Biso   1.000  H
  C92      1.0000 0.19100  0.92865  0.46020  Biso   1.000  C
  H38      1.0000 0.12210  0.83590  0.40120  Biso   1.000  H
  C93      1.0000 0.11970  0.89571  0.39440  Biso   1.000  C
  H39      1.0000 0.39100  0.79810  0.35740  Biso   1.000  H
  C94      1.0000 0.22070  0.96559  0.48110  Biso   1.000  C
  C95      1.0000 0.14640  0.93047  0.41690  Biso   1.000  C
  C96      1.0000 0.07290  0.89690  0.34250  Biso   1.000  C
  C97      1.0000 0.27760  0.96630  0.48050  Biso   1.000  C
  H40      1.0000 0.13350  0.95520  0.40220  Biso   1.000  H
  O41      1.0000 0.05608  0.93085  0.32420  Biso   1.000  O
  O42      1.0000 0.05472  0.86438  0.32410  Biso   1.000  O
  C98      1.0000 0.45200  0.86350  0.29710  Biso   1.000  C
  H41      1.0000 0.29690  0.94370  0.46700  Biso   1.000  H
  H42      1.0000 0.41580  0.86880  0.31600  Biso   1.000  H
  Cu8      1.0000 0.71013  0.23247  0.46467  Biso   1.000  Cu
  O43      1.0000 0.68246  0.28663  0.45500  Biso   1.000  O
  O44      1.0000 0.75480  0.24226  0.38040  Biso   1.000  O
  O45      1.0000 0.67782  0.22797  0.56060  Biso   1.000  O
  O46      1.0000 0.75062  0.18367  0.48480  Biso   1.000  O
  C99      1.0000 0.70660  0.31674  0.47780  Biso   1.000  C
  C100     1.0000 0.79890  0.26047  0.38350  Biso   1.000  C
  C101     1.0000 0.68380  0.35715  0.46030  Biso   1.000  C
  C102     1.0000 0.82620  0.27008  0.31460  Biso   1.000  C
  C103     1.0000 0.71100  0.39125  0.48130  Biso   1.000  C
  C104     1.0000 0.63910  0.35915  0.41620  Biso   1.000  C
  C105     1.0000 0.87500  0.29110  0.31410  Biso   1.000  C
  H43      1.0000 0.74210  0.38940  0.50900  Biso   1.000  H
  C106     1.0000 0.69100  0.42865  0.46020  Biso   1.000  C
  H44      1.0000 0.62210  0.33590  0.40120  Biso   1.000  H
  C107     1.0000 0.61970  0.39571  0.39440  Biso   1.000  C
  H45      1.0000 0.89100  0.29810  0.35740  Biso   1.000  H
  C108     1.0000 0.72070  0.46559  0.48110  Biso   1.000  C
  C109     1.0000 0.64640  0.43047  0.41690  Biso   1.000  C
  C110     1.0000 0.57290  0.39690  0.34250  Biso   1.000  C
  C111     1.0000 0.77760  0.46630  0.48050  Biso   1.000  C
  H46      1.0000 0.63350  0.45520  0.40220  Biso   1.000  H
  O47      1.0000 0.55608  0.43085  0.32420  Biso   1.000  O
  O48      1.0000 0.55472  0.36438  0.32410  Biso   1.000  O
  C112     1.0000 0.95200  0.36350  0.29710  Biso   1.000  C
  H47      1.0000 0.79690  0.44370  0.46700  Biso   1.000  H
  H48      1.0000 0.91580  0.36880  0.31600  Biso   1.000  H
  Cu9      1.0000 0.78987  0.73247  0.46467  Biso   1.000  Cu
  O49      1.0000 0.81754  0.78663  0.45500  Biso   1.000  O
  O50      1.0000 0.74520  0.74226  0.38040  Biso   1.000  O
  O51      1.0000 0.82218  0.72797  0.56060  Biso   1.000  O
  O52      1.0000 0.74938  0.68367  0.48480  Biso   1.000  O
  C113     1.0000 0.79340  0.81674  0.47780  Biso   1.000  C
  C114     1.0000 0.70110  0.76047  0.38350  Biso   1.000  C
  C115     1.0000 0.81620  0.85715  0.46030  Biso   1.000  C
  C116     1.0000 0.67380  0.77008  0.31460  Biso   1.000  C
  C117     1.0000 0.78900  0.89125  0.48130  Biso   1.000  C
  C118     1.0000 0.86090  0.85915  0.41620  Biso   1.000  C
  C119     1.0000 0.62500  0.79110  0.31410  Biso   1.000  C
  H49      1.0000 0.75790  0.88940  0.50900  Biso   1.000  H
  C120     1.0000 0.80900  0.92865  0.46020  Biso   1.000  C
  H50      1.0000 0.87790  0.83590  0.40120  Biso   1.000  H
  C121     1.0000 0.88030  0.89571  0.39440  Biso   1.000  C
  H51      1.0000 0.60900  0.79810  0.35740  Biso   1.000  H
  C122     1.0000 0.77930  0.96559  0.48110  Biso   1.000  C
  C123     1.0000 0.85360  0.93047  0.41690  Biso   1.000  C
  C124     1.0000 0.92710  0.89690  0.34250  Biso   1.000  C
  C125     1.0000 0.72240  0.96630  0.48050  Biso   1.000  C
  H52      1.0000 0.86650  0.95520  0.40220  Biso   1.000  H
  O53      1.0000 0.94392  0.93085  0.32420  Biso   1.000  O
  O54      1.0000 0.94528  0.86438  0.32410  Biso   1.000  O
  C126     1.0000 0.54800  0.86350  0.29710  Biso   1.000  C
  H53      1.0000 0.70310  0.94370  0.46700  Biso   1.000  H
  H54      1.0000 0.58420  0.86880  0.31600  Biso   1.000  H
  Cu10     1.0000 0.28987  0.23247  0.46467  Biso   1.000  Cu
  O55      1.0000 0.31754  0.28663  0.45500  Biso   1.000  O
  O56      1.0000 0.24520  0.24226  0.38040  Biso   1.000  O
  O57      1.0000 0.32218  0.22797  0.56060  Biso   1.000  O
  O58      1.0000 0.24938  0.18367  0.48480  Biso   1.000  O
  C127     1.0000 0.29340  0.31674  0.47780  Biso   1.000  C
  C128     1.0000 0.20110  0.26047  0.38350  Biso   1.000  C
  C129     1.0000 0.31620  0.35715  0.46030  Biso   1.000  C
  C130     1.0000 0.17380  0.27008  0.31460  Biso   1.000  C
  C131     1.0000 0.28900  0.39125  0.48130  Biso   1.000  C
  C132     1.0000 0.36090  0.35915  0.41620  Biso   1.000  C
  C133     1.0000 0.12500  0.29110  0.31410  Biso   1.000  C
  H55      1.0000 0.25790  0.38940  0.50900  Biso   1.000  H
  C134     1.0000 0.30900  0.42865  0.46020  Biso   1.000  C
  H56      1.0000 0.37790  0.33590  0.40120  Biso   1.000  H
  C135     1.0000 0.38030  0.39571  0.39440  Biso   1.000  C
  H57      1.0000 0.10900  0.29810  0.35740  Biso   1.000  H
  C136     1.0000 0.27930  0.46559  0.48110  Biso   1.000  C
  C137     1.0000 0.35360  0.43047  0.41690  Biso   1.000  C
  C138     1.0000 0.42710  0.39690  0.34250  Biso   1.000  C
  C139     1.0000 0.22240  0.46630  0.48050  Biso   1.000  C
  H58      1.0000 0.36650  0.45520  0.40220  Biso   1.000  H
  O59      1.0000 0.44392  0.43085  0.32420  Biso   1.000  O
  O60      1.0000 0.44528  0.36438  0.32410  Biso   1.000  O
  C140     1.0000 0.04800  0.36350  0.29710  Biso   1.000  C
  H59      1.0000 0.20310  0.44370  0.46700  Biso   1.000  H
  H60      1.0000 0.08420  0.36880  0.31600  Biso   1.000  H
  Cu11     1.0000 0.21013  0.26753  0.96467  Biso   1.000  Cu
  O61      1.0000 0.18246  0.21337  0.95500  Biso   1.000  O
  O62      1.0000 0.25480  0.25774  0.88040  Biso   1.000  O
  O63      1.0000 0.17782  0.27203  0.06060  Biso   1.000  O
  O64      1.0000 0.25062  0.31633  0.98480  Biso   1.000  O
  C141     1.0000 0.20660  0.18326  0.97780  Biso   1.000  C
  C142     1.0000 0.29890  0.23953  0.88350  Biso   1.000  C
  C143     1.0000 0.18380  0.14285  0.96030  Biso   1.000  C
  C144     1.0000 0.32620  0.22992  0.81460  Biso   1.000  C
  C145     1.0000 0.21100  0.10875  0.98130  Biso   1.000  C
  C146     1.0000 0.13910  0.14085  0.91620  Biso   1.000  C
  C147     1.0000 0.37500  0.20890  0.81410  Biso   1.000  C
  H61      1.0000 0.24210  0.11060  0.00900  Biso   1.000  H
  C148     1.0000 0.19100  0.07135  0.96020  Biso   1.000  C
  H62      1.0000 0.12210  0.16410  0.90120  Biso   1.000  H
  C149     1.0000 0.11970  0.10429  0.89440  Biso   1.000  C
  H63      1.0000 0.39100  0.20190  0.85740  Biso   1.000  H
  C150     1.0000 0.22070  0.03441  0.98110  Biso   1.000  C
  C151     1.0000 0.14640  0.06953  0.91690  Biso   1.000  C
  C152     1.0000 0.07290  0.10310  0.84250  Biso   1.000  C
  C153     1.0000 0.27760  0.03370  0.98050  Biso   1.000  C
  H64      1.0000 0.13350  0.04480  0.90220  Biso   1.000  H
  O65      1.0000 0.05608  0.06915  0.82420  Biso   1.000  O
  O66      1.0000 0.05472  0.13562  0.82410  Biso   1.000  O
  C154     1.0000 0.45200  0.13650  0.79710  Biso   1.000  C
  H65      1.0000 0.29690  0.05630  0.96700  Biso   1.000  H
  H66      1.0000 0.41580  0.13120  0.81600  Biso   1.000  H
  Cu12     1.0000 0.71013  0.76753  0.96467  Biso   1.000  Cu
  O67      1.0000 0.68246  0.71337  0.95500  Biso   1.000  O
  O68      1.0000 0.75480  0.75774  0.88040  Biso   1.000  O
  O69      1.0000 0.67782  0.77203  0.06060  Biso   1.000  O
  O70      1.0000 0.75062  0.81633  0.98480  Biso   1.000  O
  C155     1.0000 0.70660  0.68326  0.97780  Biso   1.000  C
  C156     1.0000 0.79890  0.73953  0.88350  Biso   1.000  C
  C157     1.0000 0.68380  0.64285  0.96030  Biso   1.000  C
  C158     1.0000 0.82620  0.72992  0.81460  Biso   1.000  C
  C159     1.0000 0.71100  0.60875  0.98130  Biso   1.000  C
  C160     1.0000 0.63910  0.64085  0.91620  Biso   1.000  C
  C161     1.0000 0.87500  0.70890  0.81410  Biso   1.000  C
  H67      1.0000 0.74210  0.61060  0.00900  Biso   1.000  H
  C162     1.0000 0.69100  0.57135  0.96020  Biso   1.000  C
  H68      1.0000 0.62210  0.66410  0.90120  Biso   1.000  H
  C163     1.0000 0.61970  0.60429  0.89440  Biso   1.000  C
  H69      1.0000 0.89100  0.70190  0.85740  Biso   1.000  H
  C164     1.0000 0.72070  0.53441  0.98110  Biso   1.000  C
  C165     1.0000 0.64640  0.56953  0.91690  Biso   1.000  C
  C166     1.0000 0.57290  0.60310  0.84250  Biso   1.000  C
  C167     1.0000 0.77760  0.53370  0.98050  Biso   1.000  C
  H70      1.0000 0.63350  0.54480  0.90220  Biso   1.000  H
  O71      1.0000 0.55608  0.56915  0.82420  Biso   1.000  O
  O72      1.0000 0.55472  0.63562  0.82410  Biso   1.000  O
  C168     1.0000 0.95200  0.63650  0.79710  Biso   1.000  C
  H71      1.0000 0.79690  0.55630  0.96700  Biso   1.000  H
  H72      1.0000 0.91580  0.63120  0.81600  Biso   1.000  H
  Cu13     1.0000 0.21013  0.73247  0.03533  Biso   1.000  Cu
  O73      1.0000 0.18246  0.78663  0.04500  Biso   1.000  O
  O74      1.0000 0.25480  0.74226  0.11960  Biso   1.000  O
  O75      1.0000 0.17782  0.72797  0.93940  Biso   1.000  O
  O76      1.0000 0.25062  0.68367  0.01520  Biso   1.000  O
  C169     1.0000 0.20660  0.81674  0.02220  Biso   1.000  C
  C170     1.0000 0.29890  0.76047  0.11650  Biso   1.000  C
  C171     1.0000 0.18380  0.85715  0.03970  Biso   1.000  C
  C172     1.0000 0.32620  0.77008  0.18540  Biso   1.000  C
  C173     1.0000 0.21100  0.89125  0.01870  Biso   1.000  C
  C174     1.0000 0.13910  0.85915  0.08380  Biso   1.000  C
  C175     1.0000 0.37500  0.79110  0.18590  Biso   1.000  C
  H73      1.0000 0.24210  0.88940  0.99100  Biso   1.000  H
  C176     1.0000 0.19100  0.92865  0.03980  Biso   1.000  C
  H74      1.0000 0.12210  0.83590  0.09880  Biso   1.000  H
  C177     1.0000 0.11970  0.89571  0.10560  Biso   1.000  C
  H75      1.0000 0.39100  0.79810  0.14260  Biso   1.000  H
  C178     1.0000 0.22070  0.96559  0.01890  Biso   1.000  C
  C179     1.0000 0.14640  0.93047  0.08310  Biso   1.000  C
  C180     1.0000 0.07290  0.89690  0.15750  Biso   1.000  C
  C181     1.0000 0.27760  0.96630  0.01950  Biso   1.000  C
  H76      1.0000 0.13350  0.95520  0.09780  Biso   1.000  H
  O77      1.0000 0.05608  0.93085  0.17580  Biso   1.000  O
  O78      1.0000 0.05472  0.86438  0.17590  Biso   1.000  O
  C182     1.0000 0.45200  0.86350  0.20290  Biso   1.000  C
  H77      1.0000 0.29690  0.94370  0.03300  Biso   1.000  H
  H78      1.0000 0.41580  0.86880  0.18400  Biso   1.000  H
  Cu14     1.0000 0.71013  0.23247  0.03533  Biso   1.000  Cu
  O79      1.0000 0.68246  0.28663  0.04500  Biso   1.000  O
  O80      1.0000 0.75480  0.24226  0.11960  Biso   1.000  O
  O81      1.0000 0.67782  0.22797  0.93940  Biso   1.000  O
  O82      1.0000 0.75062  0.18367  0.01520  Biso   1.000  O
  C183     1.0000 0.70660  0.31674  0.02220  Biso   1.000  C
  C184     1.0000 0.79890  0.26047  0.11650  Biso   1.000  C
  C185     1.0000 0.68380  0.35715  0.03970  Biso   1.000  C
  C186     1.0000 0.82620  0.27008  0.18540  Biso   1.000  C
  C187     1.0000 0.71100  0.39125  0.01870  Biso   1.000  C
  C188     1.0000 0.63910  0.35915  0.08380  Biso   1.000  C
  C189     1.0000 0.87500  0.29110  0.18590  Biso   1.000  C
  H79      1.0000 0.74210  0.38940  0.99100  Biso   1.000  H
  C190     1.0000 0.69100  0.42865  0.03980  Biso   1.000  C
  H80      1.0000 0.62210  0.33590  0.09880  Biso   1.000  H
  C191     1.0000 0.61970  0.39571  0.10560  Biso   1.000  C
  H81      1.0000 0.89100  0.29810  0.14260  Biso   1.000  H
  C192     1.0000 0.72070  0.46559  0.01890  Biso   1.000  C
  C193     1.0000 0.64640  0.43047  0.08310  Biso   1.000  C
  C194     1.0000 0.57290  0.39690  0.15750  Biso   1.000  C
  C195     1.0000 0.77760  0.46630  0.01950  Biso   1.000  C
  H82      1.0000 0.63350  0.45520  0.09780  Biso   1.000  H
  O83      1.0000 0.55608  0.43085  0.17580  Biso   1.000  O
  O84      1.0000 0.55472  0.36438  0.17590  Biso   1.000  O
  C196     1.0000 0.95200  0.36350  0.20290  Biso   1.000  C
  H83      1.0000 0.79690  0.44370  0.03300  Biso   1.000  H
  H84      1.0000 0.91580  0.36880  0.18400  Biso   1.000  H
  Cu15     1.0000 0.78987  0.26753  0.53533  Biso   1.000  Cu
  O85      1.0000 0.81754  0.21337  0.54500  Biso   1.000  O
  O86      1.0000 0.74520  0.25774  0.61960  Biso   1.000  O
  O87      1.0000 0.82218  0.27203  0.43940  Biso   1.000  O
  O88      1.0000 0.74938  0.31633  0.51520  Biso   1.000  O
  C197     1.0000 0.79340  0.18326  0.52220  Biso   1.000  C
  C198     1.0000 0.70110  0.23953  0.61650  Biso   1.000  C
  C199     1.0000 0.81620  0.14285  0.53970  Biso   1.000  C
  C200     1.0000 0.67380  0.22992  0.68540  Biso   1.000  C
  C201     1.0000 0.78900  0.10875  0.51870  Biso   1.000  C
  C202     1.0000 0.86090  0.14085  0.58380  Biso   1.000  C
  C203     1.0000 0.62500  0.20890  0.68590  Biso   1.000  C
  H85      1.0000 0.75790  0.11060  0.49100  Biso   1.000  H
  C204     1.0000 0.80900  0.07135  0.53980  Biso   1.000  C
  H86      1.0000 0.87790  0.16410  0.59880  Biso   1.000  H
  C205     1.0000 0.88030  0.10429  0.60560  Biso   1.000  C
  H87      1.0000 0.60900  0.20190  0.64260  Biso   1.000  H
  C206     1.0000 0.77930  0.03441  0.51890  Biso   1.000  C
  C207     1.0000 0.85360  0.06953  0.58310  Biso   1.000  C
  C208     1.0000 0.92710  0.10310  0.65750  Biso   1.000  C
  C209     1.0000 0.72240  0.03370  0.51950  Biso   1.000  C
  H88      1.0000 0.86650  0.04480  0.59780  Biso   1.000  H
  O89      1.0000 0.94392  0.06915  0.67580  Biso   1.000  O
  O90      1.0000 0.94528  0.13562  0.67590  Biso   1.000  O
  C210     1.0000 0.54800  0.13650  0.70290  Biso   1.000  C
  H89      1.0000 0.70310  0.05630  0.53300  Biso   1.000  H
  H90      1.0000 0.58420  0.13120  0.68400  Biso   1.000  H
  Cu16     1.0000 0.28987  0.76753  0.53533  Biso   1.000  Cu
  O91      1.0000 0.31754  0.71337  0.54500  Biso   1.000  O
  O92      1.0000 0.24520  0.75774  0.61960  Biso   1.000  O
  O93      1.0000 0.32218  0.77203  0.43940  Biso   1.000  O
  O94      1.0000 0.24938  0.81633  0.51520  Biso   1.000  O
  C211     1.0000 0.29340  0.68326  0.52220  Biso   1.000  C
  C212     1.0000 0.20110  0.73953  0.61650  Biso   1.000  C
  C213     1.0000 0.31620  0.64285  0.53970  Biso   1.000  C
  C214     1.0000 0.17380  0.72992  0.68540  Biso   1.000  C
  C215     1.0000 0.28900  0.60875  0.51870  Biso   1.000  C
  C216     1.0000 0.36090  0.64085  0.58380  Biso   1.000  C
  C217     1.0000 0.12500  0.70890  0.68590  Biso   1.000  C
  H91      1.0000 0.25790  0.61060  0.49100  Biso   1.000  H
  C218     1.0000 0.30900  0.57135  0.53980  Biso   1.000  C
  H92      1.0000 0.37790  0.66410  0.59880  Biso   1.000  H
  C219     1.0000 0.38030  0.60429  0.60560  Biso   1.000  C
  H93      1.0000 0.10900  0.70190  0.64260  Biso   1.000  H
  C220     1.0000 0.27930  0.53441  0.51890  Biso   1.000  C
  C221     1.0000 0.35360  0.56953  0.58310  Biso   1.000  C
  C222     1.0000 0.42710  0.60310  0.65750  Biso   1.000  C
  C223     1.0000 0.22240  0.53370  0.51950  Biso   1.000  C
  H94      1.0000 0.36650  0.54480  0.59780  Biso   1.000  H
  O95      1.0000 0.44392  0.56915  0.67580  Biso   1.000  O
  O96      1.0000 0.44528  0.63562  0.67590  Biso   1.000  O
  C224     1.0000 0.04800  0.63650  0.70290  Biso   1.000  C
  H95      1.0000 0.20310  0.55630  0.53300  Biso   1.000  H
  H96      1.0000 0.08420  0.63120  0.68400  Biso   1.000  H
  C225     1.0000 0.30180  0.24090  0.75000  Biso   1.000  C
  H97      1.0000 0.26970  0.25520  0.75000  Biso   1.000  H
  C226     1.0000 0.40000  0.19810  0.75000  Biso   1.000  C
  C227     1.0000 0.45280  0.17540  0.75000  Biso   1.000  C
  C228     1.0000 0.80180  0.74090  0.75000  Biso   1.000  C
  H98      1.0000 0.76970  0.75520  0.75000  Biso   1.000  H
  C229     1.0000 0.90000  0.69810  0.75000  Biso   1.000  C
  C230     1.0000 0.95280  0.67540  0.75000  Biso   1.000  C
  C231     1.0000 0.69820  0.75910  0.25000  Biso   1.000  C
  H99      1.0000 0.73030  0.74480  0.25000  Biso   1.000  H
  C232     1.0000 0.60000  0.80190  0.25000  Biso   1.000  C
  C233     1.0000 0.54720  0.82460  0.25000  Biso   1.000  C
  C234     1.0000 0.19820  0.25910  0.25000  Biso   1.000  C
  H100     1.0000 0.23030  0.24480  0.25000  Biso   1.000  H
  C235     1.0000 0.10000  0.30190  0.25000  Biso   1.000  C
  C236     1.0000 0.04720  0.32460  0.25000  Biso   1.000  C
  C237     1.0000 0.69820  0.24090  0.75000  Biso   1.000  C
  H101     1.0000 0.73030  0.25520  0.75000  Biso   1.000  H
  C238     1.0000 0.60000  0.19810  0.75000  Biso   1.000  C
  C239     1.0000 0.54720  0.17540  0.75000  Biso   1.000  C
  C240     1.0000 0.19820  0.74090  0.75000  Biso   1.000  C
  H102     1.0000 0.23030  0.75520  0.75000  Biso   1.000  H
  C241     1.0000 0.10000  0.69810  0.75000  Biso   1.000  C
  C242     1.0000 0.04720  0.67540  0.75000  Biso   1.000  C
  C243     1.0000 0.30180  0.75910  0.25000  Biso   1.000  C
  H103     1.0000 0.26970  0.74480  0.25000  Biso   1.000  H
  C244     1.0000 0.40000  0.80190  0.25000  Biso   1.000  C
  C245     1.0000 0.45280  0.82460  0.25000  Biso   1.000  C
  C246     1.0000 0.80180  0.25910  0.25000  Biso   1.000  C
  H104     1.0000 0.76970  0.24480  0.25000  Biso   1.000  H
  C247     1.0000 0.90000  0.30190  0.25000  Biso   1.000  C
  C248     1.0000 0.95280  0.32460  0.25000  Biso   1.000  C
  C249     1.0000 0.19230  0.00000  0.50000  Biso   1.000  C
  H105     1.0000 0.15480  0.00000  0.50000  Biso   1.000  H
  C250     1.0000 0.30380  0.00000  0.50000  Biso   1.000  C
  N1       1.0000 0.36260  0.00000  0.50000  Biso   1.000  N
  C251     1.0000 0.69230  0.50000  0.50000  Biso   1.000  C
  H106     1.0000 0.65480  0.50000  0.50000  Biso   1.000  H
  C252     1.0000 0.80380  0.50000  0.50000  Biso   1.000  C
  N2       1.0000 0.86260  0.50000  0.50000  Biso   1.000  N
  C253     1.0000 0.80770  0.00000  0.00000  Biso   1.000  C
  H107     1.0000 0.84520  0.00000  0.00000  Biso   1.000  H
  C254     1.0000 0.69620  0.00000  0.00000  Biso   1.000  C
  N3       1.0000 0.63740  0.00000  0.00000  Biso   1.000  N
  C255     1.0000 0.30770  0.50000  0.00000  Biso   1.000  C
  H108     1.0000 0.34520  0.50000  0.00000  Biso   1.000  H
  C256     1.0000 0.19620  0.50000  0.00000  Biso   1.000  C
  N4       1.0000 0.13740  0.50000  0.00000  Biso   1.000  N
  C257     1.0000 0.80770  0.00000  0.50000  Biso   1.000  C
  H109     1.0000 0.84520  0.00000  0.50000  Biso   1.000  H
  C258     1.0000 0.69620  0.00000  0.50000  Biso   1.000  C
  N5       1.0000 0.63740  0.00000  0.50000  Biso   1.000  N
  C259     1.0000 0.30770  0.50000  0.50000  Biso   1.000  C
  H110     1.0000 0.34520  0.50000  0.50000  Biso   1.000  H
  C260     1.0000 0.19620  0.50000  0.50000  Biso   1.000  C
  N6       1.0000 0.13740  0.50000  0.50000  Biso   1.000  N
  C261     1.0000 0.19230  0.00000  0.00000  Biso   1.000  C
  H111     1.0000 0.15480  0.00000  0.00000  Biso   1.000  H
  C262     1.0000 0.30380  0.00000  0.00000  Biso   1.000  C
  N7       1.0000 0.36260  0.00000  0.00000  Biso   1.000  N
  C263     1.0000 0.69230  0.50000  0.00000  Biso   1.000  C
  H112     1.0000 0.65480  0.50000  0.00000  Biso   1.000  H
  C264     1.0000 0.80380  0.50000  0.00000  Biso   1.000  C
  N8       1.0000 0.86260  0.50000  0.00000  Biso   1.000  N
  C265     1.0000 0.50000  0.19370  0.75000  Biso   1.000  C
  H113     1.0000 0.50000  0.22150  0.75000  Biso   1.000  H
  C266     1.0000 0.00000  0.69370  0.75000  Biso   1.000  C
  H114     1.0000 0.00000  0.72150  0.75000  Biso   1.000  H
  C267     1.0000 0.50000  0.80630  0.25000  Biso   1.000  C
  H115     1.0000 0.50000  0.77850  0.25000  Biso   1.000  H
  C268     1.0000 0.00000  0.30630  0.25000  Biso   1.000  C
  H116     1.0000 0.00000  0.27850  0.25000  Biso   1.000  H
  Cu17     1.0000 0.00000  0.06236  0.75000  Biso   1.000  Cu
  Cu18     1.0000 0.00000  0.14132  0.75000  Biso   1.000  Cu
  Cu19     1.0000 0.50000  0.56236  0.75000  Biso   1.000  Cu
  Cu20     1.0000 0.50000  0.64132  0.75000  Biso   1.000  Cu
  Cu21     1.0000 0.00000  0.93764  0.25000  Biso   1.000  Cu
  Cu22     1.0000 0.00000  0.85868  0.25000  Biso   1.000  Cu
  Cu23     1.0000 0.50000  0.43764  0.25000  Biso   1.000  Cu
  Cu24     1.0000 0.50000  0.35868  0.25000  Biso   1.000  Cu
