data_image0
_cell_length_a       17.6019
_cell_length_b       17.6019
_cell_length_c       17.6019
_cell_angle_alpha    90
_cell_angle_beta     90
_cell_angle_gamma    90

_symmetry_space_group_name_H-M    "P 1"
_symmetry_int_tables_number       1

loop_
  _symmetry_equiv_pos_as_xyz
  'x, y, z'

loop_
  _atom_site_label
  _atom_site_occupancy
  _atom_site_fract_x
  _atom_site_fract_y
  _atom_site_fract_z
  _atom_site_thermal_displace_type
  _atom_site_B_iso_or_equiv
  _atom_site_type_symbol
  Zn1      1.0000 0.62500  0.12500  0.12500  Biso   1.000  Zn
  Zn2      1.0000 0.12500  0.62500  0.12500  Biso   1.000  Zn
  Zn3      1.0000 0.12500  0.12500  0.62500  Biso   1.000  Zn
  Zn4      1.0000 0.62500  0.62500  0.62500  Biso   1.000  Zn
  Zn5      1.0000 0.87500  0.87500  0.37500  Biso   1.000  Zn
  Zn6      1.0000 0.87500  0.37500  0.87500  Biso   1.000  Zn
  Zn7      1.0000 0.37500  0.87500  0.87500  Biso   1.000  Zn
  Zn8      1.0000 0.37500  0.37500  0.37500  Biso   1.000  Zn
  Zn9      1.0000 0.50000  0.25000  0.25000  Biso   1.000  Zn
  Zn10     1.0000 0.00000  0.25000  0.75000  Biso   1.000  Zn
  Zn11     1.0000 0.25000  0.00000  0.75000  Biso   1.000  Zn
  Zn12     1.0000 0.75000  0.75000  0.50000  Biso   1.000  Zn
  Zn13     1.0000 0.25000  0.75000  0.00000  Biso   1.000  Zn
  Zn14     1.0000 0.00000  0.50000  0.00000  Biso   1.000  Zn
  Zn15     1.0000 0.25000  0.50000  0.25000  Biso   1.000  Zn
  Zn16     1.0000 0.75000  0.00000  0.25000  Biso   1.000  Zn
  Zn17     1.0000 0.75000  0.25000  0.00000  Biso   1.000  Zn
  Zn18     1.0000 0.50000  0.75000  0.75000  Biso   1.000  Zn
  Zn19     1.0000 0.00000  0.00000  0.50000  Biso   1.000  Zn
  Zn20     1.0000 0.25000  0.25000  0.50000  Biso   1.000  Zn
  Zn21     1.0000 0.00000  0.75000  0.25000  Biso   1.000  Zn
  Zn22     1.0000 0.75000  0.50000  0.75000  Biso   1.000  Zn
  Zn23     1.0000 0.50000  0.00000  0.00000  Biso   1.000  Zn
  Zn24     1.0000 0.50000  0.50000  0.50000  Biso   1.000  Zn
  N1       1.0000 0.50210  0.12500  0.12500  Biso   1.000  N
  N2       1.0000 0.50210  0.62500  0.62500  Biso   1.000  N
  N3       1.0000 0.00210  0.12500  0.62500  Biso   1.000  N
  N4       1.0000 0.00210  0.62500  0.12500  Biso   1.000  N
  N5       1.0000 0.24790  0.12500  0.62500  Biso   1.000  N
  N6       1.0000 0.74790  0.62500  0.62500  Biso   1.000  N
  N7       1.0000 0.74790  0.12500  0.12500  Biso   1.000  N
  N8       1.0000 0.12500  0.50210  0.12500  Biso   1.000  N
  N9       1.0000 0.12500  0.00210  0.62500  Biso   1.000  N
  N10      1.0000 0.62500  0.00210  0.12500  Biso   1.000  N
  N11      1.0000 0.62500  0.24790  0.12500  Biso   1.000  N
  N12      1.0000 0.62500  0.74790  0.62500  Biso   1.000  N
  N13      1.0000 0.62500  0.50210  0.62500  Biso   1.000  N
  N14      1.0000 0.12500  0.12500  0.50210  Biso   1.000  N
  N15      1.0000 0.12500  0.62500  0.00210  Biso   1.000  N
  N16      1.0000 0.62500  0.12500  0.00210  Biso   1.000  N
  N17      1.0000 0.12500  0.62500  0.24790  Biso   1.000  N
  N18      1.0000 0.12500  0.12500  0.74790  Biso   1.000  N
  N19      1.0000 0.62500  0.62500  0.74790  Biso   1.000  N
  N20      1.0000 0.62500  0.62500  0.50210  Biso   1.000  N
  N21      1.0000 0.87500  0.75210  0.37500  Biso   1.000  N
  N22      1.0000 0.87500  0.25210  0.87500  Biso   1.000  N
  N23      1.0000 0.87500  0.49790  0.87500  Biso   1.000  N
  N24      1.0000 0.37500  0.99790  0.87500  Biso   1.000  N
  N25      1.0000 0.37500  0.49790  0.37500  Biso   1.000  N
  N26      1.0000 0.37500  0.25210  0.37500  Biso   1.000  N
  N27      1.0000 0.25210  0.37500  0.37500  Biso   1.000  N
  N28      1.0000 0.25210  0.87500  0.87500  Biso   1.000  N
  N29      1.0000 0.99790  0.87500  0.37500  Biso   1.000  N
  N30      1.0000 0.49790  0.87500  0.87500  Biso   1.000  N
  N31      1.0000 0.49790  0.37500  0.37500  Biso   1.000  N
  N32      1.0000 0.75210  0.37500  0.87500  Biso   1.000  N
  N33      1.0000 0.87500  0.37500  0.99790  Biso   1.000  N
  N34      1.0000 0.37500  0.37500  0.25210  Biso   1.000  N
  N35      1.0000 0.87500  0.87500  0.25210  Biso   1.000  N
  N36      1.0000 0.37500  0.87500  0.75210  Biso   1.000  N
  N37      1.0000 0.87500  0.87500  0.49790  Biso   1.000  N
  N38      1.0000 0.75210  0.87500  0.37500  Biso   1.000  N
  N39      1.0000 0.99790  0.37500  0.87500  Biso   1.000  N
  N40      1.0000 0.37500  0.75210  0.87500  Biso   1.000  N
  N41      1.0000 0.87500  0.99790  0.37500  Biso   1.000  N
  N42      1.0000 0.87500  0.37500  0.75210  Biso   1.000  N
  N43      1.0000 0.37500  0.87500  0.99790  Biso   1.000  N
  N44      1.0000 0.37500  0.37500  0.49790  Biso   1.000  N
  N45      1.0000 0.12500  0.24790  0.62500  Biso   1.000  N
  N46      1.0000 0.12500  0.74790  0.12500  Biso   1.000  N
  N47      1.0000 0.24790  0.62500  0.12500  Biso   1.000  N
  N48      1.0000 0.62500  0.12500  0.24790  Biso   1.000  N
  N49      1.0000 0.45840  0.16810  0.16810  Biso   1.000  N
  C1       1.0000 0.38710  0.15200  0.15200  Biso   1.000  C
  C2       1.0000 0.31170  0.17630  0.17630  Biso   1.000  C
  H1       1.0000 0.27000  0.20000  0.20000  Biso   1.000  H
  H2       1.0000 0.31700  0.16100  0.16100  Biso   1.000  H
  N50      1.0000 0.45840  0.66810  0.66810  Biso   1.000  N
  C3       1.0000 0.38710  0.65200  0.65200  Biso   1.000  C
  C4       1.0000 0.31170  0.67630  0.67630  Biso   1.000  C
  H3       1.0000 0.27000  0.70000  0.70000  Biso   1.000  H
  H4       1.0000 0.31700  0.66100  0.66100  Biso   1.000  H
  N51      1.0000 0.95840  0.16810  0.66810  Biso   1.000  N
  C5       1.0000 0.88710  0.15200  0.65200  Biso   1.000  C
  C6       1.0000 0.81170  0.17630  0.67630  Biso   1.000  C
  H5       1.0000 0.77000  0.20000  0.70000  Biso   1.000  H
  H6       1.0000 0.81700  0.16100  0.66100  Biso   1.000  H
  N52      1.0000 0.95840  0.66810  0.16810  Biso   1.000  N
  C7       1.0000 0.88710  0.65200  0.15200  Biso   1.000  C
  C8       1.0000 0.81170  0.67630  0.17630  Biso   1.000  C
  H7       1.0000 0.77000  0.70000  0.20000  Biso   1.000  H
  H8       1.0000 0.81700  0.66100  0.16100  Biso   1.000  H
  N53      1.0000 0.29160  0.08190  0.66810  Biso   1.000  N
  C9       1.0000 0.36290  0.09800  0.65200  Biso   1.000  C
  C10      1.0000 0.43830  0.07370  0.67630  Biso   1.000  C
  H9       1.0000 0.48000  0.05000  0.70000  Biso   1.000  H
  H10      1.0000 0.43300  0.08900  0.66100  Biso   1.000  H
  N54      1.0000 0.29160  0.58190  0.16810  Biso   1.000  N
  C11      1.0000 0.36290  0.59800  0.15200  Biso   1.000  C
  C12      1.0000 0.43830  0.57370  0.17630  Biso   1.000  C
  H11      1.0000 0.48000  0.55000  0.20000  Biso   1.000  H
  H12      1.0000 0.43300  0.58900  0.16100  Biso   1.000  H
  N55      1.0000 0.79160  0.66810  0.58190  Biso   1.000  N
  C13      1.0000 0.86290  0.65200  0.59800  Biso   1.000  C
  C14      1.0000 0.93830  0.67630  0.57370  Biso   1.000  C
  H13      1.0000 0.98000  0.70000  0.55000  Biso   1.000  H
  H14      1.0000 0.93300  0.66100  0.58900  Biso   1.000  H
  N56      1.0000 0.79160  0.16810  0.08190  Biso   1.000  N
  C15      1.0000 0.86290  0.15200  0.09800  Biso   1.000  C
  C16      1.0000 0.93830  0.17630  0.07370  Biso   1.000  C
  H15      1.0000 0.98000  0.20000  0.05000  Biso   1.000  H
  H16      1.0000 0.93300  0.16100  0.08900  Biso   1.000  H
  N57      1.0000 0.29160  0.16810  0.58190  Biso   1.000  N
  C17      1.0000 0.36290  0.15200  0.59800  Biso   1.000  C
  C18      1.0000 0.43830  0.17630  0.57370  Biso   1.000  C
  H17      1.0000 0.48000  0.20000  0.55000  Biso   1.000  H
  H18      1.0000 0.43300  0.16100  0.58900  Biso   1.000  H
  N58      1.0000 0.95840  0.58190  0.08190  Biso   1.000  N
  C19      1.0000 0.88710  0.59800  0.09800  Biso   1.000  C
  C20      1.0000 0.81170  0.57370  0.07370  Biso   1.000  C
  H19      1.0000 0.77000  0.55000  0.05000  Biso   1.000  H
  H20      1.0000 0.81700  0.58900  0.08900  Biso   1.000  H
  N59      1.0000 0.45840  0.58190  0.58190  Biso   1.000  N
  C21      1.0000 0.38710  0.59800  0.59800  Biso   1.000  C
  C22      1.0000 0.31170  0.57370  0.57370  Biso   1.000  C
  H21      1.0000 0.27000  0.55000  0.55000  Biso   1.000  H
  H22      1.0000 0.31700  0.58900  0.58900  Biso   1.000  H
  N60      1.0000 0.16810  0.45840  0.16810  Biso   1.000  N
  C23      1.0000 0.15200  0.38710  0.15200  Biso   1.000  C
  C24      1.0000 0.17630  0.31170  0.17630  Biso   1.000  C
  H23      1.0000 0.20000  0.27000  0.20000  Biso   1.000  H
  H24      1.0000 0.16100  0.31700  0.16100  Biso   1.000  H
  N61      1.0000 0.16810  0.95840  0.66810  Biso   1.000  N
  C25      1.0000 0.15200  0.88710  0.65200  Biso   1.000  C
  C26      1.0000 0.17630  0.81170  0.67630  Biso   1.000  C
  H25      1.0000 0.20000  0.77000  0.70000  Biso   1.000  H
  H26      1.0000 0.16100  0.81700  0.66100  Biso   1.000  H
  N62      1.0000 0.66810  0.45840  0.66810  Biso   1.000  N
  C27      1.0000 0.65200  0.38710  0.65200  Biso   1.000  C
  C28      1.0000 0.67630  0.31170  0.67630  Biso   1.000  C
  H27      1.0000 0.70000  0.27000  0.70000  Biso   1.000  H
  H28      1.0000 0.66100  0.31700  0.66100  Biso   1.000  H
  N63      1.0000 0.66810  0.95840  0.16810  Biso   1.000  N
  C29      1.0000 0.65200  0.88710  0.15200  Biso   1.000  C
  C30      1.0000 0.67630  0.81170  0.17630  Biso   1.000  C
  H29      1.0000 0.70000  0.77000  0.20000  Biso   1.000  H
  H30      1.0000 0.66100  0.81700  0.16100  Biso   1.000  H
  N64      1.0000 0.66810  0.29160  0.08190  Biso   1.000  N
  C31      1.0000 0.65200  0.36290  0.09800  Biso   1.000  C
  C32      1.0000 0.67630  0.43830  0.07370  Biso   1.000  C
  H31      1.0000 0.70000  0.48000  0.05000  Biso   1.000  H
  H32      1.0000 0.66100  0.43300  0.08900  Biso   1.000  H
  N65      1.0000 0.16810  0.29160  0.58190  Biso   1.000  N
  C33      1.0000 0.15200  0.36290  0.59800  Biso   1.000  C
  C34      1.0000 0.17630  0.43830  0.57370  Biso   1.000  C
  H33      1.0000 0.20000  0.48000  0.55000  Biso   1.000  H
  H34      1.0000 0.16100  0.43300  0.58900  Biso   1.000  H
  N66      1.0000 0.58190  0.79160  0.66810  Biso   1.000  N
  C35      1.0000 0.59800  0.86290  0.65200  Biso   1.000  C
  C36      1.0000 0.57370  0.93830  0.67630  Biso   1.000  C
  H35      1.0000 0.55000  0.98000  0.70000  Biso   1.000  H
  H36      1.0000 0.58900  0.93300  0.66100  Biso   1.000  H
  N67      1.0000 0.58190  0.29160  0.16810  Biso   1.000  N
  C37      1.0000 0.59800  0.36290  0.15200  Biso   1.000  C
  C38      1.0000 0.57370  0.43830  0.17630  Biso   1.000  C
  H37      1.0000 0.55000  0.48000  0.20000  Biso   1.000  H
  H38      1.0000 0.58900  0.43300  0.16100  Biso   1.000  H
  N68      1.0000 0.08190  0.95840  0.58190  Biso   1.000  N
  C39      1.0000 0.09800  0.88710  0.59800  Biso   1.000  C
  C40      1.0000 0.07370  0.81170  0.57370  Biso   1.000  C
  H39      1.0000 0.05000  0.77000  0.55000  Biso   1.000  H
  H40      1.0000 0.08900  0.81700  0.58900  Biso   1.000  H
  N69      1.0000 0.08190  0.45840  0.08190  Biso   1.000  N
  C41      1.0000 0.09800  0.38710  0.09800  Biso   1.000  C
  C42      1.0000 0.07370  0.31170  0.07370  Biso   1.000  C
  H41      1.0000 0.05000  0.27000  0.05000  Biso   1.000  H
  H42      1.0000 0.08900  0.31700  0.08900  Biso   1.000  H
  N70      1.0000 0.58190  0.45840  0.58190  Biso   1.000  N
  C43      1.0000 0.59800  0.38710  0.59800  Biso   1.000  C
  C44      1.0000 0.57370  0.31170  0.57370  Biso   1.000  C
  H43      1.0000 0.55000  0.27000  0.55000  Biso   1.000  H
  H44      1.0000 0.58900  0.31700  0.58900  Biso   1.000  H
  N71      1.0000 0.16810  0.16810  0.45840  Biso   1.000  N
  C45      1.0000 0.15200  0.15200  0.38710  Biso   1.000  C
  C46      1.0000 0.17630  0.17630  0.31170  Biso   1.000  C
  H45      1.0000 0.20000  0.20000  0.27000  Biso   1.000  H
  H46      1.0000 0.16100  0.16100  0.31700  Biso   1.000  H
  N72      1.0000 0.16810  0.66810  0.95840  Biso   1.000  N
  C47      1.0000 0.15200  0.65200  0.88710  Biso   1.000  C
  C48      1.0000 0.17630  0.67630  0.81170  Biso   1.000  C
  H47      1.0000 0.20000  0.70000  0.77000  Biso   1.000  H
  H48      1.0000 0.16100  0.66100  0.81700  Biso   1.000  H
  N73      1.0000 0.66810  0.16810  0.95840  Biso   1.000  N
  C49      1.0000 0.65200  0.15200  0.88710  Biso   1.000  C
  C50      1.0000 0.67630  0.17630  0.81170  Biso   1.000  C
  H49      1.0000 0.70000  0.20000  0.77000  Biso   1.000  H
  H50      1.0000 0.66100  0.16100  0.81700  Biso   1.000  H
  N74      1.0000 0.66810  0.66810  0.45840  Biso   1.000  N
  C51      1.0000 0.65200  0.65200  0.38710  Biso   1.000  C
  C52      1.0000 0.67630  0.67630  0.31170  Biso   1.000  C
  H51      1.0000 0.70000  0.70000  0.27000  Biso   1.000  H
  H52      1.0000 0.66100  0.66100  0.31700  Biso   1.000  H
  N75      1.0000 0.08190  0.66810  0.29160  Biso   1.000  N
  C53      1.0000 0.09800  0.65200  0.36290  Biso   1.000  C
  C54      1.0000 0.07370  0.67630  0.43830  Biso   1.000  C
  H53      1.0000 0.05000  0.70000  0.48000  Biso   1.000  H
  H54      1.0000 0.08900  0.66100  0.43300  Biso   1.000  H
  N76      1.0000 0.08190  0.16810  0.79160  Biso   1.000  N
  C55      1.0000 0.09800  0.15200  0.86290  Biso   1.000  C
  C56      1.0000 0.07370  0.17630  0.93830  Biso   1.000  C
  H55      1.0000 0.05000  0.20000  0.98000  Biso   1.000  H
  H56      1.0000 0.08900  0.16100  0.93300  Biso   1.000  H
  N77      1.0000 0.58190  0.16810  0.29160  Biso   1.000  N
  C57      1.0000 0.59800  0.15200  0.36290  Biso   1.000  C
  C58      1.0000 0.57370  0.17630  0.43830  Biso   1.000  C
  H57      1.0000 0.55000  0.20000  0.48000  Biso   1.000  H
  H58      1.0000 0.58900  0.16100  0.43300  Biso   1.000  H
  N78      1.0000 0.66810  0.58190  0.79160  Biso   1.000  N
  C59      1.0000 0.65200  0.59800  0.86290  Biso   1.000  C
  C60      1.0000 0.67630  0.57370  0.93830  Biso   1.000  C
  H59      1.0000 0.70000  0.55000  0.98000  Biso   1.000  H
  H60      1.0000 0.66100  0.58900  0.93300  Biso   1.000  H
  N79      1.0000 0.16810  0.58190  0.29160  Biso   1.000  N
  C61      1.0000 0.15200  0.59800  0.36290  Biso   1.000  C
  C62      1.0000 0.17630  0.57370  0.43830  Biso   1.000  C
  H61      1.0000 0.20000  0.55000  0.48000  Biso   1.000  H
  H62      1.0000 0.16100  0.58900  0.43300  Biso   1.000  H
  N80      1.0000 0.58190  0.08190  0.95840  Biso   1.000  N
  C63      1.0000 0.59800  0.09800  0.88710  Biso   1.000  C
  C64      1.0000 0.57370  0.07370  0.81170  Biso   1.000  C
  H63      1.0000 0.55000  0.05000  0.77000  Biso   1.000  H
  H64      1.0000 0.58900  0.08900  0.81700  Biso   1.000  H
  N81      1.0000 0.58190  0.58190  0.45840  Biso   1.000  N
  C65      1.0000 0.59800  0.59800  0.38710  Biso   1.000  C
  C66      1.0000 0.57370  0.57370  0.31170  Biso   1.000  C
  H65      1.0000 0.55000  0.55000  0.27000  Biso   1.000  H
  H66      1.0000 0.58900  0.58900  0.31700  Biso   1.000  H
  N82      1.0000 0.91810  0.70840  0.33190  Biso   1.000  N
  C67      1.0000 0.90200  0.63710  0.34800  Biso   1.000  C
  C68      1.0000 0.92630  0.56170  0.32370  Biso   1.000  C
  H67      1.0000 0.95000  0.52000  0.30000  Biso   1.000  H
  H68      1.0000 0.91100  0.56700  0.33900  Biso   1.000  H
  N83      1.0000 0.91810  0.20840  0.83190  Biso   1.000  N
  C69      1.0000 0.90200  0.13710  0.84800  Biso   1.000  C
  C70      1.0000 0.92630  0.06170  0.82370  Biso   1.000  C
  H69      1.0000 0.95000  0.02000  0.80000  Biso   1.000  H
  H70      1.0000 0.91100  0.06700  0.83900  Biso   1.000  H
  N84      1.0000 0.83190  0.54160  0.83190  Biso   1.000  N
  C71      1.0000 0.84800  0.61290  0.84800  Biso   1.000  C
  C72      1.0000 0.82370  0.68830  0.82370  Biso   1.000  C
  H71      1.0000 0.80000  0.73000  0.80000  Biso   1.000  H
  H72      1.0000 0.83900  0.68300  0.83900  Biso   1.000  H
  N85      1.0000 0.83190  0.04160  0.33190  Biso   1.000  N
  C73      1.0000 0.84800  0.11290  0.34800  Biso   1.000  C
  C74      1.0000 0.82370  0.18830  0.32370  Biso   1.000  C
  H73      1.0000 0.80000  0.23000  0.30000  Biso   1.000  H
  H74      1.0000 0.83900  0.18300  0.33900  Biso   1.000  H
  N86      1.0000 0.33190  0.54160  0.33190  Biso   1.000  N
  C75      1.0000 0.34800  0.61290  0.34800  Biso   1.000  C
  C76      1.0000 0.32370  0.68830  0.32370  Biso   1.000  C
  H75      1.0000 0.30000  0.73000  0.30000  Biso   1.000  H
  H76      1.0000 0.33900  0.68300  0.33900  Biso   1.000  H
  N87      1.0000 0.33190  0.04160  0.83190  Biso   1.000  N
  C77      1.0000 0.34800  0.11290  0.84800  Biso   1.000  C
  C78      1.0000 0.32370  0.18830  0.82370  Biso   1.000  C
  H77      1.0000 0.30000  0.23000  0.80000  Biso   1.000  H
  H78      1.0000 0.33900  0.18300  0.83900  Biso   1.000  H
  N88      1.0000 0.41810  0.04160  0.91810  Biso   1.000  N
  C79      1.0000 0.40200  0.11290  0.90200  Biso   1.000  C
  C80      1.0000 0.42630  0.18830  0.92630  Biso   1.000  C
  H79      1.0000 0.45000  0.23000  0.95000  Biso   1.000  H
  H80      1.0000 0.41100  0.18300  0.91100  Biso   1.000  H
  N89      1.0000 0.41810  0.54160  0.41810  Biso   1.000  N
  C81      1.0000 0.40200  0.61290  0.40200  Biso   1.000  C
  C82      1.0000 0.42630  0.68830  0.42630  Biso   1.000  C
  H81      1.0000 0.45000  0.73000  0.45000  Biso   1.000  H
  H82      1.0000 0.41100  0.68300  0.41100  Biso   1.000  H
  N90      1.0000 0.91810  0.54160  0.91810  Biso   1.000  N
  C83      1.0000 0.90200  0.61290  0.90200  Biso   1.000  C
  C84      1.0000 0.92630  0.68830  0.92630  Biso   1.000  C
  H83      1.0000 0.95000  0.73000  0.95000  Biso   1.000  H
  H84      1.0000 0.91100  0.68300  0.91100  Biso   1.000  H
  N91      1.0000 0.33190  0.20840  0.41810  Biso   1.000  N
  C85      1.0000 0.34800  0.13710  0.40200  Biso   1.000  C
  C86      1.0000 0.32370  0.06170  0.42630  Biso   1.000  C
  H85      1.0000 0.30000  0.02000  0.45000  Biso   1.000  H
  H86      1.0000 0.33900  0.06700  0.41100  Biso   1.000  H
  N92      1.0000 0.83190  0.20840  0.91810  Biso   1.000  N
  C87      1.0000 0.84800  0.13710  0.90200  Biso   1.000  C
  C88      1.0000 0.82370  0.06170  0.92630  Biso   1.000  C
  H87      1.0000 0.80000  0.02000  0.95000  Biso   1.000  H
  H88      1.0000 0.83900  0.06700  0.91100  Biso   1.000  H
  N93      1.0000 0.20840  0.41810  0.33190  Biso   1.000  N
  C89      1.0000 0.13710  0.40200  0.34800  Biso   1.000  C
  C90      1.0000 0.06170  0.42630  0.32370  Biso   1.000  C
  H89      1.0000 0.02000  0.45000  0.30000  Biso   1.000  H
  H90      1.0000 0.06700  0.41100  0.33900  Biso   1.000  H
  N94      1.0000 0.20840  0.91810  0.83190  Biso   1.000  N
  C91      1.0000 0.13710  0.90200  0.84800  Biso   1.000  C
  C92      1.0000 0.06170  0.92630  0.82370  Biso   1.000  C
  H91      1.0000 0.02000  0.95000  0.80000  Biso   1.000  H
  H92      1.0000 0.06700  0.91100  0.83900  Biso   1.000  H
  N95      1.0000 0.04160  0.91810  0.41810  Biso   1.000  N
  C93      1.0000 0.11290  0.90200  0.40200  Biso   1.000  C
  C94      1.0000 0.18830  0.92630  0.42630  Biso   1.000  C
  H93      1.0000 0.23000  0.95000  0.45000  Biso   1.000  H
  H94      1.0000 0.18300  0.91100  0.41100  Biso   1.000  H
  N96      1.0000 0.54160  0.91810  0.91810  Biso   1.000  N
  C95      1.0000 0.61290  0.90200  0.90200  Biso   1.000  C
  C96      1.0000 0.68830  0.92630  0.92630  Biso   1.000  C
  H95      1.0000 0.73000  0.95000  0.95000  Biso   1.000  H
  H96      1.0000 0.68300  0.91100  0.91100  Biso   1.000  H
  N97      1.0000 0.54160  0.83190  0.83190  Biso   1.000  N
  C97      1.0000 0.61290  0.84800  0.84800  Biso   1.000  C
  C98      1.0000 0.68830  0.82370  0.82370  Biso   1.000  C
  H97      1.0000 0.73000  0.80000  0.80000  Biso   1.000  H
  H98      1.0000 0.68300  0.83900  0.83900  Biso   1.000  H
  N98      1.0000 0.54160  0.33190  0.33190  Biso   1.000  N
  C99      1.0000 0.61290  0.34800  0.34800  Biso   1.000  C
  C100     1.0000 0.68830  0.32370  0.32370  Biso   1.000  C
  H99      1.0000 0.73000  0.30000  0.30000  Biso   1.000  H
  H100     1.0000 0.68300  0.33900  0.33900  Biso   1.000  H
  N99      1.0000 0.04160  0.83190  0.33190  Biso   1.000  N
  C101     1.0000 0.11290  0.84800  0.34800  Biso   1.000  C
  C102     1.0000 0.18830  0.82370  0.32370  Biso   1.000  C
  H101     1.0000 0.23000  0.80000  0.30000  Biso   1.000  H
  H102     1.0000 0.18300  0.83900  0.33900  Biso   1.000  H
  N100     1.0000 0.04160  0.33190  0.83190  Biso   1.000  N
  C103     1.0000 0.11290  0.34800  0.84800  Biso   1.000  C
  C104     1.0000 0.18830  0.32370  0.82370  Biso   1.000  C
  H103     1.0000 0.23000  0.30000  0.80000  Biso   1.000  H
  H104     1.0000 0.18300  0.33900  0.83900  Biso   1.000  H
  N101     1.0000 0.70840  0.33190  0.91810  Biso   1.000  N
  C105     1.0000 0.63710  0.34800  0.90200  Biso   1.000  C
  C106     1.0000 0.56170  0.32370  0.92630  Biso   1.000  C
  H105     1.0000 0.52000  0.30000  0.95000  Biso   1.000  H
  H106     1.0000 0.56700  0.33900  0.91100  Biso   1.000  H
  N102     1.0000 0.70840  0.83190  0.41810  Biso   1.000  N
  C107     1.0000 0.63710  0.84800  0.40200  Biso   1.000  C
  C108     1.0000 0.56170  0.82370  0.42630  Biso   1.000  C
  H107     1.0000 0.52000  0.80000  0.45000  Biso   1.000  H
  H108     1.0000 0.56700  0.83900  0.41100  Biso   1.000  H
  N103     1.0000 0.20840  0.83190  0.91810  Biso   1.000  N
  C109     1.0000 0.13710  0.84800  0.90200  Biso   1.000  C
  C110     1.0000 0.06170  0.82370  0.92630  Biso   1.000  C
  H109     1.0000 0.02000  0.80000  0.95000  Biso   1.000  H
  H110     1.0000 0.06700  0.83900  0.91100  Biso   1.000  H
  N104     1.0000 0.91810  0.41810  0.04160  Biso   1.000  N
  C111     1.0000 0.90200  0.40200  0.11290  Biso   1.000  C
  C112     1.0000 0.92630  0.42630  0.18830  Biso   1.000  C
  H111     1.0000 0.95000  0.45000  0.23000  Biso   1.000  H
  H112     1.0000 0.91100  0.41100  0.18300  Biso   1.000  H
  N105     1.0000 0.91810  0.91810  0.54160  Biso   1.000  N
  C113     1.0000 0.90200  0.90200  0.61290  Biso   1.000  C
  C114     1.0000 0.92630  0.92630  0.68830  Biso   1.000  C
  H113     1.0000 0.95000  0.95000  0.73000  Biso   1.000  H
  H114     1.0000 0.91100  0.91100  0.68300  Biso   1.000  H
  N106     1.0000 0.41810  0.33190  0.20840  Biso   1.000  N
  C115     1.0000 0.40200  0.34800  0.13710  Biso   1.000  C
  C116     1.0000 0.42630  0.32370  0.06170  Biso   1.000  C
  H115     1.0000 0.45000  0.30000  0.02000  Biso   1.000  H
  H116     1.0000 0.41100  0.33900  0.06700  Biso   1.000  H
  N107     1.0000 0.41810  0.83190  0.70840  Biso   1.000  N
  C117     1.0000 0.40200  0.84800  0.63710  Biso   1.000  C
  C118     1.0000 0.42630  0.82370  0.56170  Biso   1.000  C
  H117     1.0000 0.45000  0.80000  0.52000  Biso   1.000  H
  H118     1.0000 0.41100  0.83900  0.56700  Biso   1.000  H
  N108     1.0000 0.91810  0.83190  0.20840  Biso   1.000  N
  C119     1.0000 0.90200  0.84800  0.13710  Biso   1.000  C
  C120     1.0000 0.92630  0.82370  0.06170  Biso   1.000  C
  H119     1.0000 0.95000  0.80000  0.02000  Biso   1.000  H
  H120     1.0000 0.91100  0.83900  0.06700  Biso   1.000  H
  N109     1.0000 0.33190  0.91810  0.70840  Biso   1.000  N
  C121     1.0000 0.34800  0.90200  0.63710  Biso   1.000  C
  C122     1.0000 0.32370  0.92630  0.56170  Biso   1.000  C
  H121     1.0000 0.30000  0.95000  0.52000  Biso   1.000  H
  H122     1.0000 0.33900  0.91100  0.56700  Biso   1.000  H
  N110     1.0000 0.83190  0.91810  0.20840  Biso   1.000  N
  C123     1.0000 0.84800  0.90200  0.13710  Biso   1.000  C
  C124     1.0000 0.82370  0.92630  0.06170  Biso   1.000  C
  H123     1.0000 0.80000  0.95000  0.02000  Biso   1.000  H
  H124     1.0000 0.83900  0.91100  0.06700  Biso   1.000  H
  N111     1.0000 0.83190  0.83190  0.54160  Biso   1.000  N
  C125     1.0000 0.84800  0.84800  0.61290  Biso   1.000  C
  C126     1.0000 0.82370  0.82370  0.68830  Biso   1.000  C
  H125     1.0000 0.80000  0.80000  0.73000  Biso   1.000  H
  H126     1.0000 0.83900  0.83900  0.68300  Biso   1.000  H
  N112     1.0000 0.83190  0.33190  0.04160  Biso   1.000  N
  C127     1.0000 0.84800  0.34800  0.11290  Biso   1.000  C
  C128     1.0000 0.82370  0.32370  0.18830  Biso   1.000  C
  H127     1.0000 0.80000  0.30000  0.23000  Biso   1.000  H
  H128     1.0000 0.83900  0.33900  0.18300  Biso   1.000  H
  N113     1.0000 0.33190  0.83190  0.04160  Biso   1.000  N
  C129     1.0000 0.34800  0.84800  0.11290  Biso   1.000  C
  C130     1.0000 0.32370  0.82370  0.18830  Biso   1.000  C
  H129     1.0000 0.30000  0.80000  0.23000  Biso   1.000  H
  H130     1.0000 0.33900  0.83900  0.18300  Biso   1.000  H
  N114     1.0000 0.33190  0.33190  0.54160  Biso   1.000  N
  C131     1.0000 0.34800  0.34800  0.61290  Biso   1.000  C
  C132     1.0000 0.32370  0.32370  0.68830  Biso   1.000  C
  H131     1.0000 0.30000  0.30000  0.73000  Biso   1.000  H
  H132     1.0000 0.33900  0.33900  0.68300  Biso   1.000  H
  N115     1.0000 0.70840  0.91810  0.33190  Biso   1.000  N
  C133     1.0000 0.63710  0.90200  0.34800  Biso   1.000  C
  C134     1.0000 0.56170  0.92630  0.32370  Biso   1.000  C
  H133     1.0000 0.52000  0.95000  0.30000  Biso   1.000  H
  H134     1.0000 0.56700  0.91100  0.33900  Biso   1.000  H
  N116     1.0000 0.70840  0.41810  0.83190  Biso   1.000  N
  C135     1.0000 0.63710  0.40200  0.84800  Biso   1.000  C
  C136     1.0000 0.56170  0.42630  0.82370  Biso   1.000  C
  H135     1.0000 0.52000  0.45000  0.80000  Biso   1.000  H
  H136     1.0000 0.56700  0.41100  0.83900  Biso   1.000  H
  N117     1.0000 0.20840  0.33190  0.41810  Biso   1.000  N
  C137     1.0000 0.13710  0.34800  0.40200  Biso   1.000  C
  C138     1.0000 0.06170  0.32370  0.42630  Biso   1.000  C
  H137     1.0000 0.02000  0.30000  0.45000  Biso   1.000  H
  H138     1.0000 0.06700  0.33900  0.41100  Biso   1.000  H
  N118     1.0000 0.04160  0.41810  0.91810  Biso   1.000  N
  C139     1.0000 0.11290  0.40200  0.90200  Biso   1.000  C
  C140     1.0000 0.18830  0.42630  0.92630  Biso   1.000  C
  H139     1.0000 0.23000  0.45000  0.95000  Biso   1.000  H
  H140     1.0000 0.18300  0.41100  0.91100  Biso   1.000  H
  N119     1.0000 0.54160  0.41810  0.41810  Biso   1.000  N
  C141     1.0000 0.61290  0.40200  0.40200  Biso   1.000  C
  C142     1.0000 0.68830  0.42630  0.42630  Biso   1.000  C
  H141     1.0000 0.73000  0.45000  0.45000  Biso   1.000  H
  H142     1.0000 0.68300  0.41100  0.41100  Biso   1.000  H
  N120     1.0000 0.33190  0.70840  0.91810  Biso   1.000  N
  C143     1.0000 0.34800  0.63710  0.90200  Biso   1.000  C
  C144     1.0000 0.32370  0.56170  0.92630  Biso   1.000  C
  H143     1.0000 0.30000  0.52000  0.95000  Biso   1.000  H
  H144     1.0000 0.33900  0.56700  0.91100  Biso   1.000  H
  N121     1.0000 0.83190  0.70840  0.41810  Biso   1.000  N
  C145     1.0000 0.84800  0.63710  0.40200  Biso   1.000  C
  C146     1.0000 0.82370  0.56170  0.42630  Biso   1.000  C
  H145     1.0000 0.80000  0.52000  0.45000  Biso   1.000  H
  H146     1.0000 0.83900  0.56700  0.41100  Biso   1.000  H
  N122     1.0000 0.41810  0.20840  0.33190  Biso   1.000  N
  C147     1.0000 0.40200  0.13710  0.34800  Biso   1.000  C
  C148     1.0000 0.42630  0.06170  0.32370  Biso   1.000  C
  H147     1.0000 0.45000  0.02000  0.30000  Biso   1.000  H
  H148     1.0000 0.41100  0.06700  0.33900  Biso   1.000  H
  N123     1.0000 0.41810  0.70840  0.83190  Biso   1.000  N
  C149     1.0000 0.40200  0.63710  0.84800  Biso   1.000  C
  C150     1.0000 0.42630  0.56170  0.82370  Biso   1.000  C
  H149     1.0000 0.45000  0.52000  0.80000  Biso   1.000  H
  H150     1.0000 0.41100  0.56700  0.83900  Biso   1.000  H
  N124     1.0000 0.91810  0.04160  0.41810  Biso   1.000  N
  C151     1.0000 0.90200  0.11290  0.40200  Biso   1.000  C
  C152     1.0000 0.92630  0.18830  0.42630  Biso   1.000  C
  H151     1.0000 0.95000  0.23000  0.45000  Biso   1.000  H
  H152     1.0000 0.91100  0.18300  0.41100  Biso   1.000  H
  N125     1.0000 0.91810  0.33190  0.70840  Biso   1.000  N
  C153     1.0000 0.90200  0.34800  0.63710  Biso   1.000  C
  C154     1.0000 0.92630  0.32370  0.56170  Biso   1.000  C
  H153     1.0000 0.95000  0.30000  0.52000  Biso   1.000  H
  H154     1.0000 0.91100  0.33900  0.56700  Biso   1.000  H
  N126     1.0000 0.33190  0.41810  0.20840  Biso   1.000  N
  C155     1.0000 0.34800  0.40200  0.13710  Biso   1.000  C
  C156     1.0000 0.32370  0.42630  0.06170  Biso   1.000  C
  H155     1.0000 0.30000  0.45000  0.02000  Biso   1.000  H
  H156     1.0000 0.33900  0.41100  0.06700  Biso   1.000  H
  N127     1.0000 0.83190  0.41810  0.70840  Biso   1.000  N
  C157     1.0000 0.84800  0.40200  0.63710  Biso   1.000  C
  C158     1.0000 0.82370  0.42630  0.56170  Biso   1.000  C
  H157     1.0000 0.80000  0.45000  0.52000  Biso   1.000  H
  H158     1.0000 0.83900  0.41100  0.56700  Biso   1.000  H
  N128     1.0000 0.41810  0.91810  0.04160  Biso   1.000  N
  C159     1.0000 0.40200  0.90200  0.11290  Biso   1.000  C
  C160     1.0000 0.42630  0.92630  0.18830  Biso   1.000  C
  H159     1.0000 0.45000  0.95000  0.23000  Biso   1.000  H
  H160     1.0000 0.41100  0.91100  0.18300  Biso   1.000  H
  N129     1.0000 0.41810  0.41810  0.54160  Biso   1.000  N
  C161     1.0000 0.40200  0.40200  0.61290  Biso   1.000  C
  C162     1.0000 0.42630  0.42630  0.68830  Biso   1.000  C
  H161     1.0000 0.45000  0.45000  0.73000  Biso   1.000  H
  H162     1.0000 0.41100  0.41100  0.68300  Biso   1.000  H
  N130     1.0000 0.08190  0.29160  0.66810  Biso   1.000  N
  C163     1.0000 0.09800  0.36290  0.65200  Biso   1.000  C
  C164     1.0000 0.07370  0.43830  0.67630  Biso   1.000  C
  H163     1.0000 0.05000  0.48000  0.70000  Biso   1.000  H
  H164     1.0000 0.08900  0.43300  0.66100  Biso   1.000  H
  N131     1.0000 0.08190  0.79160  0.16810  Biso   1.000  N
  C165     1.0000 0.09800  0.86290  0.15200  Biso   1.000  C
  C166     1.0000 0.07370  0.93830  0.17630  Biso   1.000  C
  H165     1.0000 0.05000  0.98000  0.20000  Biso   1.000  H
  H166     1.0000 0.08900  0.93300  0.16100  Biso   1.000  H
  N132     1.0000 0.58190  0.95840  0.08190  Biso   1.000  N
  C167     1.0000 0.59800  0.88710  0.09800  Biso   1.000  C
  C168     1.0000 0.57370  0.81170  0.07370  Biso   1.000  C
  H167     1.0000 0.55000  0.77000  0.05000  Biso   1.000  H
  H168     1.0000 0.58900  0.81700  0.08900  Biso   1.000  H
  N133     1.0000 0.66810  0.79160  0.58190  Biso   1.000  N
  C169     1.0000 0.65200  0.86290  0.59800  Biso   1.000  C
  C170     1.0000 0.67630  0.93830  0.57370  Biso   1.000  C
  H169     1.0000 0.70000  0.98000  0.55000  Biso   1.000  H
  H170     1.0000 0.66100  0.93300  0.58900  Biso   1.000  H
  N134     1.0000 0.16810  0.79160  0.08190  Biso   1.000  N
  C171     1.0000 0.15200  0.86290  0.09800  Biso   1.000  C
  C172     1.0000 0.17630  0.93830  0.07370  Biso   1.000  C
  H171     1.0000 0.20000  0.98000  0.05000  Biso   1.000  H
  H172     1.0000 0.16100  0.93300  0.08900  Biso   1.000  H
  N135     1.0000 0.79160  0.58190  0.66810  Biso   1.000  N
  C173     1.0000 0.86290  0.59800  0.65200  Biso   1.000  C
  C174     1.0000 0.93830  0.57370  0.67630  Biso   1.000  C
  H173     1.0000 0.98000  0.55000  0.70000  Biso   1.000  H
  H174     1.0000 0.93300  0.58900  0.66100  Biso   1.000  H
  N136     1.0000 0.79160  0.08190  0.16810  Biso   1.000  N
  C175     1.0000 0.86290  0.09800  0.15200  Biso   1.000  C
  C176     1.0000 0.93830  0.07370  0.17630  Biso   1.000  C
  H175     1.0000 0.98000  0.05000  0.20000  Biso   1.000  H
  H176     1.0000 0.93300  0.08900  0.16100  Biso   1.000  H
  N137     1.0000 0.95840  0.08190  0.58190  Biso   1.000  N
  C177     1.0000 0.88710  0.09800  0.59800  Biso   1.000  C
  C178     1.0000 0.81170  0.07370  0.57370  Biso   1.000  C
  H177     1.0000 0.77000  0.05000  0.55000  Biso   1.000  H
  H178     1.0000 0.81700  0.08900  0.58900  Biso   1.000  H
  N138     1.0000 0.45840  0.08190  0.08190  Biso   1.000  N
  C179     1.0000 0.38710  0.09800  0.09800  Biso   1.000  C
  C180     1.0000 0.31170  0.07370  0.07370  Biso   1.000  C
  H179     1.0000 0.27000  0.05000  0.05000  Biso   1.000  H
  H180     1.0000 0.31700  0.08900  0.08900  Biso   1.000  H
  N139     1.0000 0.29160  0.66810  0.08190  Biso   1.000  N
  C181     1.0000 0.36290  0.65200  0.09800  Biso   1.000  C
  C182     1.0000 0.43830  0.67630  0.07370  Biso   1.000  C
  H181     1.0000 0.48000  0.70000  0.05000  Biso   1.000  H
  H182     1.0000 0.43300  0.66100  0.08900  Biso   1.000  H
  N140     1.0000 0.08190  0.58190  0.95840  Biso   1.000  N
  C183     1.0000 0.09800  0.59800  0.88710  Biso   1.000  C
  C184     1.0000 0.07370  0.57370  0.81170  Biso   1.000  C
  H183     1.0000 0.05000  0.55000  0.77000  Biso   1.000  H
  H184     1.0000 0.08900  0.58900  0.81700  Biso   1.000  H
  N141     1.0000 0.08190  0.08190  0.45840  Biso   1.000  N
  C185     1.0000 0.09800  0.09800  0.38710  Biso   1.000  C
  C186     1.0000 0.07370  0.07370  0.31170  Biso   1.000  C
  H185     1.0000 0.05000  0.05000  0.27000  Biso   1.000  H
  H186     1.0000 0.08900  0.08900  0.31700  Biso   1.000  H
  N142     1.0000 0.58190  0.66810  0.79160  Biso   1.000  N
  C187     1.0000 0.59800  0.65200  0.86290  Biso   1.000  C
  C188     1.0000 0.57370  0.67630  0.93830  Biso   1.000  C
  H187     1.0000 0.55000  0.70000  0.98000  Biso   1.000  H
  H188     1.0000 0.58900  0.66100  0.93300  Biso   1.000  H
  N143     1.0000 0.66810  0.08190  0.29160  Biso   1.000  N
  C189     1.0000 0.65200  0.09800  0.36290  Biso   1.000  C
  C190     1.0000 0.67630  0.07370  0.43830  Biso   1.000  C
  H189     1.0000 0.70000  0.05000  0.48000  Biso   1.000  H
  H190     1.0000 0.66100  0.08900  0.43300  Biso   1.000  H
  N144     1.0000 0.16810  0.08190  0.79160  Biso   1.000  N
  C191     1.0000 0.15200  0.09800  0.86290  Biso   1.000  C
  C192     1.0000 0.17630  0.07370  0.93830  Biso   1.000  C
  H191     1.0000 0.20000  0.05000  0.98000  Biso   1.000  H
  H192     1.0000 0.16100  0.08900  0.93300  Biso   1.000  H
