data_image0
_cell_length_a       22.168
_cell_length_b       22.168
_cell_length_c       37.019
_cell_angle_alpha    90
_cell_angle_beta     90
_cell_angle_gamma    120

_symmetry_space_group_name_H-M    "P 1"
_symmetry_int_tables_number       1

loop_
  _symmetry_equiv_pos_as_xyz
  'x, y, z'

loop_
  _atom_site_label
  _atom_site_occupancy
  _atom_site_fract_x
  _atom_site_fract_y
  _atom_site_fract_z
  _atom_site_thermal_displace_type
  _atom_site_B_iso_or_equiv
  _atom_site_type_symbol
  Zn1      1.0000 0.08007  0.61990  0.95389  Biso   1.000  Zn
  Zn2      1.0000 0.99375  0.55563  0.02396  Biso   1.000  Zn
  O1       1.0000 0.65937  0.59780  0.96111  Biso   1.000  O
  O2       1.0000 0.70200  0.57292  0.01017  Biso   1.000  O
  O3       1.0000 0.92785  0.57979  0.00035  Biso   1.000  O
  O4       1.0000 0.99266  0.62606  0.95065  Biso   1.000  O
  O5       1.0000 0.92102  0.64383  0.84529  Biso   1.000  O
  O6       1.0000 0.06575  0.55070  0.99253  Biso   1.000  O
  H1       1.0000 0.10520  0.55960  0.00640  Biso   1.000  H
  N1       1.0000 0.87857  0.68629  0.74224  Biso   1.000  N
  N2       1.0000 0.83938  0.66904  0.86526  Biso   1.000  N
  N3       1.0000 0.83854  0.71509  0.75198  Biso   1.000  N
  C1       1.0000 0.70541  0.59298  0.97787  Biso   1.000  C
  C2       1.0000 0.77111  0.61099  0.95729  Biso   1.000  C
  C3       1.0000 0.77853  0.63352  0.92196  Biso   1.000  C
  H2       1.0000 0.74370  0.63940  0.91140  Biso   1.000  H
  C4       1.0000 0.93969  0.60726  0.96934  Biso   1.000  C
  C5       1.0000 0.88309  0.61827  0.95372  Biso   1.000  C
  C6       1.0000 0.82372  0.60289  0.97296  Biso   1.000  C
  H3       1.0000 0.81880  0.58700  0.99660  Biso   1.000  H
  C7       1.0000 0.88988  0.64196  0.91788  Biso   1.000  C
  H4       1.0000 0.93030  0.65380  0.90500  Biso   1.000  H
  C8       1.0000 0.83703  0.64762  0.90180  Biso   1.000  C
  C9       1.0000 0.87992  0.66363  0.83867  Biso   1.000  C
  C10      1.0000 0.86937  0.68133  0.80226  Biso   1.000  C
  C11      1.0000 0.83336  0.71203  0.78802  Biso   1.000  C
  H5       1.0000 0.80900  0.72820  0.80160  Biso   1.000  H
  C12      1.0000 0.89748  0.66706  0.77190  Biso   1.000  C
  H6       1.0000 0.92550  0.64690  0.77250  Biso   1.000  H
  Zn3      1.0000 0.74674  0.95323  0.28722  Biso   1.000  Zn
  Zn4      1.0000 0.66041  0.88896  0.35730  Biso   1.000  Zn
  O7       1.0000 0.32604  0.93113  0.29444  Biso   1.000  O
  O8       1.0000 0.36867  0.90625  0.34350  Biso   1.000  O
  O9       1.0000 0.59452  0.91312  0.33368  Biso   1.000  O
  O10      1.0000 0.65933  0.95939  0.28398  Biso   1.000  O
  O11      1.0000 0.58769  0.97716  0.17862  Biso   1.000  O
  O12      1.0000 0.73242  0.88403  0.32586  Biso   1.000  O
  H7       1.0000 0.77187  0.89293  0.33973  Biso   1.000  H
  N4       1.0000 0.54524  0.01962  0.07557  Biso   1.000  N
  N5       1.0000 0.50605  0.00237  0.19859  Biso   1.000  N
  N6       1.0000 0.50521  0.04842  0.08531  Biso   1.000  N
  C13      1.0000 0.37208  0.92631  0.31120  Biso   1.000  C
  C14      1.0000 0.43778  0.94432  0.29062  Biso   1.000  C
  C15      1.0000 0.44520  0.96685  0.25529  Biso   1.000  C
  H8       1.0000 0.41037  0.97273  0.24473  Biso   1.000  H
  C16      1.0000 0.60636  0.94059  0.30267  Biso   1.000  C
  C17      1.0000 0.54976  0.95160  0.28705  Biso   1.000  C
  C18      1.0000 0.49039  0.93622  0.30629  Biso   1.000  C
  H9       1.0000 0.48547  0.92033  0.32993  Biso   1.000  H
  C19      1.0000 0.55655  0.97529  0.25121  Biso   1.000  C
  H10      1.0000 0.59697  0.98713  0.23833  Biso   1.000  H
  C20      1.0000 0.50370  0.98095  0.23513  Biso   1.000  C
  C21      1.0000 0.54659  0.99696  0.17200  Biso   1.000  C
  C22      1.0000 0.53604  0.01466  0.13559  Biso   1.000  C
  C23      1.0000 0.50003  0.04536  0.12135  Biso   1.000  C
  H11      1.0000 0.47567  0.06153  0.13493  Biso   1.000  H
  C24      1.0000 0.56415  0.00039  0.10523  Biso   1.000  C
  H12      1.0000 0.59217  0.98023  0.10583  Biso   1.000  H
  Zn5      1.0000 0.41341  0.28656  0.62055  Biso   1.000  Zn
  Zn6      1.0000 0.32708  0.22230  0.69063  Biso   1.000  Zn
  O13      1.0000 0.99270  0.26447  0.62778  Biso   1.000  O
  O14      1.0000 0.03533  0.23959  0.67684  Biso   1.000  O
  O15      1.0000 0.26118  0.24646  0.66702  Biso   1.000  O
  O16      1.0000 0.32599  0.29273  0.61732  Biso   1.000  O
  O17      1.0000 0.25435  0.31050  0.51196  Biso   1.000  O
  O18      1.0000 0.39908  0.21737  0.65920  Biso   1.000  O
  H13      1.0000 0.43853  0.22627  0.67307  Biso   1.000  H
  N7       1.0000 0.21190  0.35296  0.40891  Biso   1.000  N
  N8       1.0000 0.17271  0.33571  0.53193  Biso   1.000  N
  N9       1.0000 0.17187  0.38176  0.41865  Biso   1.000  N
  C25      1.0000 0.03874  0.25965  0.64454  Biso   1.000  C
  C26      1.0000 0.10444  0.27766  0.62396  Biso   1.000  C
  C27      1.0000 0.11186  0.30019  0.58863  Biso   1.000  C
  H14      1.0000 0.07703  0.30607  0.57807  Biso   1.000  H
  C28      1.0000 0.27302  0.27393  0.63601  Biso   1.000  C
  C29      1.0000 0.21642  0.28494  0.62039  Biso   1.000  C
  C30      1.0000 0.15705  0.26956  0.63963  Biso   1.000  C
  H15      1.0000 0.15213  0.25367  0.66327  Biso   1.000  H
  C31      1.0000 0.22321  0.30863  0.58455  Biso   1.000  C
  H16      1.0000 0.26363  0.32047  0.57167  Biso   1.000  H
  C32      1.0000 0.17036  0.31429  0.56847  Biso   1.000  C
  C33      1.0000 0.21325  0.33030  0.50534  Biso   1.000  C
  C34      1.0000 0.20270  0.34800  0.46893  Biso   1.000  C
  C35      1.0000 0.16669  0.37870  0.45469  Biso   1.000  C
  H17      1.0000 0.14233  0.39487  0.46827  Biso   1.000  H
  C36      1.0000 0.23081  0.33373  0.43857  Biso   1.000  C
  H18      1.0000 0.25883  0.31357  0.43917  Biso   1.000  H
  Zn7      1.0000 0.38010  0.46018  0.95389  Biso   1.000  Zn
  Zn8      1.0000 0.44437  0.43812  0.02396  Biso   1.000  Zn
  O19      1.0000 0.40220  0.06157  0.96111  Biso   1.000  O
  O20      1.0000 0.42708  0.12908  0.01017  Biso   1.000  O
  O21      1.0000 0.42021  0.34806  0.00035  Biso   1.000  O
  O22      1.0000 0.37394  0.36660  0.95065  Biso   1.000  O
  O23      1.0000 0.35617  0.27719  0.84529  Biso   1.000  O
  O24      1.0000 0.44930  0.51505  0.99253  Biso   1.000  O
  H19      1.0000 0.44040  0.54560  0.00640  Biso   1.000  H
  N10      1.0000 0.31371  0.19228  0.74224  Biso   1.000  N
  N11      1.0000 0.33096  0.17034  0.86526  Biso   1.000  N
  N12      1.0000 0.28491  0.12345  0.75198  Biso   1.000  N
  C37      1.0000 0.40702  0.11243  0.97787  Biso   1.000  C
  C38      1.0000 0.38901  0.16012  0.95729  Biso   1.000  C
  C39      1.0000 0.36648  0.14501  0.92196  Biso   1.000  C
  H20      1.0000 0.36060  0.10430  0.91140  Biso   1.000  H
  C40      1.0000 0.39274  0.33243  0.96934  Biso   1.000  C
  C41      1.0000 0.38173  0.26482  0.95372  Biso   1.000  C
  C42      1.0000 0.39711  0.22083  0.97296  Biso   1.000  C
  H21      1.0000 0.41300  0.23180  0.99660  Biso   1.000  H
  C43      1.0000 0.35804  0.24792  0.91788  Biso   1.000  C
  H22      1.0000 0.34620  0.27650  0.90500  Biso   1.000  H
  C44      1.0000 0.35238  0.18941  0.90180  Biso   1.000  C
  C45      1.0000 0.33637  0.21629  0.83867  Biso   1.000  C
  C46      1.0000 0.31867  0.18804  0.80226  Biso   1.000  C
  C47      1.0000 0.28797  0.12133  0.78802  Biso   1.000  C
  H23      1.0000 0.27180  0.08080  0.80160  Biso   1.000  H
  C48      1.0000 0.33294  0.23042  0.77190  Biso   1.000  C
  H24      1.0000 0.35310  0.27860  0.77250  Biso   1.000  H
  Zn9      1.0000 0.04677  0.79351  0.28722  Biso   1.000  Zn
  Zn10     1.0000 0.11104  0.77145  0.35730  Biso   1.000  Zn
  O25      1.0000 0.06887  0.39490  0.29444  Biso   1.000  O
  O26      1.0000 0.09375  0.46241  0.34350  Biso   1.000  O
  O27      1.0000 0.08688  0.68139  0.33368  Biso   1.000  O
  O28      1.0000 0.04061  0.69993  0.28398  Biso   1.000  O
  O29      1.0000 0.02284  0.61052  0.17862  Biso   1.000  O
  O30      1.0000 0.11597  0.84838  0.32586  Biso   1.000  O
  H25      1.0000 0.10707  0.87893  0.33973  Biso   1.000  H
  N13      1.0000 0.98038  0.52561  0.07557  Biso   1.000  N
  N14      1.0000 0.99763  0.50367  0.19859  Biso   1.000  N
  N15      1.0000 0.95158  0.45678  0.08531  Biso   1.000  N
  C49      1.0000 0.07369  0.44576  0.31120  Biso   1.000  C
  C50      1.0000 0.05568  0.49345  0.29062  Biso   1.000  C
  C51      1.0000 0.03315  0.47834  0.25529  Biso   1.000  C
  H26      1.0000 0.02727  0.43763  0.24473  Biso   1.000  H
  C52      1.0000 0.05941  0.66576  0.30267  Biso   1.000  C
  C53      1.0000 0.04840  0.59815  0.28705  Biso   1.000  C
  C54      1.0000 0.06378  0.55416  0.30629  Biso   1.000  C
  H27      1.0000 0.07967  0.56513  0.32993  Biso   1.000  H
  C55      1.0000 0.02471  0.58125  0.25121  Biso   1.000  C
  H28      1.0000 0.01287  0.60983  0.23833  Biso   1.000  H
  C56      1.0000 0.01905  0.52274  0.23513  Biso   1.000  C
  C57      1.0000 0.00304  0.54962  0.17200  Biso   1.000  C
  C58      1.0000 0.98534  0.52137  0.13559  Biso   1.000  C
  C59      1.0000 0.95464  0.45466  0.12135  Biso   1.000  C
  H29      1.0000 0.93847  0.41413  0.13493  Biso   1.000  H
  C60      1.0000 0.99961  0.56375  0.10523  Biso   1.000  C
  H30      1.0000 0.01977  0.61193  0.10583  Biso   1.000  H
  Zn11     1.0000 0.71344  0.12685  0.62055  Biso   1.000  Zn
  Zn12     1.0000 0.77770  0.10479  0.69063  Biso   1.000  Zn
  O31      1.0000 0.73553  0.72824  0.62778  Biso   1.000  O
  O32      1.0000 0.76041  0.79575  0.67684  Biso   1.000  O
  O33      1.0000 0.75354  0.01473  0.66702  Biso   1.000  O
  O34      1.0000 0.70727  0.03327  0.61732  Biso   1.000  O
  O35      1.0000 0.68950  0.94386  0.51196  Biso   1.000  O
  O36      1.0000 0.78263  0.18172  0.65920  Biso   1.000  O
  H31      1.0000 0.77373  0.21227  0.67307  Biso   1.000  H
  N16      1.0000 0.64704  0.85895  0.40891  Biso   1.000  N
  N17      1.0000 0.66429  0.83701  0.53193  Biso   1.000  N
  N18      1.0000 0.61824  0.79012  0.41865  Biso   1.000  N
  C61      1.0000 0.74035  0.77910  0.64454  Biso   1.000  C
  C62      1.0000 0.72234  0.82679  0.62396  Biso   1.000  C
  C63      1.0000 0.69981  0.81168  0.58863  Biso   1.000  C
  H32      1.0000 0.69393  0.77097  0.57807  Biso   1.000  H
  C64      1.0000 0.72607  0.99910  0.63601  Biso   1.000  C
  C65      1.0000 0.71506  0.93149  0.62039  Biso   1.000  C
  C66      1.0000 0.73044  0.88750  0.63963  Biso   1.000  C
  H33      1.0000 0.74633  0.89847  0.66327  Biso   1.000  H
  C67      1.0000 0.69137  0.91459  0.58455  Biso   1.000  C
  H34      1.0000 0.67953  0.94317  0.57167  Biso   1.000  H
  C68      1.0000 0.68571  0.85608  0.56847  Biso   1.000  C
  C69      1.0000 0.66970  0.88296  0.50534  Biso   1.000  C
  C70      1.0000 0.65200  0.85471  0.46893  Biso   1.000  C
  C71      1.0000 0.62130  0.78800  0.45469  Biso   1.000  C
  H35      1.0000 0.60513  0.74747  0.46827  Biso   1.000  H
  C72      1.0000 0.66627  0.89709  0.43857  Biso   1.000  C
  H36      1.0000 0.68643  0.94527  0.43917  Biso   1.000  H
  Zn13     1.0000 0.53982  0.91993  0.95389  Biso   1.000  Zn
  Zn14     1.0000 0.56188  0.00625  0.02396  Biso   1.000  Zn
  O37      1.0000 0.93843  0.34063  0.96111  Biso   1.000  O
  O38      1.0000 0.87092  0.29800  0.01017  Biso   1.000  O
  O39      1.0000 0.65194  0.07215  0.00035  Biso   1.000  O
  O40      1.0000 0.63340  0.00734  0.95065  Biso   1.000  O
  O41      1.0000 0.72281  0.07898  0.84529  Biso   1.000  O
  O42      1.0000 0.48495  0.93425  0.99253  Biso   1.000  O
  H37      1.0000 0.45440  0.89480  0.00640  Biso   1.000  H
  N19      1.0000 0.80772  0.12143  0.74224  Biso   1.000  N
  N20      1.0000 0.82966  0.16062  0.86526  Biso   1.000  N
  N21      1.0000 0.87655  0.16146  0.75198  Biso   1.000  N
  C73      1.0000 0.88757  0.29459  0.97787  Biso   1.000  C
  C74      1.0000 0.83988  0.22889  0.95729  Biso   1.000  C
  C75      1.0000 0.85499  0.22147  0.92196  Biso   1.000  C
  H38      1.0000 0.89570  0.25630  0.91140  Biso   1.000  H
  C76      1.0000 0.66757  0.06031  0.96934  Biso   1.000  C
  C77      1.0000 0.73518  0.11691  0.95372  Biso   1.000  C
  C78      1.0000 0.77917  0.17628  0.97296  Biso   1.000  C
  H39      1.0000 0.76820  0.18120  0.99660  Biso   1.000  H
  C79      1.0000 0.75208  0.11012  0.91788  Biso   1.000  C
  H40      1.0000 0.72350  0.06970  0.90500  Biso   1.000  H
  C80      1.0000 0.81059  0.16297  0.90180  Biso   1.000  C
  C81      1.0000 0.78371  0.12008  0.83867  Biso   1.000  C
  C82      1.0000 0.81196  0.13063  0.80226  Biso   1.000  C
  C83      1.0000 0.87867  0.16664  0.78802  Biso   1.000  C
  H41      1.0000 0.91920  0.19100  0.80160  Biso   1.000  H
  C84      1.0000 0.76958  0.10252  0.77190  Biso   1.000  C
  H42      1.0000 0.72140  0.07450  0.77250  Biso   1.000  H
  Zn15     1.0000 0.20649  0.25326  0.28722  Biso   1.000  Zn
  Zn16     1.0000 0.22855  0.33959  0.35730  Biso   1.000  Zn
  O43      1.0000 0.60510  0.67396  0.29444  Biso   1.000  O
  O44      1.0000 0.53759  0.63133  0.34350  Biso   1.000  O
  O45      1.0000 0.31861  0.40548  0.33368  Biso   1.000  O
  O46      1.0000 0.30007  0.34067  0.28398  Biso   1.000  O
  O47      1.0000 0.38948  0.41231  0.17862  Biso   1.000  O
  O48      1.0000 0.15162  0.26758  0.32586  Biso   1.000  O
  H43      1.0000 0.12107  0.22813  0.33973  Biso   1.000  H
  N22      1.0000 0.47439  0.45476  0.07557  Biso   1.000  N
  N23      1.0000 0.49633  0.49395  0.19859  Biso   1.000  N
  N24      1.0000 0.54322  0.49479  0.08531  Biso   1.000  N
  C85      1.0000 0.55424  0.62792  0.31120  Biso   1.000  C
  C86      1.0000 0.50655  0.56222  0.29062  Biso   1.000  C
  C87      1.0000 0.52166  0.55480  0.25529  Biso   1.000  C
  H44      1.0000 0.56237  0.58963  0.24473  Biso   1.000  H
  C88      1.0000 0.33424  0.39364  0.30267  Biso   1.000  C
  C89      1.0000 0.40185  0.45024  0.28705  Biso   1.000  C
  C90      1.0000 0.44584  0.50961  0.30629  Biso   1.000  C
  H45      1.0000 0.43487  0.51453  0.32993  Biso   1.000  H
  C91      1.0000 0.41875  0.44345  0.25121  Biso   1.000  C
  H46      1.0000 0.39017  0.40303  0.23833  Biso   1.000  H
  C92      1.0000 0.47726  0.49630  0.23513  Biso   1.000  C
  C93      1.0000 0.45038  0.45341  0.17200  Biso   1.000  C
  C94      1.0000 0.47863  0.46396  0.13559  Biso   1.000  C
  C95      1.0000 0.54534  0.49997  0.12135  Biso   1.000  C
  H47      1.0000 0.58587  0.52433  0.13493  Biso   1.000  H
  C96      1.0000 0.43625  0.43585  0.10523  Biso   1.000  C
  H48      1.0000 0.38807  0.40783  0.10583  Biso   1.000  H
  Zn17     1.0000 0.87315  0.58659  0.62055  Biso   1.000  Zn
  Zn18     1.0000 0.89521  0.67292  0.69063  Biso   1.000  Zn
  O49      1.0000 0.27176  0.00730  0.62778  Biso   1.000  O
  O50      1.0000 0.20425  0.96467  0.67684  Biso   1.000  O
  O51      1.0000 0.98527  0.73882  0.66702  Biso   1.000  O
  O52      1.0000 0.96673  0.67401  0.61732  Biso   1.000  O
  O53      1.0000 0.05614  0.74565  0.51196  Biso   1.000  O
  O54      1.0000 0.81828  0.60092  0.65920  Biso   1.000  O
  H49      1.0000 0.78773  0.56147  0.67307  Biso   1.000  H
  N25      1.0000 0.14105  0.78810  0.40891  Biso   1.000  N
  N26      1.0000 0.16299  0.82729  0.53193  Biso   1.000  N
  N27      1.0000 0.20988  0.82813  0.41865  Biso   1.000  N
  C97      1.0000 0.22090  0.96126  0.64454  Biso   1.000  C
  C98      1.0000 0.17321  0.89556  0.62396  Biso   1.000  C
  C99      1.0000 0.18832  0.88814  0.58863  Biso   1.000  C
  H50      1.0000 0.22903  0.92297  0.57807  Biso   1.000  H
  C100     1.0000 0.00090  0.72698  0.63601  Biso   1.000  C
  C101     1.0000 0.06851  0.78358  0.62039  Biso   1.000  C
  C102     1.0000 0.11250  0.84295  0.63963  Biso   1.000  C
  H51      1.0000 0.10153  0.84787  0.66327  Biso   1.000  H
  C103     1.0000 0.08541  0.77679  0.58455  Biso   1.000  C
  H52      1.0000 0.05683  0.73637  0.57167  Biso   1.000  H
  C104     1.0000 0.14392  0.82964  0.56847  Biso   1.000  C
  C105     1.0000 0.11704  0.78675  0.50534  Biso   1.000  C
  C106     1.0000 0.14529  0.79730  0.46893  Biso   1.000  C
  C107     1.0000 0.21200  0.83331  0.45469  Biso   1.000  C
  H53      1.0000 0.25253  0.85767  0.46827  Biso   1.000  H
  C108     1.0000 0.10291  0.76919  0.43857  Biso   1.000  C
  H54      1.0000 0.05473  0.74117  0.43917  Biso   1.000  H
  Zn19     1.0000 0.91993  0.38010  0.04611  Biso   1.000  Zn
  Zn20     1.0000 0.00625  0.44437  0.97604  Biso   1.000  Zn
  O55      1.0000 0.34063  0.40220  0.03889  Biso   1.000  O
  O56      1.0000 0.29800  0.42708  0.98983  Biso   1.000  O
  O57      1.0000 0.07215  0.42021  0.99965  Biso   1.000  O
  O58      1.0000 0.00734  0.37394  0.04935  Biso   1.000  O
  O59      1.0000 0.07898  0.35617  0.15471  Biso   1.000  O
  O60      1.0000 0.93425  0.44930  0.00747  Biso   1.000  O
  H55      1.0000 0.89480  0.44040  0.99360  Biso   1.000  H
  N28      1.0000 0.12143  0.31371  0.25776  Biso   1.000  N
  N29      1.0000 0.16062  0.33096  0.13474  Biso   1.000  N
  N30      1.0000 0.16146  0.28491  0.24802  Biso   1.000  N
  C109     1.0000 0.29459  0.40702  0.02213  Biso   1.000  C
  C110     1.0000 0.22889  0.38901  0.04271  Biso   1.000  C
  C111     1.0000 0.22147  0.36648  0.07804  Biso   1.000  C
  H56      1.0000 0.25630  0.36060  0.08860  Biso   1.000  H
  C112     1.0000 0.06031  0.39274  0.03066  Biso   1.000  C
  C113     1.0000 0.11691  0.38173  0.04628  Biso   1.000  C
  C114     1.0000 0.17628  0.39711  0.02704  Biso   1.000  C
  H57      1.0000 0.18120  0.41300  0.00340  Biso   1.000  H
  C115     1.0000 0.11012  0.35804  0.08212  Biso   1.000  C
  H58      1.0000 0.06970  0.34620  0.09500  Biso   1.000  H
  C116     1.0000 0.16297  0.35238  0.09820  Biso   1.000  C
  C117     1.0000 0.12008  0.33637  0.16133  Biso   1.000  C
  C118     1.0000 0.13063  0.31867  0.19774  Biso   1.000  C
  C119     1.0000 0.16664  0.28797  0.21198  Biso   1.000  C
  H59      1.0000 0.19100  0.27180  0.19840  Biso   1.000  H
  C120     1.0000 0.10252  0.33294  0.22810  Biso   1.000  C
  H60      1.0000 0.07450  0.35310  0.22750  Biso   1.000  H
  Zn21     1.0000 0.58659  0.71344  0.37945  Biso   1.000  Zn
  Zn22     1.0000 0.67292  0.77770  0.30937  Biso   1.000  Zn
  O61      1.0000 0.00730  0.73553  0.37222  Biso   1.000  O
  O62      1.0000 0.96467  0.76041  0.32316  Biso   1.000  O
  O63      1.0000 0.73882  0.75354  0.33298  Biso   1.000  O
  O64      1.0000 0.67401  0.70727  0.38268  Biso   1.000  O
  O65      1.0000 0.74565  0.68950  0.48804  Biso   1.000  O
  O66      1.0000 0.60092  0.78263  0.34080  Biso   1.000  O
  H61      1.0000 0.56147  0.77373  0.32693  Biso   1.000  H
  N31      1.0000 0.78810  0.64704  0.59109  Biso   1.000  N
  N32      1.0000 0.82729  0.66429  0.46807  Biso   1.000  N
  N33      1.0000 0.82813  0.61824  0.58135  Biso   1.000  N
  C121     1.0000 0.96126  0.74035  0.35546  Biso   1.000  C
  C122     1.0000 0.89556  0.72234  0.37604  Biso   1.000  C
  C123     1.0000 0.88814  0.69981  0.41137  Biso   1.000  C
  H62      1.0000 0.92297  0.69393  0.42193  Biso   1.000  H
  C124     1.0000 0.72698  0.72607  0.36399  Biso   1.000  C
  C125     1.0000 0.78358  0.71506  0.37961  Biso   1.000  C
  C126     1.0000 0.84295  0.73044  0.36037  Biso   1.000  C
  H63      1.0000 0.84787  0.74633  0.33673  Biso   1.000  H
  C127     1.0000 0.77679  0.69137  0.41545  Biso   1.000  C
  H64      1.0000 0.73637  0.67953  0.42833  Biso   1.000  H
  C128     1.0000 0.82964  0.68571  0.43153  Biso   1.000  C
  C129     1.0000 0.78675  0.66970  0.49466  Biso   1.000  C
  C130     1.0000 0.79730  0.65200  0.53107  Biso   1.000  C
  C131     1.0000 0.83331  0.62130  0.54531  Biso   1.000  C
  H65      1.0000 0.85767  0.60513  0.53173  Biso   1.000  H
  C132     1.0000 0.76919  0.66627  0.56143  Biso   1.000  C
  H66      1.0000 0.74117  0.68643  0.56083  Biso   1.000  H
  Zn23     1.0000 0.25326  0.04677  0.71278  Biso   1.000  Zn
  Zn24     1.0000 0.33959  0.11104  0.64270  Biso   1.000  Zn
  O67      1.0000 0.67396  0.06887  0.70556  Biso   1.000  O
  O68      1.0000 0.63133  0.09375  0.65650  Biso   1.000  O
  O69      1.0000 0.40548  0.08688  0.66632  Biso   1.000  O
  O70      1.0000 0.34067  0.04061  0.71602  Biso   1.000  O
  O71      1.0000 0.41231  0.02284  0.82138  Biso   1.000  O
  O72      1.0000 0.26758  0.11597  0.67414  Biso   1.000  O
  H67      1.0000 0.22813  0.10707  0.66027  Biso   1.000  H
  N34      1.0000 0.45476  0.98038  0.92443  Biso   1.000  N
  N35      1.0000 0.49395  0.99763  0.80141  Biso   1.000  N
  N36      1.0000 0.49479  0.95158  0.91469  Biso   1.000  N
  C133     1.0000 0.62792  0.07369  0.68880  Biso   1.000  C
  C134     1.0000 0.56222  0.05568  0.70938  Biso   1.000  C
  C135     1.0000 0.55480  0.03315  0.74471  Biso   1.000  C
  H68      1.0000 0.58963  0.02727  0.75527  Biso   1.000  H
  C136     1.0000 0.39364  0.05941  0.69733  Biso   1.000  C
  C137     1.0000 0.45024  0.04840  0.71295  Biso   1.000  C
  C138     1.0000 0.50961  0.06378  0.69371  Biso   1.000  C
  H69      1.0000 0.51453  0.07967  0.67007  Biso   1.000  H
  C139     1.0000 0.44345  0.02471  0.74879  Biso   1.000  C
  H70      1.0000 0.40303  0.01287  0.76167  Biso   1.000  H
  C140     1.0000 0.49630  0.01905  0.76487  Biso   1.000  C
  C141     1.0000 0.45341  0.00304  0.82800  Biso   1.000  C
  C142     1.0000 0.46396  0.98534  0.86441  Biso   1.000  C
  C143     1.0000 0.49997  0.95464  0.87865  Biso   1.000  C
  H71      1.0000 0.52433  0.93847  0.86507  Biso   1.000  H
  C144     1.0000 0.43585  0.99961  0.89477  Biso   1.000  C
  H72      1.0000 0.40783  0.01977  0.89417  Biso   1.000  H
  Zn25     1.0000 0.61990  0.53982  0.04611  Biso   1.000  Zn
  Zn26     1.0000 0.55563  0.56188  0.97604  Biso   1.000  Zn
  O73      1.0000 0.59780  0.93843  0.03889  Biso   1.000  O
  O74      1.0000 0.57292  0.87092  0.98983  Biso   1.000  O
  O75      1.0000 0.57979  0.65194  0.99965  Biso   1.000  O
  O76      1.0000 0.62606  0.63340  0.04935  Biso   1.000  O
  O77      1.0000 0.64383  0.72281  0.15471  Biso   1.000  O
  O78      1.0000 0.55070  0.48495  0.00747  Biso   1.000  O
  H73      1.0000 0.55960  0.45440  0.99360  Biso   1.000  H
  N37      1.0000 0.68629  0.80772  0.25776  Biso   1.000  N
  N38      1.0000 0.66904  0.82966  0.13474  Biso   1.000  N
  N39      1.0000 0.71509  0.87655  0.24802  Biso   1.000  N
  C145     1.0000 0.59298  0.88757  0.02213  Biso   1.000  C
  C146     1.0000 0.61099  0.83988  0.04271  Biso   1.000  C
  C147     1.0000 0.63352  0.85499  0.07804  Biso   1.000  C
  H74      1.0000 0.63940  0.89570  0.08860  Biso   1.000  H
  C148     1.0000 0.60726  0.66757  0.03066  Biso   1.000  C
  C149     1.0000 0.61827  0.73518  0.04628  Biso   1.000  C
  C150     1.0000 0.60289  0.77917  0.02704  Biso   1.000  C
  H75      1.0000 0.58700  0.76820  0.00340  Biso   1.000  H
  C151     1.0000 0.64196  0.75208  0.08212  Biso   1.000  C
  H76      1.0000 0.65380  0.72350  0.09500  Biso   1.000  H
  C152     1.0000 0.64762  0.81059  0.09820  Biso   1.000  C
  C153     1.0000 0.66363  0.78371  0.16133  Biso   1.000  C
  C154     1.0000 0.68133  0.81196  0.19774  Biso   1.000  C
  C155     1.0000 0.71203  0.87867  0.21198  Biso   1.000  C
  H77      1.0000 0.72820  0.91920  0.19840  Biso   1.000  H
  C156     1.0000 0.66706  0.76958  0.22810  Biso   1.000  C
  H78      1.0000 0.64690  0.72140  0.22750  Biso   1.000  H
  Zn27     1.0000 0.28656  0.87315  0.37945  Biso   1.000  Zn
  Zn28     1.0000 0.22230  0.89521  0.30937  Biso   1.000  Zn
  O79      1.0000 0.26447  0.27176  0.37222  Biso   1.000  O
  O80      1.0000 0.23959  0.20425  0.32316  Biso   1.000  O
  O81      1.0000 0.24646  0.98527  0.33298  Biso   1.000  O
  O82      1.0000 0.29273  0.96673  0.38268  Biso   1.000  O
  O83      1.0000 0.31050  0.05614  0.48804  Biso   1.000  O
  O84      1.0000 0.21737  0.81828  0.34080  Biso   1.000  O
  H79      1.0000 0.22627  0.78773  0.32693  Biso   1.000  H
  N40      1.0000 0.35296  0.14105  0.59109  Biso   1.000  N
  N41      1.0000 0.33571  0.16299  0.46807  Biso   1.000  N
  N42      1.0000 0.38176  0.20988  0.58135  Biso   1.000  N
  C157     1.0000 0.25965  0.22090  0.35546  Biso   1.000  C
  C158     1.0000 0.27766  0.17321  0.37604  Biso   1.000  C
  C159     1.0000 0.30019  0.18832  0.41137  Biso   1.000  C
  H80      1.0000 0.30607  0.22903  0.42193  Biso   1.000  H
  C160     1.0000 0.27393  0.00090  0.36399  Biso   1.000  C
  C161     1.0000 0.28494  0.06851  0.37961  Biso   1.000  C
  C162     1.0000 0.26956  0.11250  0.36037  Biso   1.000  C
  H81      1.0000 0.25367  0.10153  0.33673  Biso   1.000  H
  C163     1.0000 0.30863  0.08541  0.41545  Biso   1.000  C
  H82      1.0000 0.32047  0.05683  0.42833  Biso   1.000  H
  C164     1.0000 0.31429  0.14392  0.43153  Biso   1.000  C
  C165     1.0000 0.33030  0.11704  0.49466  Biso   1.000  C
  C166     1.0000 0.34800  0.14529  0.53107  Biso   1.000  C
  C167     1.0000 0.37870  0.21200  0.54531  Biso   1.000  C
  H83      1.0000 0.39487  0.25253  0.53173  Biso   1.000  H
  C168     1.0000 0.33373  0.10291  0.56143  Biso   1.000  C
  H84      1.0000 0.31357  0.05473  0.56083  Biso   1.000  H
  Zn29     1.0000 0.95323  0.20649  0.71278  Biso   1.000  Zn
  Zn30     1.0000 0.88896  0.22855  0.64270  Biso   1.000  Zn
  O85      1.0000 0.93113  0.60510  0.70556  Biso   1.000  O
  O86      1.0000 0.90625  0.53759  0.65650  Biso   1.000  O
  O87      1.0000 0.91312  0.31861  0.66632  Biso   1.000  O
  O88      1.0000 0.95939  0.30007  0.71602  Biso   1.000  O
  O89      1.0000 0.97716  0.38948  0.82138  Biso   1.000  O
  O90      1.0000 0.88403  0.15162  0.67414  Biso   1.000  O
  H85      1.0000 0.89293  0.12107  0.66027  Biso   1.000  H
  N43      1.0000 0.01962  0.47439  0.92443  Biso   1.000  N
  N44      1.0000 0.00237  0.49633  0.80141  Biso   1.000  N
  N45      1.0000 0.04842  0.54322  0.91469  Biso   1.000  N
  C169     1.0000 0.92631  0.55424  0.68880  Biso   1.000  C
  C170     1.0000 0.94432  0.50655  0.70938  Biso   1.000  C
  C171     1.0000 0.96685  0.52166  0.74471  Biso   1.000  C
  H86      1.0000 0.97273  0.56237  0.75527  Biso   1.000  H
  C172     1.0000 0.94059  0.33424  0.69733  Biso   1.000  C
  C173     1.0000 0.95160  0.40185  0.71295  Biso   1.000  C
  C174     1.0000 0.93622  0.44584  0.69371  Biso   1.000  C
  H87      1.0000 0.92033  0.43487  0.67007  Biso   1.000  H
  C175     1.0000 0.97529  0.41875  0.74879  Biso   1.000  C
  H88      1.0000 0.98713  0.39017  0.76167  Biso   1.000  H
  C176     1.0000 0.98095  0.47726  0.76487  Biso   1.000  C
  C177     1.0000 0.99696  0.45038  0.82800  Biso   1.000  C
  C178     1.0000 0.01466  0.47863  0.86441  Biso   1.000  C
  C179     1.0000 0.04536  0.54534  0.87865  Biso   1.000  C
  H89      1.0000 0.06153  0.58587  0.86507  Biso   1.000  H
  C180     1.0000 0.00039  0.43625  0.89477  Biso   1.000  C
  H90      1.0000 0.98023  0.38807  0.89417  Biso   1.000  H
  Zn31     1.0000 0.46018  0.08007  0.04611  Biso   1.000  Zn
  Zn32     1.0000 0.43812  0.99375  0.97604  Biso   1.000  Zn
  O91      1.0000 0.06157  0.65937  0.03889  Biso   1.000  O
  O92      1.0000 0.12908  0.70200  0.98983  Biso   1.000  O
  O93      1.0000 0.34806  0.92785  0.99965  Biso   1.000  O
  O94      1.0000 0.36660  0.99266  0.04935  Biso   1.000  O
  O95      1.0000 0.27719  0.92102  0.15471  Biso   1.000  O
  O96      1.0000 0.51505  0.06575  0.00747  Biso   1.000  O
  H91      1.0000 0.54560  0.10520  0.99360  Biso   1.000  H
  N46      1.0000 0.19228  0.87857  0.25776  Biso   1.000  N
  N47      1.0000 0.17034  0.83938  0.13474  Biso   1.000  N
  N48      1.0000 0.12345  0.83854  0.24802  Biso   1.000  N
  C181     1.0000 0.11243  0.70541  0.02213  Biso   1.000  C
  C182     1.0000 0.16012  0.77111  0.04271  Biso   1.000  C
  C183     1.0000 0.14501  0.77853  0.07804  Biso   1.000  C
  H92      1.0000 0.10430  0.74370  0.08860  Biso   1.000  H
  C184     1.0000 0.33243  0.93969  0.03066  Biso   1.000  C
  C185     1.0000 0.26482  0.88309  0.04628  Biso   1.000  C
  C186     1.0000 0.22083  0.82372  0.02704  Biso   1.000  C
  H93      1.0000 0.23180  0.81880  0.00340  Biso   1.000  H
  C187     1.0000 0.24792  0.88988  0.08212  Biso   1.000  C
  H94      1.0000 0.27650  0.93030  0.09500  Biso   1.000  H
  C188     1.0000 0.18941  0.83703  0.09820  Biso   1.000  C
  C189     1.0000 0.21629  0.87992  0.16133  Biso   1.000  C
  C190     1.0000 0.18804  0.86937  0.19774  Biso   1.000  C
  C191     1.0000 0.12133  0.83336  0.21198  Biso   1.000  C
  H95      1.0000 0.08080  0.80900  0.19840  Biso   1.000  H
  C192     1.0000 0.23042  0.89748  0.22810  Biso   1.000  C
  H96      1.0000 0.27860  0.92550  0.22750  Biso   1.000  H
  Zn33     1.0000 0.12685  0.41341  0.37945  Biso   1.000  Zn
  Zn34     1.0000 0.10479  0.32708  0.30937  Biso   1.000  Zn
  O97      1.0000 0.72824  0.99270  0.37222  Biso   1.000  O
  O98      1.0000 0.79575  0.03533  0.32316  Biso   1.000  O
  O99      1.0000 0.01473  0.26118  0.33298  Biso   1.000  O
  O100     1.0000 0.03327  0.32599  0.38268  Biso   1.000  O
  O101     1.0000 0.94386  0.25435  0.48804  Biso   1.000  O
  O102     1.0000 0.18172  0.39908  0.34080  Biso   1.000  O
  H97      1.0000 0.21227  0.43853  0.32693  Biso   1.000  H
  N49      1.0000 0.85895  0.21190  0.59109  Biso   1.000  N
  N50      1.0000 0.83701  0.17271  0.46807  Biso   1.000  N
  N51      1.0000 0.79012  0.17187  0.58135  Biso   1.000  N
  C193     1.0000 0.77910  0.03874  0.35546  Biso   1.000  C
  C194     1.0000 0.82679  0.10444  0.37604  Biso   1.000  C
  C195     1.0000 0.81168  0.11186  0.41137  Biso   1.000  C
  H98      1.0000 0.77097  0.07703  0.42193  Biso   1.000  H
  C196     1.0000 0.99910  0.27302  0.36399  Biso   1.000  C
  C197     1.0000 0.93149  0.21642  0.37961  Biso   1.000  C
  C198     1.0000 0.88750  0.15705  0.36037  Biso   1.000  C
  H99      1.0000 0.89847  0.15213  0.33673  Biso   1.000  H
  C199     1.0000 0.91459  0.22321  0.41545  Biso   1.000  C
  H100     1.0000 0.94317  0.26363  0.42833  Biso   1.000  H
  C200     1.0000 0.85608  0.17036  0.43153  Biso   1.000  C
  C201     1.0000 0.88296  0.21325  0.49466  Biso   1.000  C
  C202     1.0000 0.85471  0.20270  0.53107  Biso   1.000  C
  C203     1.0000 0.78800  0.16669  0.54531  Biso   1.000  C
  H101     1.0000 0.74747  0.14233  0.53173  Biso   1.000  H
  C204     1.0000 0.89709  0.23081  0.56143  Biso   1.000  C
  H102     1.0000 0.94527  0.25883  0.56083  Biso   1.000  H
  Zn35     1.0000 0.79351  0.74674  0.71278  Biso   1.000  Zn
  Zn36     1.0000 0.77145  0.66041  0.64270  Biso   1.000  Zn
  O103     1.0000 0.39490  0.32604  0.70556  Biso   1.000  O
  O104     1.0000 0.46241  0.36867  0.65650  Biso   1.000  O
  O105     1.0000 0.68139  0.59452  0.66632  Biso   1.000  O
  O106     1.0000 0.69993  0.65933  0.71602  Biso   1.000  O
  O107     1.0000 0.61052  0.58769  0.82138  Biso   1.000  O
  O108     1.0000 0.84838  0.73242  0.67414  Biso   1.000  O
  H103     1.0000 0.87893  0.77187  0.66027  Biso   1.000  H
  N52      1.0000 0.52561  0.54524  0.92443  Biso   1.000  N
  N53      1.0000 0.50367  0.50605  0.80141  Biso   1.000  N
  N54      1.0000 0.45678  0.50521  0.91469  Biso   1.000  N
  C205     1.0000 0.44576  0.37208  0.68880  Biso   1.000  C
  C206     1.0000 0.49345  0.43778  0.70938  Biso   1.000  C
  C207     1.0000 0.47834  0.44520  0.74471  Biso   1.000  C
  H104     1.0000 0.43763  0.41037  0.75527  Biso   1.000  H
  C208     1.0000 0.66576  0.60636  0.69733  Biso   1.000  C
  C209     1.0000 0.59815  0.54976  0.71295  Biso   1.000  C
  C210     1.0000 0.55416  0.49039  0.69371  Biso   1.000  C
  H105     1.0000 0.56513  0.48547  0.67007  Biso   1.000  H
  C211     1.0000 0.58125  0.55655  0.74879  Biso   1.000  C
  H106     1.0000 0.60983  0.59697  0.76167  Biso   1.000  H
  C212     1.0000 0.52274  0.50370  0.76487  Biso   1.000  C
  C213     1.0000 0.54962  0.54659  0.82800  Biso   1.000  C
  C214     1.0000 0.52137  0.53604  0.86441  Biso   1.000  C
  C215     1.0000 0.45466  0.50003  0.87865  Biso   1.000  C
  H107     1.0000 0.41413  0.47567  0.86507  Biso   1.000  H
  C216     1.0000 0.56375  0.56415  0.89477  Biso   1.000  C
  H108     1.0000 0.61193  0.59217  0.89417  Biso   1.000  H
