data_image0
_cell_length_a       21.838
_cell_length_b       21.838
_cell_length_c       14.721
_cell_angle_alpha    90
_cell_angle_beta     90
_cell_angle_gamma    90

_symmetry_space_group_name_H-M    "P 1"
_symmetry_int_tables_number       1

loop_
  _symmetry_equiv_pos_as_xyz
  'x, y, z'

loop_
  _atom_site_label
  _atom_site_occupancy
  _atom_site_fract_x
  _atom_site_fract_y
  _atom_site_fract_z
  _atom_site_thermal_displace_type
  _atom_site_B_iso_or_equiv
  _atom_site_type_symbol
  O1       1.0000 0.20571  0.45209  0.17255  Biso   1.000  O
  O2       1.0000 0.29739  0.46005  0.10970  Biso   1.000  O
  O3       1.0000 0.13790  0.36298  0.99980  Biso   1.000  O
  O4       1.0000 0.15205  0.56523  0.06320  Biso   1.000  O
  O5       1.0000 0.81731  0.37960  0.02610  Biso   1.000  O
  O6       1.0000 0.82872  0.58661  0.05250  Biso   1.000  O
  O7       1.0000 0.77977  0.52405  0.88450  Biso   1.000  O
  O8       1.0000 0.68647  0.54251  0.93660  Biso   1.000  O
  N1       1.0000 0.14474  0.46702  0.01500  Biso   1.000  N
  N2       1.0000 0.82303  0.48292  0.04320  Biso   1.000  N
  C1       1.0000 0.23970  0.45854  0.10470  Biso   1.000  C
  C2       1.0000 0.21230  0.46160  0.01000  Biso   1.000  C
  H1       1.0000 0.22112  0.42137  0.98040  Biso   1.000  H
  C3       1.0000 0.24230  0.51120  0.94970  Biso   1.000  C
  H2       1.0000 0.28673  0.50523  0.94907  Biso   1.000  H
  H3       1.0000 0.22631  0.50788  0.88767  Biso   1.000  H
  H4       1.0000 0.23274  0.55180  0.97417  Biso   1.000  H
  C4       1.0000 0.11200  0.41150  0.01230  Biso   1.000  C
  C5       1.0000 0.11920  0.52300  0.04310  Biso   1.000  C
  C6       1.0000 0.05150  0.52672  0.04410  Biso   1.000  C
  C7       1.0000 0.02300  0.58260  0.05480  Biso   1.000  C
  H5       1.0000 0.04661  0.61890  0.06051  Biso   1.000  H
  C8       1.0000 0.95870  0.58542  0.05730  Biso   1.000  C
  H6       1.0000 0.93912  0.62388  0.06530  Biso   1.000  H
  C9       1.0000 0.92383  0.53359  0.04820  Biso   1.000  C
  C10      1.0000 0.95182  0.47608  0.03850  Biso   1.000  C
  C11      1.0000 0.01643  0.47260  0.03410  Biso   1.000  C
  C12      1.0000 0.04440  0.41544  0.02130  Biso   1.000  C
  C13      1.0000 0.00930  0.36300  0.01500  Biso   1.000  C
  H7       1.0000 0.02866  0.32442  0.00671  Biso   1.000  H
  C14      1.0000 0.94570  0.36643  0.02080  Biso   1.000  C
  H8       1.0000 0.92194  0.33007  0.01725  Biso   1.000  H
  C15      1.0000 0.91702  0.42219  0.03160  Biso   1.000  C
  C16      1.0000 0.84870  0.42470  0.03360  Biso   1.000  C
  C17      1.0000 0.85560  0.53760  0.04820  Biso   1.000  C
  C18      1.0000 0.75470  0.48810  0.03340  Biso   1.000  C
  H9       1.0000 0.73957  0.44542  0.02325  Biso   1.000  H
  C19      1.0000 0.72370  0.51010  0.11890  Biso   1.000  C
  H10      1.0000 0.72427  0.47742  0.16453  Biso   1.000  H
  H11      1.0000 0.68123  0.52125  0.10526  Biso   1.000  H
  H12      1.0000 0.74546  0.54599  0.14255  Biso   1.000  H
  C20      1.0000 0.74090  0.52306  0.94590  Biso   1.000  C
  O9       1.0000 0.29429  0.95209  0.57745  Biso   1.000  O
  O10      1.0000 0.20261  0.96005  0.64030  Biso   1.000  O
  O11      1.0000 0.36210  0.86298  0.75020  Biso   1.000  O
  O12      1.0000 0.34795  0.06523  0.68680  Biso   1.000  O
  O13      1.0000 0.68269  0.87960  0.72390  Biso   1.000  O
  O14      1.0000 0.67128  0.08661  0.69750  Biso   1.000  O
  O15      1.0000 0.72023  0.02405  0.86550  Biso   1.000  O
  O16      1.0000 0.81353  0.04251  0.81340  Biso   1.000  O
  N3       1.0000 0.35526  0.96702  0.73500  Biso   1.000  N
  N4       1.0000 0.67697  0.98292  0.70680  Biso   1.000  N
  C21      1.0000 0.26030  0.95854  0.64530  Biso   1.000  C
  C22      1.0000 0.28770  0.96160  0.74000  Biso   1.000  C
  H13      1.0000 0.27888  0.92137  0.76960  Biso   1.000  H
  C23      1.0000 0.25770  0.01120  0.80030  Biso   1.000  C
  H14      1.0000 0.21327  0.00523  0.80093  Biso   1.000  H
  H15      1.0000 0.27369  0.00788  0.86233  Biso   1.000  H
  H16      1.0000 0.26726  0.05180  0.77583  Biso   1.000  H
  C24      1.0000 0.38800  0.91150  0.73770  Biso   1.000  C
  C25      1.0000 0.38080  0.02300  0.70690  Biso   1.000  C
  C26      1.0000 0.44850  0.02672  0.70590  Biso   1.000  C
  C27      1.0000 0.47700  0.08260  0.69520  Biso   1.000  C
  H17      1.0000 0.45339  0.11890  0.68949  Biso   1.000  H
  C28      1.0000 0.54130  0.08542  0.69270  Biso   1.000  C
  H18      1.0000 0.56088  0.12388  0.68470  Biso   1.000  H
  C29      1.0000 0.57617  0.03359  0.70180  Biso   1.000  C
  C30      1.0000 0.54818  0.97608  0.71150  Biso   1.000  C
  C31      1.0000 0.48357  0.97260  0.71590  Biso   1.000  C
  C32      1.0000 0.45560  0.91544  0.72870  Biso   1.000  C
  C33      1.0000 0.49070  0.86300  0.73500  Biso   1.000  C
  H19      1.0000 0.47134  0.82442  0.74329  Biso   1.000  H
  C34      1.0000 0.55430  0.86643  0.72920  Biso   1.000  C
  H20      1.0000 0.57806  0.83007  0.73275  Biso   1.000  H
  C35      1.0000 0.58298  0.92219  0.71840  Biso   1.000  C
  C36      1.0000 0.65130  0.92470  0.71640  Biso   1.000  C
  C37      1.0000 0.64440  0.03760  0.70180  Biso   1.000  C
  C38      1.0000 0.74530  0.98810  0.71660  Biso   1.000  C
  H21      1.0000 0.76043  0.94542  0.72675  Biso   1.000  H
  C39      1.0000 0.77630  0.01010  0.63110  Biso   1.000  C
  H22      1.0000 0.77573  0.97742  0.58547  Biso   1.000  H
  H23      1.0000 0.81877  0.02125  0.64474  Biso   1.000  H
  H24      1.0000 0.75454  0.04599  0.60745  Biso   1.000  H
  C40      1.0000 0.75910  0.02306  0.80410  Biso   1.000  C
  Cd1      1.0000 0.20490  0.95069  0.47919  Biso   1.000  Cd
  N5       1.0000 0.22710  0.84918  0.45650  Biso   1.000  N
  N6       1.0000 0.30199  0.55700  0.28090  Biso   1.000  N
  C41      1.0000 0.18390  0.81060  0.42380  Biso   1.000  C
  H25      1.0000 0.14247  0.82376  0.42316  Biso   1.000  H
  C42      1.0000 0.19770  0.75330  0.39150  Biso   1.000  C
  H26      1.0000 0.16588  0.72757  0.36932  Biso   1.000  H
  C43      1.0000 0.25770  0.73270  0.39110  Biso   1.000  C
  C44      1.0000 0.30140  0.77248  0.42830  Biso   1.000  C
  H27      1.0000 0.34306  0.76005  0.43218  Biso   1.000  H
  C45      1.0000 0.28440  0.82899  0.45890  Biso   1.000  C
  H28      1.0000 0.31511  0.85517  0.48302  Biso   1.000  H
  C46      1.0000 0.25073  0.58699  0.25700  Biso   1.000  C
  H29      1.0000 0.22389  0.56799  0.21480  Biso   1.000  H
  C47      1.0000 0.23498  0.64361  0.29030  Biso   1.000  C
  H30      1.0000 0.19822  0.66312  0.27154  Biso   1.000  H
  C48      1.0000 0.27460  0.67212  0.35300  Biso   1.000  C
  C49      1.0000 0.32801  0.64150  0.37680  Biso   1.000  C
  H31      1.0000 0.35603  0.65932  0.41846  Biso   1.000  H
  C50      1.0000 0.33991  0.58471  0.33920  Biso   1.000  C
  H32      1.0000 0.37679  0.56442  0.35550  Biso   1.000  H
  Cd2      1.0000 0.29510  0.45069  0.27081  Biso   1.000  Cd
  N7       1.0000 0.27290  0.34918  0.29350  Biso   1.000  N
  N8       1.0000 0.19801  0.05700  0.46910  Biso   1.000  N
  C51      1.0000 0.31610  0.31060  0.32620  Biso   1.000  C
  H33      1.0000 0.35753  0.32376  0.32684  Biso   1.000  H
  C52      1.0000 0.30230  0.25330  0.35850  Biso   1.000  C
  H34      1.0000 0.33412  0.22757  0.38068  Biso   1.000  H
  C53      1.0000 0.24230  0.23270  0.35890  Biso   1.000  C
  C54      1.0000 0.19860  0.27248  0.32170  Biso   1.000  C
  H35      1.0000 0.15694  0.26005  0.31782  Biso   1.000  H
  C55      1.0000 0.21560  0.32899  0.29110  Biso   1.000  C
  H36      1.0000 0.18489  0.35517  0.26698  Biso   1.000  H
  C56      1.0000 0.24927  0.08699  0.49300  Biso   1.000  C
  H37      1.0000 0.27611  0.06799  0.53520  Biso   1.000  H
  C57      1.0000 0.26502  0.14361  0.45970  Biso   1.000  C
  H38      1.0000 0.30178  0.16312  0.47846  Biso   1.000  H
  C58      1.0000 0.22540  0.17212  0.39700  Biso   1.000  C
  C59      1.0000 0.17199  0.14150  0.37320  Biso   1.000  C
  H39      1.0000 0.14397  0.15932  0.33154  Biso   1.000  H
  C60      1.0000 0.16009  0.08471  0.41080  Biso   1.000  C
  H40      1.0000 0.12321  0.06442  0.39450  Biso   1.000  H
  O17      1.0000 0.79429  0.54791  0.67255  Biso   1.000  O
  O18      1.0000 0.70261  0.53995  0.60970  Biso   1.000  O
  O19      1.0000 0.86210  0.63702  0.49980  Biso   1.000  O
  O20      1.0000 0.84795  0.43477  0.56320  Biso   1.000  O
  O21      1.0000 0.18269  0.62040  0.52610  Biso   1.000  O
  O22      1.0000 0.17128  0.41339  0.55250  Biso   1.000  O
  O23      1.0000 0.22023  0.47595  0.38450  Biso   1.000  O
  O24      1.0000 0.31353  0.45749  0.43660  Biso   1.000  O
  N9       1.0000 0.85526  0.53298  0.51500  Biso   1.000  N
  N10      1.0000 0.17697  0.51708  0.54320  Biso   1.000  N
  C61      1.0000 0.76030  0.54146  0.60470  Biso   1.000  C
  C62      1.0000 0.78770  0.53840  0.51000  Biso   1.000  C
  H41      1.0000 0.77888  0.57863  0.48040  Biso   1.000  H
  C63      1.0000 0.75770  0.48880  0.44970  Biso   1.000  C
  H42      1.0000 0.71327  0.49477  0.44907  Biso   1.000  H
  H43      1.0000 0.77369  0.49212  0.38767  Biso   1.000  H
  H44      1.0000 0.76726  0.44820  0.47417  Biso   1.000  H
  C64      1.0000 0.88800  0.58850  0.51230  Biso   1.000  C
  C65      1.0000 0.88080  0.47700  0.54310  Biso   1.000  C
  C66      1.0000 0.94850  0.47328  0.54410  Biso   1.000  C
  C67      1.0000 0.97700  0.41740  0.55480  Biso   1.000  C
  H45      1.0000 0.95339  0.38110  0.56051  Biso   1.000  H
  C68      1.0000 0.04130  0.41458  0.55730  Biso   1.000  C
  H46      1.0000 0.06088  0.37612  0.56530  Biso   1.000  H
  C69      1.0000 0.07617  0.46641  0.54820  Biso   1.000  C
  C70      1.0000 0.04818  0.52392  0.53850  Biso   1.000  C
  C71      1.0000 0.98357  0.52740  0.53410  Biso   1.000  C
  C72      1.0000 0.95560  0.58456  0.52130  Biso   1.000  C
  C73      1.0000 0.99070  0.63700  0.51500  Biso   1.000  C
  H47      1.0000 0.97134  0.67558  0.50671  Biso   1.000  H
  C74      1.0000 0.05430  0.63357  0.52080  Biso   1.000  C
  H48      1.0000 0.07806  0.66993  0.51725  Biso   1.000  H
  C75      1.0000 0.08298  0.57781  0.53160  Biso   1.000  C
  C76      1.0000 0.15130  0.57530  0.53360  Biso   1.000  C
  C77      1.0000 0.14440  0.46240  0.54820  Biso   1.000  C
  C78      1.0000 0.24530  0.51190  0.53340  Biso   1.000  C
  H49      1.0000 0.26043  0.55458  0.52325  Biso   1.000  H
  C79      1.0000 0.27630  0.48990  0.61890  Biso   1.000  C
  H50      1.0000 0.27573  0.52258  0.66453  Biso   1.000  H
  H51      1.0000 0.31877  0.47875  0.60526  Biso   1.000  H
  H52      1.0000 0.25454  0.45401  0.64255  Biso   1.000  H
  C80      1.0000 0.25910  0.47694  0.44590  Biso   1.000  C
  O25      1.0000 0.70571  0.04791  0.07745  Biso   1.000  O
  O26      1.0000 0.79739  0.03995  0.14030  Biso   1.000  O
  O27      1.0000 0.63790  0.13702  0.25020  Biso   1.000  O
  O28      1.0000 0.65205  0.93477  0.18680  Biso   1.000  O
  O29      1.0000 0.31731  0.12040  0.22390  Biso   1.000  O
  O30      1.0000 0.32872  0.91339  0.19750  Biso   1.000  O
  O31      1.0000 0.27977  0.97595  0.36550  Biso   1.000  O
  O32      1.0000 0.18647  0.95749  0.31340  Biso   1.000  O
  N11      1.0000 0.64474  0.03298  0.23500  Biso   1.000  N
  N12      1.0000 0.32303  0.01708  0.20680  Biso   1.000  N
  C81      1.0000 0.73970  0.04146  0.14530  Biso   1.000  C
  C82      1.0000 0.71230  0.03840  0.24000  Biso   1.000  C
  H53      1.0000 0.72112  0.07863  0.26960  Biso   1.000  H
  C83      1.0000 0.74230  0.98880  0.30030  Biso   1.000  C
  H54      1.0000 0.78673  0.99477  0.30093  Biso   1.000  H
  H55      1.0000 0.72631  0.99212  0.36233  Biso   1.000  H
  H56      1.0000 0.73274  0.94820  0.27583  Biso   1.000  H
  C84      1.0000 0.61200  0.08850  0.23770  Biso   1.000  C
  C85      1.0000 0.61920  0.97700  0.20690  Biso   1.000  C
  C86      1.0000 0.55150  0.97328  0.20590  Biso   1.000  C
  C87      1.0000 0.52300  0.91740  0.19520  Biso   1.000  C
  H57      1.0000 0.54661  0.88110  0.18949  Biso   1.000  H
  C88      1.0000 0.45870  0.91458  0.19270  Biso   1.000  C
  H58      1.0000 0.43912  0.87612  0.18470  Biso   1.000  H
  C89      1.0000 0.42383  0.96641  0.20180  Biso   1.000  C
  C90      1.0000 0.45182  0.02392  0.21150  Biso   1.000  C
  C91      1.0000 0.51643  0.02740  0.21590  Biso   1.000  C
  C92      1.0000 0.54440  0.08456  0.22870  Biso   1.000  C
  C93      1.0000 0.50930  0.13700  0.23500  Biso   1.000  C
  H59      1.0000 0.52866  0.17558  0.24329  Biso   1.000  H
  C94      1.0000 0.44570  0.13357  0.22920  Biso   1.000  C
  H60      1.0000 0.42194  0.16993  0.23275  Biso   1.000  H
  C95      1.0000 0.41702  0.07781  0.21840  Biso   1.000  C
  C96      1.0000 0.34870  0.07530  0.21640  Biso   1.000  C
  C97      1.0000 0.35560  0.96240  0.20180  Biso   1.000  C
  C98      1.0000 0.25470  0.01190  0.21660  Biso   1.000  C
  H61      1.0000 0.23957  0.05458  0.22675  Biso   1.000  H
  C99      1.0000 0.22370  0.98990  0.13110  Biso   1.000  C
  H62      1.0000 0.22427  0.02258  0.08547  Biso   1.000  H
  H63      1.0000 0.18123  0.97875  0.14474  Biso   1.000  H
  H64      1.0000 0.24546  0.95401  0.10745  Biso   1.000  H
  C100     1.0000 0.24090  0.97694  0.30410  Biso   1.000  C
  Cd3      1.0000 0.79510  0.04931  0.97919  Biso   1.000  Cd
  N13      1.0000 0.77290  0.15082  0.95650  Biso   1.000  N
  N14      1.0000 0.69801  0.44300  0.78090  Biso   1.000  N
  C101     1.0000 0.81610  0.18940  0.92380  Biso   1.000  C
  H65      1.0000 0.85753  0.17624  0.92316  Biso   1.000  H
  C102     1.0000 0.80230  0.24670  0.89150  Biso   1.000  C
  H66      1.0000 0.83412  0.27243  0.86932  Biso   1.000  H
  C103     1.0000 0.74230  0.26730  0.89110  Biso   1.000  C
  C104     1.0000 0.69860  0.22752  0.92830  Biso   1.000  C
  H67      1.0000 0.65694  0.23995  0.93218  Biso   1.000  H
  C105     1.0000 0.71560  0.17101  0.95890  Biso   1.000  C
  H68      1.0000 0.68489  0.14483  0.98302  Biso   1.000  H
  C106     1.0000 0.74927  0.41301  0.75700  Biso   1.000  C
  H69      1.0000 0.77611  0.43201  0.71480  Biso   1.000  H
  C107     1.0000 0.76502  0.35639  0.79030  Biso   1.000  C
  H70      1.0000 0.80178  0.33688  0.77154  Biso   1.000  H
  C108     1.0000 0.72540  0.32788  0.85300  Biso   1.000  C
  C109     1.0000 0.67199  0.35850  0.87680  Biso   1.000  C
  H71      1.0000 0.64397  0.34068  0.91846  Biso   1.000  H
  C110     1.0000 0.66009  0.41529  0.83920  Biso   1.000  C
  H72      1.0000 0.62321  0.43558  0.85550  Biso   1.000  H
  Cd4      1.0000 0.70490  0.54931  0.77081  Biso   1.000  Cd
  N15      1.0000 0.72710  0.65082  0.79350  Biso   1.000  N
  N16      1.0000 0.80199  0.94300  0.96910  Biso   1.000  N
  C111     1.0000 0.68390  0.68940  0.82620  Biso   1.000  C
  H73      1.0000 0.64247  0.67624  0.82684  Biso   1.000  H
  C112     1.0000 0.69770  0.74670  0.85850  Biso   1.000  C
  H74      1.0000 0.66588  0.77243  0.88068  Biso   1.000  H
  C113     1.0000 0.75770  0.76730  0.85890  Biso   1.000  C
  C114     1.0000 0.80140  0.72752  0.82170  Biso   1.000  C
  H75      1.0000 0.84306  0.73995  0.81782  Biso   1.000  H
  C115     1.0000 0.78440  0.67101  0.79110  Biso   1.000  C
  H76      1.0000 0.81511  0.64483  0.76698  Biso   1.000  H
  C116     1.0000 0.75073  0.91301  0.99300  Biso   1.000  C
  H77      1.0000 0.72389  0.93201  0.03520  Biso   1.000  H
  C117     1.0000 0.73498  0.85639  0.95970  Biso   1.000  C
  H78      1.0000 0.69822  0.83688  0.97846  Biso   1.000  H
  C118     1.0000 0.77460  0.82788  0.89700  Biso   1.000  C
  C119     1.0000 0.82801  0.85850  0.87320  Biso   1.000  C
  H79      1.0000 0.85603  0.84068  0.83154  Biso   1.000  H
  C120     1.0000 0.83991  0.91529  0.91080  Biso   1.000  C
  H80      1.0000 0.87679  0.93558  0.89450  Biso   1.000  H
  O33      1.0000 0.04791  0.70571  0.92255  Biso   1.000  O
  O34      1.0000 0.03995  0.79739  0.85970  Biso   1.000  O
  O35      1.0000 0.13702  0.63790  0.74980  Biso   1.000  O
  O36      1.0000 0.93477  0.65205  0.81320  Biso   1.000  O
  O37      1.0000 0.12040  0.31731  0.77610  Biso   1.000  O
  O38      1.0000 0.91339  0.32872  0.80250  Biso   1.000  O
  O39      1.0000 0.97595  0.27977  0.63450  Biso   1.000  O
  O40      1.0000 0.95749  0.18647  0.68660  Biso   1.000  O
  N17      1.0000 0.03298  0.64474  0.76500  Biso   1.000  N
  N18      1.0000 0.01708  0.32303  0.79320  Biso   1.000  N
  C121     1.0000 0.04146  0.73970  0.85470  Biso   1.000  C
  C122     1.0000 0.03840  0.71230  0.76000  Biso   1.000  C
  H81      1.0000 0.07863  0.72112  0.73040  Biso   1.000  H
  C123     1.0000 0.98880  0.74230  0.69970  Biso   1.000  C
  H82      1.0000 0.99477  0.78673  0.69907  Biso   1.000  H
  H83      1.0000 0.99212  0.72631  0.63767  Biso   1.000  H
  H84      1.0000 0.94820  0.73274  0.72417  Biso   1.000  H
  C124     1.0000 0.08850  0.61200  0.76230  Biso   1.000  C
  C125     1.0000 0.97700  0.61920  0.79310  Biso   1.000  C
  C126     1.0000 0.97328  0.55150  0.79410  Biso   1.000  C
  C127     1.0000 0.91740  0.52300  0.80480  Biso   1.000  C
  H85      1.0000 0.88110  0.54661  0.81051  Biso   1.000  H
  C128     1.0000 0.91458  0.45870  0.80730  Biso   1.000  C
  H86      1.0000 0.87612  0.43912  0.81530  Biso   1.000  H
  C129     1.0000 0.96641  0.42383  0.79820  Biso   1.000  C
  C130     1.0000 0.02392  0.45182  0.78850  Biso   1.000  C
  C131     1.0000 0.02740  0.51643  0.78410  Biso   1.000  C
  C132     1.0000 0.08456  0.54440  0.77130  Biso   1.000  C
  C133     1.0000 0.13700  0.50930  0.76500  Biso   1.000  C
  H87      1.0000 0.17558  0.52866  0.75671  Biso   1.000  H
  C134     1.0000 0.13357  0.44570  0.77080  Biso   1.000  C
  H88      1.0000 0.16993  0.42194  0.76725  Biso   1.000  H
  C135     1.0000 0.07781  0.41702  0.78160  Biso   1.000  C
  C136     1.0000 0.07530  0.34870  0.78360  Biso   1.000  C
  C137     1.0000 0.96240  0.35560  0.79820  Biso   1.000  C
  C138     1.0000 0.01190  0.25470  0.78340  Biso   1.000  C
  H89      1.0000 0.05458  0.23957  0.77325  Biso   1.000  H
  C139     1.0000 0.98990  0.22370  0.86890  Biso   1.000  C
  H90      1.0000 0.02258  0.22427  0.91453  Biso   1.000  H
  H91      1.0000 0.97875  0.18123  0.85526  Biso   1.000  H
  H92      1.0000 0.95401  0.24546  0.89255  Biso   1.000  H
  C140     1.0000 0.97694  0.24090  0.69590  Biso   1.000  C
  O41      1.0000 0.54791  0.79429  0.32745  Biso   1.000  O
  O42      1.0000 0.53995  0.70261  0.39030  Biso   1.000  O
  O43      1.0000 0.63702  0.86210  0.50020  Biso   1.000  O
  O44      1.0000 0.43477  0.84795  0.43680  Biso   1.000  O
  O45      1.0000 0.62040  0.18269  0.47390  Biso   1.000  O
  O46      1.0000 0.41339  0.17128  0.44750  Biso   1.000  O
  O47      1.0000 0.47595  0.22023  0.61550  Biso   1.000  O
  O48      1.0000 0.45749  0.31353  0.56340  Biso   1.000  O
  N19      1.0000 0.53298  0.85526  0.48500  Biso   1.000  N
  N20      1.0000 0.51708  0.17697  0.45680  Biso   1.000  N
  C141     1.0000 0.54146  0.76030  0.39530  Biso   1.000  C
  C142     1.0000 0.53840  0.78770  0.49000  Biso   1.000  C
  H93      1.0000 0.57863  0.77888  0.51960  Biso   1.000  H
  C143     1.0000 0.48880  0.75770  0.55030  Biso   1.000  C
  H94      1.0000 0.49477  0.71327  0.55093  Biso   1.000  H
  H95      1.0000 0.49212  0.77369  0.61233  Biso   1.000  H
  H96      1.0000 0.44820  0.76726  0.52583  Biso   1.000  H
  C144     1.0000 0.58850  0.88800  0.48770  Biso   1.000  C
  C145     1.0000 0.47700  0.88080  0.45690  Biso   1.000  C
  C146     1.0000 0.47328  0.94850  0.45590  Biso   1.000  C
  C147     1.0000 0.41740  0.97700  0.44520  Biso   1.000  C
  H97      1.0000 0.38110  0.95339  0.43949  Biso   1.000  H
  C148     1.0000 0.41458  0.04130  0.44270  Biso   1.000  C
  H98      1.0000 0.37612  0.06088  0.43470  Biso   1.000  H
  C149     1.0000 0.46641  0.07617  0.45180  Biso   1.000  C
  C150     1.0000 0.52392  0.04818  0.46150  Biso   1.000  C
  C151     1.0000 0.52740  0.98357  0.46590  Biso   1.000  C
  C152     1.0000 0.58456  0.95560  0.47870  Biso   1.000  C
  C153     1.0000 0.63700  0.99070  0.48500  Biso   1.000  C
  H99      1.0000 0.67558  0.97134  0.49329  Biso   1.000  H
  C154     1.0000 0.63357  0.05430  0.47920  Biso   1.000  C
  H100     1.0000 0.66993  0.07806  0.48275  Biso   1.000  H
  C155     1.0000 0.57781  0.08298  0.46840  Biso   1.000  C
  C156     1.0000 0.57530  0.15130  0.46640  Biso   1.000  C
  C157     1.0000 0.46240  0.14440  0.45180  Biso   1.000  C
  C158     1.0000 0.51190  0.24530  0.46660  Biso   1.000  C
  H101     1.0000 0.55458  0.26043  0.47675  Biso   1.000  H
  C159     1.0000 0.48990  0.27630  0.38110  Biso   1.000  C
  H102     1.0000 0.52258  0.27573  0.33547  Biso   1.000  H
  H103     1.0000 0.47875  0.31877  0.39474  Biso   1.000  H
  H104     1.0000 0.45401  0.25454  0.35745  Biso   1.000  H
  C160     1.0000 0.47694  0.25910  0.55410  Biso   1.000  C
  Cd5      1.0000 0.54931  0.70490  0.22919  Biso   1.000  Cd
  N21      1.0000 0.65082  0.72710  0.20650  Biso   1.000  N
  N22      1.0000 0.94300  0.80199  0.03090  Biso   1.000  N
  C161     1.0000 0.68940  0.68390  0.17380  Biso   1.000  C
  H105     1.0000 0.67624  0.64247  0.17316  Biso   1.000  H
  C162     1.0000 0.74670  0.69770  0.14150  Biso   1.000  C
  H106     1.0000 0.77243  0.66588  0.11932  Biso   1.000  H
  C163     1.0000 0.76730  0.75770  0.14110  Biso   1.000  C
  C164     1.0000 0.72752  0.80140  0.17830  Biso   1.000  C
  H107     1.0000 0.73995  0.84306  0.18218  Biso   1.000  H
  C165     1.0000 0.67101  0.78440  0.20890  Biso   1.000  C
  H108     1.0000 0.64483  0.81511  0.23302  Biso   1.000  H
  C166     1.0000 0.91301  0.75073  0.00700  Biso   1.000  C
  H109     1.0000 0.93201  0.72389  0.96480  Biso   1.000  H
  C167     1.0000 0.85639  0.73498  0.04030  Biso   1.000  C
  H110     1.0000 0.83688  0.69822  0.02154  Biso   1.000  H
  C168     1.0000 0.82788  0.77460  0.10300  Biso   1.000  C
  C169     1.0000 0.85850  0.82801  0.12680  Biso   1.000  C
  H111     1.0000 0.84068  0.85603  0.16846  Biso   1.000  H
  C170     1.0000 0.91529  0.83991  0.08920  Biso   1.000  C
  H112     1.0000 0.93558  0.87679  0.10550  Biso   1.000  H
  Cd6      1.0000 0.04931  0.79510  0.02081  Biso   1.000  Cd
  N23      1.0000 0.15082  0.77290  0.04350  Biso   1.000  N
  N24      1.0000 0.44300  0.69801  0.21910  Biso   1.000  N
  C171     1.0000 0.18940  0.81610  0.07620  Biso   1.000  C
  H113     1.0000 0.17624  0.85753  0.07684  Biso   1.000  H
  C172     1.0000 0.24670  0.80230  0.10850  Biso   1.000  C
  H114     1.0000 0.27243  0.83412  0.13068  Biso   1.000  H
  C173     1.0000 0.26730  0.74230  0.10890  Biso   1.000  C
  C174     1.0000 0.22752  0.69860  0.07170  Biso   1.000  C
  H115     1.0000 0.23995  0.65694  0.06782  Biso   1.000  H
  C175     1.0000 0.17101  0.71560  0.04110  Biso   1.000  C
  H116     1.0000 0.14483  0.68489  0.01698  Biso   1.000  H
  C176     1.0000 0.41301  0.74927  0.24300  Biso   1.000  C
  H117     1.0000 0.43201  0.77611  0.28520  Biso   1.000  H
  C177     1.0000 0.35639  0.76502  0.20970  Biso   1.000  C
  H118     1.0000 0.33688  0.80178  0.22846  Biso   1.000  H
  C178     1.0000 0.32788  0.72540  0.14700  Biso   1.000  C
  C179     1.0000 0.35850  0.67199  0.12320  Biso   1.000  C
  H119     1.0000 0.34068  0.64397  0.08154  Biso   1.000  H
  C180     1.0000 0.41529  0.66009  0.16080  Biso   1.000  C
  H120     1.0000 0.43558  0.62321  0.14450  Biso   1.000  H
  O49      1.0000 0.95209  0.29429  0.42255  Biso   1.000  O
  O50      1.0000 0.96005  0.20261  0.35970  Biso   1.000  O
  O51      1.0000 0.86298  0.36210  0.24980  Biso   1.000  O
  O52      1.0000 0.06523  0.34795  0.31320  Biso   1.000  O
  O53      1.0000 0.87960  0.68269  0.27610  Biso   1.000  O
  O54      1.0000 0.08661  0.67128  0.30250  Biso   1.000  O
  O55      1.0000 0.02405  0.72023  0.13450  Biso   1.000  O
  O56      1.0000 0.04251  0.81353  0.18660  Biso   1.000  O
  N25      1.0000 0.96702  0.35526  0.26500  Biso   1.000  N
  N26      1.0000 0.98292  0.67697  0.29320  Biso   1.000  N
  C181     1.0000 0.95854  0.26030  0.35470  Biso   1.000  C
  C182     1.0000 0.96160  0.28770  0.26000  Biso   1.000  C
  H121     1.0000 0.92137  0.27888  0.23040  Biso   1.000  H
  C183     1.0000 0.01120  0.25770  0.19970  Biso   1.000  C
  H122     1.0000 0.00523  0.21327  0.19907  Biso   1.000  H
  H123     1.0000 0.00788  0.27369  0.13767  Biso   1.000  H
  H124     1.0000 0.05180  0.26726  0.22417  Biso   1.000  H
  C184     1.0000 0.91150  0.38800  0.26230  Biso   1.000  C
  C185     1.0000 0.02300  0.38080  0.29310  Biso   1.000  C
  C186     1.0000 0.02672  0.44850  0.29410  Biso   1.000  C
  C187     1.0000 0.08260  0.47700  0.30480  Biso   1.000  C
  H125     1.0000 0.11890  0.45339  0.31051  Biso   1.000  H
  C188     1.0000 0.08542  0.54130  0.30730  Biso   1.000  C
  H126     1.0000 0.12388  0.56088  0.31530  Biso   1.000  H
  C189     1.0000 0.03359  0.57617  0.29820  Biso   1.000  C
  C190     1.0000 0.97608  0.54818  0.28850  Biso   1.000  C
  C191     1.0000 0.97260  0.48357  0.28410  Biso   1.000  C
  C192     1.0000 0.91544  0.45560  0.27130  Biso   1.000  C
  C193     1.0000 0.86300  0.49070  0.26500  Biso   1.000  C
  H127     1.0000 0.82442  0.47134  0.25671  Biso   1.000  H
  C194     1.0000 0.86643  0.55430  0.27080  Biso   1.000  C
  H128     1.0000 0.83007  0.57806  0.26725  Biso   1.000  H
  C195     1.0000 0.92219  0.58298  0.28160  Biso   1.000  C
  C196     1.0000 0.92470  0.65130  0.28360  Biso   1.000  C
  C197     1.0000 0.03760  0.64440  0.29820  Biso   1.000  C
  C198     1.0000 0.98810  0.74530  0.28340  Biso   1.000  C
  H129     1.0000 0.94542  0.76043  0.27325  Biso   1.000  H
  C199     1.0000 0.01010  0.77630  0.36890  Biso   1.000  C
  H130     1.0000 0.97742  0.77573  0.41453  Biso   1.000  H
  H131     1.0000 0.02125  0.81877  0.35526  Biso   1.000  H
  H132     1.0000 0.04599  0.75454  0.39255  Biso   1.000  H
  C200     1.0000 0.02306  0.75910  0.19590  Biso   1.000  C
  O57      1.0000 0.45209  0.20571  0.82745  Biso   1.000  O
  O58      1.0000 0.46005  0.29739  0.89030  Biso   1.000  O
  O59      1.0000 0.36298  0.13790  0.00020  Biso   1.000  O
  O60      1.0000 0.56523  0.15205  0.93680  Biso   1.000  O
  O61      1.0000 0.37960  0.81731  0.97390  Biso   1.000  O
  O62      1.0000 0.58661  0.82872  0.94750  Biso   1.000  O
  O63      1.0000 0.52405  0.77977  0.11550  Biso   1.000  O
  O64      1.0000 0.54251  0.68647  0.06340  Biso   1.000  O
  N27      1.0000 0.46702  0.14474  0.98500  Biso   1.000  N
  N28      1.0000 0.48292  0.82303  0.95680  Biso   1.000  N
  C201     1.0000 0.45854  0.23970  0.89530  Biso   1.000  C
  C202     1.0000 0.46160  0.21230  0.99000  Biso   1.000  C
  H133     1.0000 0.42137  0.22112  0.01960  Biso   1.000  H
  C203     1.0000 0.51120  0.24230  0.05030  Biso   1.000  C
  H134     1.0000 0.50523  0.28673  0.05093  Biso   1.000  H
  H135     1.0000 0.50788  0.22631  0.11233  Biso   1.000  H
  H136     1.0000 0.55180  0.23274  0.02583  Biso   1.000  H
  C204     1.0000 0.41150  0.11200  0.98770  Biso   1.000  C
  C205     1.0000 0.52300  0.11920  0.95690  Biso   1.000  C
  C206     1.0000 0.52672  0.05150  0.95590  Biso   1.000  C
  C207     1.0000 0.58260  0.02300  0.94520  Biso   1.000  C
  H137     1.0000 0.61890  0.04661  0.93949  Biso   1.000  H
  C208     1.0000 0.58542  0.95870  0.94270  Biso   1.000  C
  H138     1.0000 0.62388  0.93912  0.93470  Biso   1.000  H
  C209     1.0000 0.53359  0.92383  0.95180  Biso   1.000  C
  C210     1.0000 0.47608  0.95182  0.96150  Biso   1.000  C
  C211     1.0000 0.47260  0.01643  0.96590  Biso   1.000  C
  C212     1.0000 0.41544  0.04440  0.97870  Biso   1.000  C
  C213     1.0000 0.36300  0.00930  0.98500  Biso   1.000  C
  H139     1.0000 0.32442  0.02866  0.99329  Biso   1.000  H
  C214     1.0000 0.36643  0.94570  0.97920  Biso   1.000  C
  H140     1.0000 0.33007  0.92194  0.98275  Biso   1.000  H
  C215     1.0000 0.42219  0.91702  0.96840  Biso   1.000  C
  C216     1.0000 0.42470  0.84870  0.96640  Biso   1.000  C
  C217     1.0000 0.53760  0.85560  0.95180  Biso   1.000  C
  C218     1.0000 0.48810  0.75470  0.96660  Biso   1.000  C
  H141     1.0000 0.44542  0.73957  0.97675  Biso   1.000  H
  C219     1.0000 0.51010  0.72370  0.88110  Biso   1.000  C
  H142     1.0000 0.47742  0.72427  0.83547  Biso   1.000  H
  H143     1.0000 0.52125  0.68123  0.89474  Biso   1.000  H
  H144     1.0000 0.54599  0.74546  0.85745  Biso   1.000  H
  C220     1.0000 0.52306  0.74090  0.05410  Biso   1.000  C
  Cd7      1.0000 0.45069  0.29510  0.72919  Biso   1.000  Cd
  N29      1.0000 0.34918  0.27290  0.70650  Biso   1.000  N
  N30      1.0000 0.05700  0.19801  0.53090  Biso   1.000  N
  C221     1.0000 0.31060  0.31610  0.67380  Biso   1.000  C
  H145     1.0000 0.32376  0.35753  0.67316  Biso   1.000  H
  C222     1.0000 0.25330  0.30230  0.64150  Biso   1.000  C
  H146     1.0000 0.22757  0.33412  0.61932  Biso   1.000  H
  C223     1.0000 0.23270  0.24230  0.64110  Biso   1.000  C
  C224     1.0000 0.27248  0.19860  0.67830  Biso   1.000  C
  H147     1.0000 0.26005  0.15694  0.68218  Biso   1.000  H
  C225     1.0000 0.32899  0.21560  0.70890  Biso   1.000  C
  H148     1.0000 0.35517  0.18489  0.73302  Biso   1.000  H
  C226     1.0000 0.08699  0.24927  0.50700  Biso   1.000  C
  H149     1.0000 0.06799  0.27611  0.46480  Biso   1.000  H
  C227     1.0000 0.14361  0.26502  0.54030  Biso   1.000  C
  H150     1.0000 0.16312  0.30178  0.52154  Biso   1.000  H
  C228     1.0000 0.17212  0.22540  0.60300  Biso   1.000  C
  C229     1.0000 0.14150  0.17199  0.62680  Biso   1.000  C
  H151     1.0000 0.15932  0.14397  0.66846  Biso   1.000  H
  C230     1.0000 0.08471  0.16009  0.58920  Biso   1.000  C
  H152     1.0000 0.06442  0.12321  0.60550  Biso   1.000  H
  Cd8      1.0000 0.95069  0.20490  0.52081  Biso   1.000  Cd
  N31      1.0000 0.84918  0.22710  0.54350  Biso   1.000  N
  N32      1.0000 0.55700  0.30199  0.71910  Biso   1.000  N
  C231     1.0000 0.81060  0.18390  0.57620  Biso   1.000  C
  H153     1.0000 0.82376  0.14247  0.57684  Biso   1.000  H
  C232     1.0000 0.75330  0.19770  0.60850  Biso   1.000  C
  H154     1.0000 0.72757  0.16588  0.63068  Biso   1.000  H
  C233     1.0000 0.73270  0.25770  0.60890  Biso   1.000  C
  C234     1.0000 0.77248  0.30140  0.57170  Biso   1.000  C
  H155     1.0000 0.76005  0.34306  0.56782  Biso   1.000  H
  C235     1.0000 0.82899  0.28440  0.54110  Biso   1.000  C
  H156     1.0000 0.85517  0.31511  0.51698  Biso   1.000  H
  C236     1.0000 0.58699  0.25073  0.74300  Biso   1.000  C
  H157     1.0000 0.56799  0.22389  0.78520  Biso   1.000  H
  C237     1.0000 0.64361  0.23498  0.70970  Biso   1.000  C
  H158     1.0000 0.66312  0.19822  0.72846  Biso   1.000  H
  C238     1.0000 0.67212  0.27460  0.64700  Biso   1.000  C
  C239     1.0000 0.64150  0.32801  0.62320  Biso   1.000  C
  H159     1.0000 0.65932  0.35603  0.58154  Biso   1.000  H
  C240     1.0000 0.58471  0.33991  0.66080  Biso   1.000  C
  H160     1.0000 0.56442  0.37679  0.64450  Biso   1.000  H
