data_WARWOC_clean
_audit_creation_date              2014-07-02
_audit_creation_method            'Materials Studio'
_symmetry_space_group_name_H-M    'P1'
_symmetry_Int_Tables_number       1
_symmetry_cell_setting            triclinic
loop_
_symmetry_equiv_pos_as_xyz
  x,y,z
_cell_length_a                    7.4296
_cell_length_b                    11.6270
_cell_length_c                    14.0761
_cell_angle_alpha                 114.3940
_cell_angle_beta                  98.7723
_cell_angle_gamma                 90.0000
loop_
_atom_site_label
_atom_site_type_symbol
_atom_site_fract_x
_atom_site_fract_y
_atom_site_fract_z
_atom_site_U_iso_or_equiv
_atom_site_adp_type
_atom_site_occupancy
Sr1    Sr    0.43847   0.15841   0.88946   0.01267  Uiso   1.00
Sr2    Sr    0.06153   0.26895   0.11054   0.01267  Uiso   1.00
Sr3    Sr    0.56153   0.84159   0.11054   0.01267  Uiso   1.00
Sr4    Sr    0.93847   0.73105   0.88946   0.01267  Uiso   1.00
H1     H     0.70400   0.11010   0.04020   0.01267  Uiso   1.00
H2     H     0.92430   0.28990   0.63040   0.01267  Uiso   1.00
H3     H     0.95530   0.21920   0.45480   0.01267  Uiso   1.00
H4     H     0.31700   0.10970   0.60960   0.01267  Uiso   1.00
H5     H     0.65100   0.96320   0.56580   0.01267  Uiso   1.00
H6     H     0.10310   0.85020   0.72300   0.01267  Uiso   1.00
H7     H     0.93670   0.91430   0.68700   0.01267  Uiso   1.00
H8     H     0.79600   0.06990   0.95980   0.01267  Uiso   1.00
H9     H     0.57570   0.65950   0.36960   0.01267  Uiso   1.00
H10    H     0.54470   0.76440   0.54520   0.01267  Uiso   1.00
H11    H     0.18300   0.50010   0.39040   0.01267  Uiso   1.00
H12    H     0.84900   0.39740   0.43420   0.01267  Uiso   1.00
H13    H     0.39690   0.12720   0.27700   0.01267  Uiso   1.00
H14    H     0.56330   0.22730   0.31300   0.01267  Uiso   1.00
H15    H     0.29600   0.88990   0.95980   0.01267  Uiso   1.00
H16    H     0.07570   0.71010   0.36960   0.01267  Uiso   1.00
H17    H     0.04470   0.78080   0.54520   0.01267  Uiso   1.00
H18    H     0.68300   0.89030   0.39040   0.01267  Uiso   1.00
H19    H     0.34900   0.03680   0.43420   0.01267  Uiso   1.00
H20    H     0.89690   0.14980   0.27700   0.01267  Uiso   1.00
H21    H     0.06330   0.08570   0.31300   0.01267  Uiso   1.00
H22    H     0.20400   0.93010   0.04020   0.01267  Uiso   1.00
H23    H     0.42430   0.34050   0.63040   0.01267  Uiso   1.00
H24    H     0.45530   0.23560   0.45480   0.01267  Uiso   1.00
H25    H     0.81700   0.49990   0.60960   0.01267  Uiso   1.00
H26    H     0.15100   0.60260   0.56580   0.01267  Uiso   1.00
H27    H     0.60310   0.87280   0.72300   0.01267  Uiso   1.00
H28    H     0.43670   0.77270   0.68700   0.01267  Uiso   1.00
C1     C     0.76050   0.18235   0.73070   0.01267  Uiso   1.00
C2     C     0.78190   0.13479   0.61658   0.01267  Uiso   1.00
C3     C     0.87410   0.21003   0.58206   0.01267  Uiso   1.00
C4     C     0.89260   0.16804   0.47688   0.01267  Uiso   1.00
C5     C     0.18290   0.95098   0.59536   0.01267  Uiso   1.00
C6     C     0.27050   0.02867   0.56174   0.01267  Uiso   1.00
C7     C     0.71160   0.01518   0.54356   0.01267  Uiso   1.00
C8     C     0.05460   0.93091   0.73242   0.01267  Uiso   1.00
C9     C     0.03040   0.00226   0.84592   0.01267  Uiso   1.00
C10    C     0.73950   0.45165   0.26930   0.01267  Uiso   1.00
C11    C     0.71810   0.51821   0.38342   0.01267  Uiso   1.00
C12    C     0.62590   0.62797   0.41794   0.01267  Uiso   1.00
C13    C     0.60740   0.69116   0.52312   0.01267  Uiso   1.00
C14    C     0.31710   0.35562   0.40464   0.01267  Uiso   1.00
C15    C     0.22950   0.46693   0.43826   0.01267  Uiso   1.00
C16    C     0.78840   0.47162   0.45644   0.01267  Uiso   1.00
C17    C     0.44540   0.19849   0.26758   0.01267  Uiso   1.00
C18    C     0.46960   0.15634   0.15408   0.01267  Uiso   1.00
C19    C     0.23950   0.81765   0.26930   0.01267  Uiso   1.00
C20    C     0.21810   0.86521   0.38342   0.01267  Uiso   1.00
C21    C     0.12590   0.78997   0.41794   0.01267  Uiso   1.00
C22    C     0.10740   0.83196   0.52312   0.01267  Uiso   1.00
C23    C     0.81710   0.04902   0.40464   0.01267  Uiso   1.00
C24    C     0.72950   0.97133   0.43826   0.01267  Uiso   1.00
C25    C     0.28840   0.98482   0.45644   0.01267  Uiso   1.00
C26    C     0.94540   0.06909   0.26758   0.01267  Uiso   1.00
C27    C     0.96960   0.99774   0.15408   0.01267  Uiso   1.00
C28    C     0.26050   0.54835   0.73070   0.01267  Uiso   1.00
C29    C     0.28190   0.48179   0.61658   0.01267  Uiso   1.00
C30    C     0.37410   0.37203   0.58206   0.01267  Uiso   1.00
C31    C     0.39260   0.30884   0.47688   0.01267  Uiso   1.00
C32    C     0.68290   0.64438   0.59536   0.01267  Uiso   1.00
C33    C     0.77050   0.53307   0.56174   0.01267  Uiso   1.00
C34    C     0.21160   0.52838   0.54356   0.01267  Uiso   1.00
C35    C     0.55460   0.80151   0.73242   0.01267  Uiso   1.00
C36    C     0.53040   0.84366   0.84592   0.01267  Uiso   1.00
O1     O     0.65240   0.12309   0.75682   0.01267  Uiso   1.00
O2     O     0.85930   0.28173   0.79354   0.01267  Uiso   1.00
O3     O     0.17490   0.00003   0.70198   0.01267  Uiso   1.00
O4     O     0.10710   0.10990   0.90282   0.01267  Uiso   1.00
O5     O     0.92460   0.94220   0.87452   0.01267  Uiso   1.00
O6     O     0.84760   0.36627   0.24318   0.01267  Uiso   1.00
O7     O     0.64070   0.48819   0.20646   0.01267  Uiso   1.00
O8     O     0.32510   0.29805   0.29802   0.01267  Uiso   1.00
O9     O     0.39290   0.20708   0.09718   0.01267  Uiso   1.00
O10    O     0.57540   0.06768   0.12548   0.01267  Uiso   1.00
O11    O     0.34760   0.87691   0.24318   0.01267  Uiso   1.00
O12    O     0.14070   0.71827   0.20646   0.01267  Uiso   1.00
O13    O     0.82510   0.99997   0.29802   0.01267  Uiso   1.00
O14    O     0.89290   0.89010   0.09718   0.01267  Uiso   1.00
O15    O     0.07540   0.05780   0.12548   0.01267  Uiso   1.00
O16    O     0.15240   0.63373   0.75682   0.01267  Uiso   1.00
O17    O     0.35930   0.51181   0.79354   0.01267  Uiso   1.00
O18    O     0.67490   0.70195   0.70198   0.01267  Uiso   1.00
O19    O     0.60710   0.79292   0.90282   0.01267  Uiso   1.00
O20    O     0.42460   0.93232   0.87452   0.01267  Uiso   1.00
O21    O     0.75000   0.13460  -0.00000   0.01267  Uiso   1.00
O22    O     0.25000   0.86540  -0.00000   0.01267  Uiso   1.00
