data_image0
_cell_length_a       29.929
_cell_length_b       15.4982
_cell_length_c       9.6833
_cell_angle_alpha    90
_cell_angle_beta     90
_cell_angle_gamma    90

_symmetry_space_group_name_H-M    "P 1"
_symmetry_int_tables_number       1

loop_
  _symmetry_equiv_pos_as_xyz
  'x, y, z'

loop_
  _atom_site_label
  _atom_site_occupancy
  _atom_site_fract_x
  _atom_site_fract_y
  _atom_site_fract_z
  _atom_site_thermal_displace_type
  _atom_site_B_iso_or_equiv
  _atom_site_type_symbol
  N1       1.0000 0.68730  0.18350  0.85460  Biso   1.000  N
  N2       1.0000 0.77542  0.25270  0.14190  Biso   1.000  N
  C1       1.0000 0.67720  0.23840  0.73510  Biso   1.000  C
  C2       1.0000 0.66710  0.10650  0.84150  Biso   1.000  C
  H1       1.0000 0.69330  0.28930  0.72490  Biso   1.000  H
  C3       1.0000 0.64560  0.21950  0.63770  Biso   1.000  C
  C4       1.0000 0.63510  0.08830  0.75300  Biso   1.000  C
  H2       1.0000 0.67640  0.06250  0.89990  Biso   1.000  H
  C5       1.0000 0.61990  0.14230  0.66160  Biso   1.000  C
  H3       1.0000 0.64100  0.25430  0.56080  Biso   1.000  H
  H4       1.0000 0.62260  0.03340  0.75600  Biso   1.000  H
  C6       1.0000 0.58330  0.12500  0.56690  Biso   1.000  C
  S1       1.0000 0.53108  0.10103  0.65198  Biso   1.000  S
  S2       1.0000 0.42317  0.11959  0.65219  Biso   1.000  S
  C7       1.0000 0.37500  0.16290  0.56860  Biso   1.000  C
  C8       1.0000 0.33940  0.19000  0.66290  Biso   1.000  C
  C9       1.0000 0.29590  0.17160  0.65080  Biso   1.000  C
  C10      1.0000 0.35000  0.24820  0.78110  Biso   1.000  C
  H5       1.0000 0.28680  0.14040  0.57390  Biso   1.000  H
  C11      1.0000 0.26300  0.19660  0.74770  Biso   1.000  C
  C12      1.0000 0.31870  0.27490  0.86650  Biso   1.000  C
  H6       1.0000 0.37930  0.26600  0.79480  Biso   1.000  H
  H7       1.0000 0.23340  0.17920  0.73700  Biso   1.000  H
  H8       1.0000 0.32630  0.31400  0.93530  Biso   1.000  H
  C13      1.0000 0.64300  0.21460  0.11620  Biso   1.000  C
  H9       1.0000 0.63710  0.24480  0.03530  Biso   1.000  H
  C14      1.0000 0.61030  0.19900  0.20850  Biso   1.000  C
  H10      1.0000 0.58200  0.22210  0.19480  Biso   1.000  H
  C15      1.0000 0.66050  0.10900  0.33500  Biso   1.000  C
  H11      1.0000 0.66760  0.06750  0.40080  Biso   1.000  H
  C16      1.0000 0.69350  0.13170  0.23960  Biso   1.000  C
  H12      1.0000 0.72150  0.10640  0.24780  Biso   1.000  H
  C17      1.0000 0.31630  0.26680  0.34980  Biso   1.000  C
  H13      1.0000 0.32170  0.30130  0.42650  Biso   1.000  H
  C18      1.0000 0.28840  0.29160  0.26280  Biso   1.000  C
  H14      1.0000 0.27480  0.34460  0.27910  Biso   1.000  H
  C19      1.0000 0.29770  0.16870  0.13740  Biso   1.000  C
  H15      1.0000 0.28900  0.13240  0.06590  Biso   1.000  H
  C20      1.0000 0.32900  0.13740  0.21740  Biso   1.000  C
  H16      1.0000 0.34340  0.08560  0.19900  Biso   1.000  H
  N3       1.0000 0.31270  0.81650  0.85460  Biso   1.000  N
  N4       1.0000 0.22458  0.74730  0.14190  Biso   1.000  N
  C21      1.0000 0.32280  0.76160  0.73510  Biso   1.000  C
  C22      1.0000 0.33290  0.89350  0.84150  Biso   1.000  C
  H17      1.0000 0.30670  0.71070  0.72490  Biso   1.000  H
  C23      1.0000 0.35440  0.78050  0.63770  Biso   1.000  C
  C24      1.0000 0.36490  0.91170  0.75300  Biso   1.000  C
  H18      1.0000 0.32360  0.93750  0.89990  Biso   1.000  H
  C25      1.0000 0.38010  0.85770  0.66160  Biso   1.000  C
  H19      1.0000 0.35900  0.74570  0.56080  Biso   1.000  H
  H20      1.0000 0.37740  0.96660  0.75600  Biso   1.000  H
  C26      1.0000 0.41670  0.87500  0.56690  Biso   1.000  C
  S3       1.0000 0.46892  0.89897  0.65198  Biso   1.000  S
  S4       1.0000 0.57683  0.88041  0.65219  Biso   1.000  S
  C27      1.0000 0.62500  0.83710  0.56860  Biso   1.000  C
  C28      1.0000 0.66060  0.81000  0.66290  Biso   1.000  C
  C29      1.0000 0.70410  0.82840  0.65080  Biso   1.000  C
  C30      1.0000 0.65000  0.75180  0.78110  Biso   1.000  C
  H21      1.0000 0.71320  0.85960  0.57390  Biso   1.000  H
  C31      1.0000 0.73700  0.80340  0.74770  Biso   1.000  C
  C32      1.0000 0.68130  0.72510  0.86650  Biso   1.000  C
  H22      1.0000 0.62070  0.73400  0.79480  Biso   1.000  H
  H23      1.0000 0.76660  0.82080  0.73700  Biso   1.000  H
  H24      1.0000 0.67370  0.68600  0.93530  Biso   1.000  H
  C33      1.0000 0.35700  0.78540  0.11620  Biso   1.000  C
  H25      1.0000 0.36290  0.75520  0.03530  Biso   1.000  H
  C34      1.0000 0.38970  0.80100  0.20850  Biso   1.000  C
  H26      1.0000 0.41800  0.77790  0.19480  Biso   1.000  H
  C35      1.0000 0.33950  0.89100  0.33500  Biso   1.000  C
  H27      1.0000 0.33240  0.93250  0.40080  Biso   1.000  H
  C36      1.0000 0.30650  0.86830  0.23960  Biso   1.000  C
  H28      1.0000 0.27850  0.89360  0.24780  Biso   1.000  H
  C37      1.0000 0.68370  0.73320  0.34980  Biso   1.000  C
  H29      1.0000 0.67830  0.69870  0.42650  Biso   1.000  H
  C38      1.0000 0.71160  0.70840  0.26280  Biso   1.000  C
  H30      1.0000 0.72520  0.65540  0.27910  Biso   1.000  H
  C39      1.0000 0.70230  0.83130  0.13740  Biso   1.000  C
  H31      1.0000 0.71100  0.86760  0.06590  Biso   1.000  H
  C40      1.0000 0.67100  0.86260  0.21740  Biso   1.000  C
  H32      1.0000 0.65660  0.91440  0.19900  Biso   1.000  H
  N5       1.0000 0.81270  0.68350  0.14540  Biso   1.000  N
  N6       1.0000 0.72458  0.75270  0.85810  Biso   1.000  N
  C41      1.0000 0.82280  0.73840  0.26490  Biso   1.000  C
  C42      1.0000 0.83290  0.60650  0.15850  Biso   1.000  C
  H33      1.0000 0.80670  0.78930  0.27510  Biso   1.000  H
  C43      1.0000 0.85440  0.71950  0.36230  Biso   1.000  C
  C44      1.0000 0.86490  0.58830  0.24700  Biso   1.000  C
  H34      1.0000 0.82360  0.56250  0.10010  Biso   1.000  H
  C45      1.0000 0.88010  0.64230  0.33840  Biso   1.000  C
  H35      1.0000 0.85900  0.75430  0.43920  Biso   1.000  H
  H36      1.0000 0.87740  0.53340  0.24400  Biso   1.000  H
  C46      1.0000 0.91670  0.62500  0.43310  Biso   1.000  C
  S5       1.0000 0.96892  0.60103  0.34802  Biso   1.000  S
  S6       1.0000 0.07683  0.61959  0.34781  Biso   1.000  S
  C47      1.0000 0.12500  0.66290  0.43140  Biso   1.000  C
  C48      1.0000 0.16060  0.69000  0.33710  Biso   1.000  C
  C49      1.0000 0.20410  0.67160  0.34920  Biso   1.000  C
  C50      1.0000 0.15000  0.74820  0.21890  Biso   1.000  C
  H37      1.0000 0.21320  0.64040  0.42610  Biso   1.000  H
  C51      1.0000 0.23700  0.69660  0.25230  Biso   1.000  C
  C52      1.0000 0.18130  0.77490  0.13350  Biso   1.000  C
  H38      1.0000 0.12070  0.76600  0.20520  Biso   1.000  H
  H39      1.0000 0.26660  0.67920  0.26300  Biso   1.000  H
  H40      1.0000 0.17370  0.81400  0.06470  Biso   1.000  H
  C53      1.0000 0.85700  0.71460  0.88380  Biso   1.000  C
  H41      1.0000 0.86290  0.74480  0.96470  Biso   1.000  H
  C54      1.0000 0.88970  0.69900  0.79150  Biso   1.000  C
  H42      1.0000 0.91800  0.72210  0.80520  Biso   1.000  H
  C55      1.0000 0.83950  0.60900  0.66500  Biso   1.000  C
  H43      1.0000 0.83240  0.56750  0.59920  Biso   1.000  H
  C56      1.0000 0.80650  0.63170  0.76040  Biso   1.000  C
  H44      1.0000 0.77850  0.60640  0.75220  Biso   1.000  H
  C57      1.0000 0.18370  0.76680  0.65020  Biso   1.000  C
  H45      1.0000 0.17830  0.80130  0.57350  Biso   1.000  H
  C58      1.0000 0.21160  0.79160  0.73720  Biso   1.000  C
  H46      1.0000 0.22520  0.84460  0.72090  Biso   1.000  H
  C59      1.0000 0.20230  0.66870  0.86260  Biso   1.000  C
  H47      1.0000 0.21100  0.63240  0.93410  Biso   1.000  H
  C60      1.0000 0.17100  0.63740  0.78260  Biso   1.000  C
  H48      1.0000 0.15660  0.58560  0.80100  Biso   1.000  H
  N7       1.0000 0.18730  0.31650  0.14540  Biso   1.000  N
  N8       1.0000 0.27542  0.24730  0.85810  Biso   1.000  N
  C61      1.0000 0.17720  0.26160  0.26490  Biso   1.000  C
  C62      1.0000 0.16710  0.39350  0.15850  Biso   1.000  C
  H49      1.0000 0.19330  0.21070  0.27510  Biso   1.000  H
  C63      1.0000 0.14560  0.28050  0.36230  Biso   1.000  C
  C64      1.0000 0.13510  0.41170  0.24700  Biso   1.000  C
  H50      1.0000 0.17640  0.43750  0.10010  Biso   1.000  H
  C65      1.0000 0.11990  0.35770  0.33840  Biso   1.000  C
  H51      1.0000 0.14100  0.24570  0.43920  Biso   1.000  H
  H52      1.0000 0.12260  0.46660  0.24400  Biso   1.000  H
  C66      1.0000 0.08330  0.37500  0.43310  Biso   1.000  C
  S7       1.0000 0.03108  0.39897  0.34802  Biso   1.000  S
  S8       1.0000 0.92317  0.38041  0.34781  Biso   1.000  S
  C67      1.0000 0.87500  0.33710  0.43140  Biso   1.000  C
  C68      1.0000 0.83940  0.31000  0.33710  Biso   1.000  C
  C69      1.0000 0.79590  0.32840  0.34920  Biso   1.000  C
  C70      1.0000 0.85000  0.25180  0.21890  Biso   1.000  C
  H53      1.0000 0.78680  0.35960  0.42610  Biso   1.000  H
  C71      1.0000 0.76300  0.30340  0.25230  Biso   1.000  C
  C72      1.0000 0.81870  0.22510  0.13350  Biso   1.000  C
  H54      1.0000 0.87930  0.23400  0.20520  Biso   1.000  H
  H55      1.0000 0.73340  0.32080  0.26300  Biso   1.000  H
  H56      1.0000 0.82630  0.18600  0.06470  Biso   1.000  H
  C73      1.0000 0.14300  0.28540  0.88380  Biso   1.000  C
  H57      1.0000 0.13710  0.25520  0.96470  Biso   1.000  H
  C74      1.0000 0.11030  0.30100  0.79150  Biso   1.000  C
  H58      1.0000 0.08200  0.27790  0.80520  Biso   1.000  H
  C75      1.0000 0.16050  0.39100  0.66500  Biso   1.000  C
  H59      1.0000 0.16760  0.43250  0.59920  Biso   1.000  H
  C76      1.0000 0.19350  0.36830  0.76040  Biso   1.000  C
  H60      1.0000 0.22150  0.39360  0.75220  Biso   1.000  H
  C77      1.0000 0.81630  0.23320  0.65020  Biso   1.000  C
  H61      1.0000 0.82170  0.19870  0.57350  Biso   1.000  H
  C78      1.0000 0.78840  0.20840  0.73720  Biso   1.000  C
  H62      1.0000 0.77480  0.15540  0.72090  Biso   1.000  H
  C79      1.0000 0.79770  0.33130  0.86260  Biso   1.000  C
  H63      1.0000 0.78900  0.36760  0.93410  Biso   1.000  H
  C80      1.0000 0.82900  0.36260  0.78260  Biso   1.000  C
  H64      1.0000 0.84340  0.41440  0.80100  Biso   1.000  H
  N9       1.0000 0.31270  0.81650  0.14540  Biso   1.000  N
  N10      1.0000 0.22458  0.74730  0.85810  Biso   1.000  N
  C81      1.0000 0.32280  0.76160  0.26490  Biso   1.000  C
  C82      1.0000 0.33290  0.89350  0.15850  Biso   1.000  C
  H65      1.0000 0.30670  0.71070  0.27510  Biso   1.000  H
  C83      1.0000 0.35440  0.78050  0.36230  Biso   1.000  C
  C84      1.0000 0.36490  0.91170  0.24700  Biso   1.000  C
  H66      1.0000 0.32360  0.93750  0.10010  Biso   1.000  H
  C85      1.0000 0.38010  0.85770  0.33840  Biso   1.000  C
  H67      1.0000 0.35900  0.74570  0.43920  Biso   1.000  H
  H68      1.0000 0.37740  0.96660  0.24400  Biso   1.000  H
  C86      1.0000 0.41670  0.87500  0.43310  Biso   1.000  C
  S9       1.0000 0.46892  0.89897  0.34802  Biso   1.000  S
  S10      1.0000 0.57683  0.88041  0.34781  Biso   1.000  S
  C87      1.0000 0.62500  0.83710  0.43140  Biso   1.000  C
  C88      1.0000 0.66060  0.81000  0.33710  Biso   1.000  C
  C89      1.0000 0.70410  0.82840  0.34920  Biso   1.000  C
  C90      1.0000 0.65000  0.75180  0.21890  Biso   1.000  C
  H69      1.0000 0.71320  0.85960  0.42610  Biso   1.000  H
  C91      1.0000 0.73700  0.80340  0.25230  Biso   1.000  C
  C92      1.0000 0.68130  0.72510  0.13350  Biso   1.000  C
  H70      1.0000 0.62070  0.73400  0.20520  Biso   1.000  H
  H71      1.0000 0.76660  0.82080  0.26300  Biso   1.000  H
  H72      1.0000 0.67370  0.68600  0.06470  Biso   1.000  H
  C93      1.0000 0.35700  0.78540  0.88380  Biso   1.000  C
  H73      1.0000 0.36290  0.75520  0.96470  Biso   1.000  H
  C94      1.0000 0.38970  0.80100  0.79150  Biso   1.000  C
  H74      1.0000 0.41800  0.77790  0.80520  Biso   1.000  H
  C95      1.0000 0.33950  0.89100  0.66500  Biso   1.000  C
  H75      1.0000 0.33240  0.93250  0.59920  Biso   1.000  H
  C96      1.0000 0.30650  0.86830  0.76040  Biso   1.000  C
  H76      1.0000 0.27850  0.89360  0.75220  Biso   1.000  H
  C97      1.0000 0.68370  0.73320  0.65020  Biso   1.000  C
  H77      1.0000 0.67830  0.69870  0.57350  Biso   1.000  H
  C98      1.0000 0.71160  0.70840  0.73720  Biso   1.000  C
  H78      1.0000 0.72520  0.65540  0.72090  Biso   1.000  H
  C99      1.0000 0.70230  0.83130  0.86260  Biso   1.000  C
  H79      1.0000 0.71100  0.86760  0.93410  Biso   1.000  H
  C100     1.0000 0.67100  0.86260  0.78260  Biso   1.000  C
  H80      1.0000 0.65660  0.91440  0.80100  Biso   1.000  H
  N11      1.0000 0.68730  0.18350  0.14540  Biso   1.000  N
  N12      1.0000 0.77542  0.25270  0.85810  Biso   1.000  N
  C101     1.0000 0.67720  0.23840  0.26490  Biso   1.000  C
  C102     1.0000 0.66710  0.10650  0.15850  Biso   1.000  C
  H81      1.0000 0.69330  0.28930  0.27510  Biso   1.000  H
  C103     1.0000 0.64560  0.21950  0.36230  Biso   1.000  C
  C104     1.0000 0.63510  0.08830  0.24700  Biso   1.000  C
  H82      1.0000 0.67640  0.06250  0.10010  Biso   1.000  H
  C105     1.0000 0.61990  0.14230  0.33840  Biso   1.000  C
  H83      1.0000 0.64100  0.25430  0.43920  Biso   1.000  H
  H84      1.0000 0.62260  0.03340  0.24400  Biso   1.000  H
  C106     1.0000 0.58330  0.12500  0.43310  Biso   1.000  C
  S11      1.0000 0.53108  0.10103  0.34802  Biso   1.000  S
  S12      1.0000 0.42317  0.11959  0.34781  Biso   1.000  S
  C107     1.0000 0.37500  0.16290  0.43140  Biso   1.000  C
  C108     1.0000 0.33940  0.19000  0.33710  Biso   1.000  C
  C109     1.0000 0.29590  0.17160  0.34920  Biso   1.000  C
  C110     1.0000 0.35000  0.24820  0.21890  Biso   1.000  C
  H85      1.0000 0.28680  0.14040  0.42610  Biso   1.000  H
  C111     1.0000 0.26300  0.19660  0.25230  Biso   1.000  C
  C112     1.0000 0.31870  0.27490  0.13350  Biso   1.000  C
  H86      1.0000 0.37930  0.26600  0.20520  Biso   1.000  H
  H87      1.0000 0.23340  0.17920  0.26300  Biso   1.000  H
  H88      1.0000 0.32630  0.31400  0.06470  Biso   1.000  H
  C113     1.0000 0.64300  0.21460  0.88380  Biso   1.000  C
  H89      1.0000 0.63710  0.24480  0.96470  Biso   1.000  H
  C114     1.0000 0.61030  0.19900  0.79150  Biso   1.000  C
  H90      1.0000 0.58200  0.22210  0.80520  Biso   1.000  H
  C115     1.0000 0.66050  0.10900  0.66500  Biso   1.000  C
  H91      1.0000 0.66760  0.06750  0.59920  Biso   1.000  H
  C116     1.0000 0.69350  0.13170  0.76040  Biso   1.000  C
  H92      1.0000 0.72150  0.10640  0.75220  Biso   1.000  H
  C117     1.0000 0.31630  0.26680  0.65020  Biso   1.000  C
  H93      1.0000 0.32170  0.30130  0.57350  Biso   1.000  H
  C118     1.0000 0.28840  0.29160  0.73720  Biso   1.000  C
  H94      1.0000 0.27480  0.34460  0.72090  Biso   1.000  H
  C119     1.0000 0.29770  0.16870  0.86260  Biso   1.000  C
  H95      1.0000 0.28900  0.13240  0.93410  Biso   1.000  H
  C120     1.0000 0.32900  0.13740  0.78260  Biso   1.000  C
  H96      1.0000 0.34340  0.08560  0.80100  Biso   1.000  H
  N13      1.0000 0.18730  0.31650  0.85460  Biso   1.000  N
  N14      1.0000 0.27542  0.24730  0.14190  Biso   1.000  N
  C121     1.0000 0.17720  0.26160  0.73510  Biso   1.000  C
  C122     1.0000 0.16710  0.39350  0.84150  Biso   1.000  C
  H97      1.0000 0.19330  0.21070  0.72490  Biso   1.000  H
  C123     1.0000 0.14560  0.28050  0.63770  Biso   1.000  C
  C124     1.0000 0.13510  0.41170  0.75300  Biso   1.000  C
  H98      1.0000 0.17640  0.43750  0.89990  Biso   1.000  H
  C125     1.0000 0.11990  0.35770  0.66160  Biso   1.000  C
  H99      1.0000 0.14100  0.24570  0.56080  Biso   1.000  H
  H100     1.0000 0.12260  0.46660  0.75600  Biso   1.000  H
  C126     1.0000 0.08330  0.37500  0.56690  Biso   1.000  C
  S13      1.0000 0.03108  0.39897  0.65198  Biso   1.000  S
  S14      1.0000 0.92317  0.38041  0.65219  Biso   1.000  S
  C127     1.0000 0.87500  0.33710  0.56860  Biso   1.000  C
  C128     1.0000 0.83940  0.31000  0.66290  Biso   1.000  C
  C129     1.0000 0.79590  0.32840  0.65080  Biso   1.000  C
  C130     1.0000 0.85000  0.25180  0.78110  Biso   1.000  C
  H101     1.0000 0.78680  0.35960  0.57390  Biso   1.000  H
  C131     1.0000 0.76300  0.30340  0.74770  Biso   1.000  C
  C132     1.0000 0.81870  0.22510  0.86650  Biso   1.000  C
  H102     1.0000 0.87930  0.23400  0.79480  Biso   1.000  H
  H103     1.0000 0.73340  0.32080  0.73700  Biso   1.000  H
  H104     1.0000 0.82630  0.18600  0.93530  Biso   1.000  H
  C133     1.0000 0.14300  0.28540  0.11620  Biso   1.000  C
  H105     1.0000 0.13710  0.25520  0.03530  Biso   1.000  H
  C134     1.0000 0.11030  0.30100  0.20850  Biso   1.000  C
  H106     1.0000 0.08200  0.27790  0.19480  Biso   1.000  H
  C135     1.0000 0.16050  0.39100  0.33500  Biso   1.000  C
  H107     1.0000 0.16760  0.43250  0.40080  Biso   1.000  H
  C136     1.0000 0.19350  0.36830  0.23960  Biso   1.000  C
  H108     1.0000 0.22150  0.39360  0.24780  Biso   1.000  H
  C137     1.0000 0.81630  0.23320  0.34980  Biso   1.000  C
  H109     1.0000 0.82170  0.19870  0.42650  Biso   1.000  H
  C138     1.0000 0.78840  0.20840  0.26280  Biso   1.000  C
  H110     1.0000 0.77480  0.15540  0.27910  Biso   1.000  H
  C139     1.0000 0.79770  0.33130  0.13740  Biso   1.000  C
  H111     1.0000 0.78900  0.36760  0.06590  Biso   1.000  H
  C140     1.0000 0.82900  0.36260  0.21740  Biso   1.000  C
  H112     1.0000 0.84340  0.41440  0.19900  Biso   1.000  H
  N15      1.0000 0.81270  0.68350  0.85460  Biso   1.000  N
  N16      1.0000 0.72458  0.75270  0.14190  Biso   1.000  N
  C141     1.0000 0.82280  0.73840  0.73510  Biso   1.000  C
  C142     1.0000 0.83290  0.60650  0.84150  Biso   1.000  C
  H113     1.0000 0.80670  0.78930  0.72490  Biso   1.000  H
  C143     1.0000 0.85440  0.71950  0.63770  Biso   1.000  C
  C144     1.0000 0.86490  0.58830  0.75300  Biso   1.000  C
  H114     1.0000 0.82360  0.56250  0.89990  Biso   1.000  H
  C145     1.0000 0.88010  0.64230  0.66160  Biso   1.000  C
  H115     1.0000 0.85900  0.75430  0.56080  Biso   1.000  H
  H116     1.0000 0.87740  0.53340  0.75600  Biso   1.000  H
  C146     1.0000 0.91670  0.62500  0.56690  Biso   1.000  C
  S15      1.0000 0.96892  0.60103  0.65198  Biso   1.000  S
  S16      1.0000 0.07683  0.61959  0.65219  Biso   1.000  S
  C147     1.0000 0.12500  0.66290  0.56860  Biso   1.000  C
  C148     1.0000 0.16060  0.69000  0.66290  Biso   1.000  C
  C149     1.0000 0.20410  0.67160  0.65080  Biso   1.000  C
  C150     1.0000 0.15000  0.74820  0.78110  Biso   1.000  C
  H117     1.0000 0.21320  0.64040  0.57390  Biso   1.000  H
  C151     1.0000 0.23700  0.69660  0.74770  Biso   1.000  C
  C152     1.0000 0.18130  0.77490  0.86650  Biso   1.000  C
  H118     1.0000 0.12070  0.76600  0.79480  Biso   1.000  H
  H119     1.0000 0.26660  0.67920  0.73700  Biso   1.000  H
  H120     1.0000 0.17370  0.81400  0.93530  Biso   1.000  H
  C153     1.0000 0.85700  0.71460  0.11620  Biso   1.000  C
  H121     1.0000 0.86290  0.74480  0.03530  Biso   1.000  H
  C154     1.0000 0.88970  0.69900  0.20850  Biso   1.000  C
  H122     1.0000 0.91800  0.72210  0.19480  Biso   1.000  H
  C155     1.0000 0.83950  0.60900  0.33500  Biso   1.000  C
  H123     1.0000 0.83240  0.56750  0.40080  Biso   1.000  H
  C156     1.0000 0.80650  0.63170  0.23960  Biso   1.000  C
  H124     1.0000 0.77850  0.60640  0.24780  Biso   1.000  H
  C157     1.0000 0.18370  0.76680  0.34980  Biso   1.000  C
  H125     1.0000 0.17830  0.80130  0.42650  Biso   1.000  H
  C158     1.0000 0.21160  0.79160  0.26280  Biso   1.000  C
  H126     1.0000 0.22520  0.84460  0.27910  Biso   1.000  H
  C159     1.0000 0.20230  0.66870  0.13740  Biso   1.000  C
  H127     1.0000 0.21100  0.63240  0.06590  Biso   1.000  H
  C160     1.0000 0.17100  0.63740  0.21740  Biso   1.000  C
  H128     1.0000 0.15660  0.58560  0.19900  Biso   1.000  H
  Fe1      1.0000 0.73149  0.21713  0.00000  Biso   1.000  Fe
  N17      1.0000 0.75780  0.10360  0.00000  Biso   1.000  N
  N18      1.0000 0.70790  0.33340  0.00000  Biso   1.000  N
  C161     1.0000 0.78100  0.04550  0.00000  Biso   1.000  C
  N19      1.0000 0.81280  0.98400  0.00000  Biso   1.000  N
  C162     1.0000 0.79940  0.90490  0.00000  Biso   1.000  C
  Fe2      1.0000 0.26851  0.78287  0.00000  Biso   1.000  Fe
  N20      1.0000 0.24220  0.89640  0.00000  Biso   1.000  N
  N21      1.0000 0.29210  0.66660  0.00000  Biso   1.000  N
  C163     1.0000 0.21900  0.95450  0.00000  Biso   1.000  C
  N22      1.0000 0.18720  0.01600  0.00000  Biso   1.000  N
  C164     1.0000 0.20060  0.09510  0.00000  Biso   1.000  C
  Fe3      1.0000 0.76851  0.71713  0.00000  Biso   1.000  Fe
  N23      1.0000 0.74220  0.60360  0.00000  Biso   1.000  N
  N24      1.0000 0.79210  0.83340  0.00000  Biso   1.000  N
  C165     1.0000 0.71900  0.54550  0.00000  Biso   1.000  C
  N25      1.0000 0.68720  0.48400  0.00000  Biso   1.000  N
  C166     1.0000 0.70060  0.40490  0.00000  Biso   1.000  C
  Fe4      1.0000 0.23149  0.28287  0.00000  Biso   1.000  Fe
  N26      1.0000 0.25780  0.39640  0.00000  Biso   1.000  N
  N27      1.0000 0.20790  0.16660  0.00000  Biso   1.000  N
  C167     1.0000 0.28100  0.45450  0.00000  Biso   1.000  C
  N28      1.0000 0.31280  0.51600  0.00000  Biso   1.000  N
  C168     1.0000 0.29940  0.59510  0.00000  Biso   1.000  C
  C169     1.0000 0.50060  0.10600  0.50000  Biso   1.000  C
  C170     1.0000 0.45430  0.11240  0.50000  Biso   1.000  C
  C171     1.0000 0.49940  0.89400  0.50000  Biso   1.000  C
  C172     1.0000 0.54570  0.88760  0.50000  Biso   1.000  C
  C173     1.0000 0.99940  0.60600  0.50000  Biso   1.000  C
  C174     1.0000 0.04570  0.61240  0.50000  Biso   1.000  C
  C175     1.0000 0.00060  0.39400  0.50000  Biso   1.000  C
  C176     1.0000 0.95430  0.38760  0.50000  Biso   1.000  C
