data_image0
_cell_length_a       8.3755
_cell_length_b       16.2549
_cell_length_c       17.0748
_cell_angle_alpha    90
_cell_angle_beta     101.168
_cell_angle_gamma    90

_symmetry_space_group_name_H-M    "P 1"
_symmetry_int_tables_number       1

loop_
  _symmetry_equiv_pos_as_xyz
  'x, y, z'

loop_
  _atom_site_label
  _atom_site_occupancy
  _atom_site_fract_x
  _atom_site_fract_y
  _atom_site_fract_z
  _atom_site_thermal_displace_type
  _atom_site_B_iso_or_equiv
  _atom_site_type_symbol
  C1       1.0000 0.79350  0.88200  0.13560  Biso   1.000  C
  H1       1.0000 0.89280  0.89700  0.12320  Biso   1.000  H
  C2       1.0000 0.65710  0.92870  0.10700  Biso   1.000  C
  H2       1.0000 0.66620  0.97490  0.07610  Biso   1.000  H
  C3       1.0000 0.50870  0.90800  0.12360  Biso   1.000  C
  C4       1.0000 0.49900  0.83750  0.16710  Biso   1.000  C
  H3       1.0000 0.39980  0.81980  0.17780  Biso   1.000  H
  C5       1.0000 0.64040  0.79360  0.19450  Biso   1.000  C
  H4       1.0000 0.63340  0.74610  0.22400  Biso   1.000  H
  C6       1.0000 0.36340  0.95970  0.09550  Biso   1.000  C
  C7       1.0000 0.35100  0.04070  0.10970  Biso   1.000  C
  C8       1.0000 0.48260  0.09580  0.15180  Biso   1.000  C
  C9       1.0000 0.51990  0.16750  0.11810  Biso   1.000  C
  H5       1.0000 0.45590  0.18650  0.07090  Biso   1.000  H
  C10      1.0000 0.65410  0.21130  0.15520  Biso   1.000  C
  H6       1.0000 0.67900  0.26010  0.13170  Biso   1.000  H
  C11      1.0000 0.70960  0.11920  0.25770  Biso   1.000  C
  H7       1.0000 0.77370  0.10230  0.30570  Biso   1.000  H
  C12      1.0000 0.57640  0.07290  0.22500  Biso   1.000  C
  H8       1.0000 0.54900  0.02660  0.25160  Biso   1.000  H
  C13      1.0000 0.07440  0.00020  0.02230  Biso   1.000  C
  Fe1      1.0000 0.01480  0.75026  0.23096  Biso   1.000  Fe
  N1       1.0000 0.78580  0.81560  0.18090  Biso   1.000  N
  N2       1.0000 0.75060  0.18740  0.22330  Biso   1.000  N
  N3       1.0000 0.14270  0.86670  0.24390  Biso   1.000  N
  C14      1.0000 0.17940  0.93160  0.26710  Biso   1.000  C
  C15      1.0000 0.16390  0.06920  0.28400  Biso   1.000  C
  N4       1.0000 0.11180  0.13450  0.27810  Biso   1.000  N
  N5       1.0000 0.97350  0.76890  0.34880  Biso   1.000  N
  C16      1.0000 0.98190  0.79000  0.41140  Biso   1.000  C
  C17      1.0000 0.02810  0.79090  0.55000  Biso   1.000  C
  N6       1.0000 0.05150  0.77040  0.61190  Biso   1.000  N
  N7       1.0000 0.07000  0.82330  0.48330  Biso   1.000  N
  N8       1.0000 0.24500  0.00080  0.29580  Biso   1.000  N
  S1       1.0000 0.16408  0.08799  0.07218  Biso   1.000  S
  S2       1.0000 0.19443  0.91090  0.03857  Biso   1.000  S
  N9       1.0000 0.93700  0.81880  0.47680  Biso   1.000  N
  C18      1.0000 0.20650  0.38200  0.36440  Biso   1.000  C
  H9       1.0000 0.10720  0.39700  0.37680  Biso   1.000  H
  C19      1.0000 0.34290  0.42870  0.39300  Biso   1.000  C
  H10      1.0000 0.33380  0.47490  0.42390  Biso   1.000  H
  C20      1.0000 0.49130  0.40800  0.37640  Biso   1.000  C
  C21      1.0000 0.50100  0.33750  0.33290  Biso   1.000  C
  H11      1.0000 0.60020  0.31980  0.32220  Biso   1.000  H
  C22      1.0000 0.35960  0.29360  0.30550  Biso   1.000  C
  H12      1.0000 0.36660  0.24610  0.27600  Biso   1.000  H
  C23      1.0000 0.63660  0.45970  0.40450  Biso   1.000  C
  C24      1.0000 0.64900  0.54070  0.39030  Biso   1.000  C
  C25      1.0000 0.51740  0.59580  0.34820  Biso   1.000  C
  C26      1.0000 0.48010  0.66750  0.38190  Biso   1.000  C
  H13      1.0000 0.54410  0.68650  0.42910  Biso   1.000  H
  C27      1.0000 0.34590  0.71130  0.34480  Biso   1.000  C
  H14      1.0000 0.32100  0.76010  0.36830  Biso   1.000  H
  C28      1.0000 0.29040  0.61920  0.24230  Biso   1.000  C
  H15      1.0000 0.22630  0.60230  0.19430  Biso   1.000  H
  C29      1.0000 0.42360  0.57290  0.27500  Biso   1.000  C
  H16      1.0000 0.45100  0.52660  0.24840  Biso   1.000  H
  C30      1.0000 0.92560  0.50020  0.47770  Biso   1.000  C
  Fe2      1.0000 0.98520  0.25026  0.26904  Biso   1.000  Fe
  N10      1.0000 0.21420  0.31560  0.31910  Biso   1.000  N
  N11      1.0000 0.24940  0.68740  0.27670  Biso   1.000  N
  N12      1.0000 0.85730  0.36670  0.25610  Biso   1.000  N
  C31      1.0000 0.82060  0.43160  0.23290  Biso   1.000  C
  C32      1.0000 0.83610  0.56920  0.21600  Biso   1.000  C
  N13      1.0000 0.88820  0.63450  0.22190  Biso   1.000  N
  N14      1.0000 0.02650  0.26890  0.15120  Biso   1.000  N
  C33      1.0000 0.01810  0.29000  0.08860  Biso   1.000  C
  C34      1.0000 0.97190  0.29090  0.95000  Biso   1.000  C
  N15      1.0000 0.94850  0.27040  0.88810  Biso   1.000  N
  N16      1.0000 0.93000  0.32330  0.01670  Biso   1.000  N
  N17      1.0000 0.75500  0.50080  0.20420  Biso   1.000  N
  S3       1.0000 0.83592  0.58799  0.42782  Biso   1.000  S
  S4       1.0000 0.80557  0.41090  0.46143  Biso   1.000  S
  N18      1.0000 0.06300  0.31880  0.02320  Biso   1.000  N
  C35      1.0000 0.20650  0.11800  0.86440  Biso   1.000  C
  H17      1.0000 0.10720  0.10300  0.87680  Biso   1.000  H
  C36      1.0000 0.34290  0.07130  0.89300  Biso   1.000  C
  H18      1.0000 0.33380  0.02510  0.92390  Biso   1.000  H
  C37      1.0000 0.49130  0.09200  0.87640  Biso   1.000  C
  C38      1.0000 0.50100  0.16250  0.83290  Biso   1.000  C
  H19      1.0000 0.60020  0.18020  0.82220  Biso   1.000  H
  C39      1.0000 0.35960  0.20640  0.80550  Biso   1.000  C
  H20      1.0000 0.36660  0.25390  0.77600  Biso   1.000  H
  C40      1.0000 0.63660  0.04030  0.90450  Biso   1.000  C
  C41      1.0000 0.64900  0.95930  0.89030  Biso   1.000  C
  C42      1.0000 0.51740  0.90420  0.84820  Biso   1.000  C
  C43      1.0000 0.48010  0.83250  0.88190  Biso   1.000  C
  H21      1.0000 0.54410  0.81350  0.92910  Biso   1.000  H
  C44      1.0000 0.34590  0.78870  0.84480  Biso   1.000  C
  H22      1.0000 0.32100  0.73990  0.86830  Biso   1.000  H
  C45      1.0000 0.29040  0.88080  0.74230  Biso   1.000  C
  H23      1.0000 0.22630  0.89770  0.69430  Biso   1.000  H
  C46      1.0000 0.42360  0.92710  0.77500  Biso   1.000  C
  H24      1.0000 0.45100  0.97340  0.74840  Biso   1.000  H
  C47      1.0000 0.92560  0.99980  0.97770  Biso   1.000  C
  Fe3      1.0000 0.98520  0.24974  0.76904  Biso   1.000  Fe
  N19      1.0000 0.21420  0.18440  0.81910  Biso   1.000  N
  N20      1.0000 0.24940  0.81260  0.77670  Biso   1.000  N
  N21      1.0000 0.85730  0.13330  0.75610  Biso   1.000  N
  C48      1.0000 0.82060  0.06840  0.73290  Biso   1.000  C
  C49      1.0000 0.83610  0.93080  0.71600  Biso   1.000  C
  N22      1.0000 0.88820  0.86550  0.72190  Biso   1.000  N
  N23      1.0000 0.02650  0.23110  0.65120  Biso   1.000  N
  C50      1.0000 0.01810  0.21000  0.58860  Biso   1.000  C
  C51      1.0000 0.97190  0.20910  0.45000  Biso   1.000  C
  N24      1.0000 0.94850  0.22960  0.38810  Biso   1.000  N
  N25      1.0000 0.93000  0.17670  0.51670  Biso   1.000  N
  N26      1.0000 0.75500  0.99920  0.70420  Biso   1.000  N
  S5       1.0000 0.83592  0.91201  0.92782  Biso   1.000  S
  S6       1.0000 0.80557  0.08910  0.96143  Biso   1.000  S
  N27      1.0000 0.06300  0.18120  0.52320  Biso   1.000  N
  C52      1.0000 0.79350  0.61800  0.63560  Biso   1.000  C
  H25      1.0000 0.89280  0.60300  0.62320  Biso   1.000  H
  C53      1.0000 0.65710  0.57130  0.60700  Biso   1.000  C
  H26      1.0000 0.66620  0.52510  0.57610  Biso   1.000  H
  C54      1.0000 0.50870  0.59200  0.62360  Biso   1.000  C
  C55      1.0000 0.49900  0.66250  0.66710  Biso   1.000  C
  H27      1.0000 0.39980  0.68020  0.67780  Biso   1.000  H
  C56      1.0000 0.64040  0.70640  0.69450  Biso   1.000  C
  H28      1.0000 0.63340  0.75390  0.72400  Biso   1.000  H
  C57      1.0000 0.36340  0.54030  0.59550  Biso   1.000  C
  C58      1.0000 0.35100  0.45930  0.60970  Biso   1.000  C
  C59      1.0000 0.48260  0.40420  0.65180  Biso   1.000  C
  C60      1.0000 0.51990  0.33250  0.61810  Biso   1.000  C
  H29      1.0000 0.45590  0.31350  0.57090  Biso   1.000  H
  C61      1.0000 0.65410  0.28870  0.65520  Biso   1.000  C
  H30      1.0000 0.67900  0.23990  0.63170  Biso   1.000  H
  C62      1.0000 0.70960  0.38080  0.75770  Biso   1.000  C
  H31      1.0000 0.77370  0.39770  0.80570  Biso   1.000  H
  C63      1.0000 0.57640  0.42710  0.72500  Biso   1.000  C
  H32      1.0000 0.54900  0.47340  0.75160  Biso   1.000  H
  C64      1.0000 0.07440  0.49980  0.52230  Biso   1.000  C
  Fe4      1.0000 0.01480  0.74974  0.73096  Biso   1.000  Fe
  N28      1.0000 0.78580  0.68440  0.68090  Biso   1.000  N
  N29      1.0000 0.75060  0.31260  0.72330  Biso   1.000  N
  N30      1.0000 0.14270  0.63330  0.74390  Biso   1.000  N
  C65      1.0000 0.17940  0.56840  0.76710  Biso   1.000  C
  C66      1.0000 0.16390  0.43080  0.78400  Biso   1.000  C
  N31      1.0000 0.11180  0.36550  0.77810  Biso   1.000  N
  N32      1.0000 0.97350  0.73110  0.84880  Biso   1.000  N
  C67      1.0000 0.98190  0.71000  0.91140  Biso   1.000  C
  C68      1.0000 0.02810  0.70910  0.05000  Biso   1.000  C
  N33      1.0000 0.05150  0.72960  0.11190  Biso   1.000  N
  N34      1.0000 0.07000  0.67670  0.98330  Biso   1.000  N
  N35      1.0000 0.24500  0.49920  0.79580  Biso   1.000  N
  S7       1.0000 0.16408  0.41201  0.57218  Biso   1.000  S
  S8       1.0000 0.19443  0.58910  0.53857  Biso   1.000  S
  N36      1.0000 0.93700  0.68120  0.97680  Biso   1.000  N
