data_image0
_cell_length_a       8.2936
_cell_length_b       16.2539
_cell_length_c       17.0073
_cell_angle_alpha    90
_cell_angle_beta     100.023
_cell_angle_gamma    90

_symmetry_space_group_name_H-M    "P 1"
_symmetry_int_tables_number       1

loop_
  _symmetry_equiv_pos_as_xyz
  'x, y, z'

loop_
  _atom_site_label
  _atom_site_occupancy
  _atom_site_fract_x
  _atom_site_fract_y
  _atom_site_fract_z
  _atom_site_thermal_displace_type
  _atom_site_B_iso_or_equiv
  _atom_site_type_symbol
  C1       1.0000 0.79590  0.88430  0.13780  Biso   1.000  C
  H1       1.0000 0.89690  0.89980  0.12590  Biso   1.000  H
  C2       1.0000 0.66120  0.93100  0.10840  Biso   1.000  C
  H2       1.0000 0.67180  0.97730  0.07760  Biso   1.000  H
  C3       1.0000 0.51080  0.90930  0.12480  Biso   1.000  C
  C4       1.0000 0.49900  0.83820  0.16780  Biso   1.000  C
  H3       1.0000 0.39760  0.81990  0.17690  Biso   1.000  H
  C5       1.0000 0.63960  0.79450  0.19710  Biso   1.000  C
  H4       1.0000 0.63120  0.74770  0.22760  Biso   1.000  H
  C6       1.0000 0.36400  0.96150  0.09680  Biso   1.000  C
  C7       1.0000 0.34930  0.04230  0.10980  Biso   1.000  C
  C8       1.0000 0.48160  0.09690  0.15180  Biso   1.000  C
  C9       1.0000 0.51890  0.16930  0.11610  Biso   1.000  C
  H5       1.0000 0.45590  0.18720  0.06860  Biso   1.000  H
  C10      1.0000 0.65410  0.21470  0.15340  Biso   1.000  C
  H6       1.0000 0.67870  0.26380  0.13000  Biso   1.000  H
  C11      1.0000 0.70690  0.12280  0.25680  Biso   1.000  C
  H7       1.0000 0.76880  0.10740  0.30560  Biso   1.000  H
  C12      1.0000 0.57330  0.07410  0.22360  Biso   1.000  C
  H8       1.0000 0.54700  0.02710  0.24980  Biso   1.000  H
  C13      1.0000 0.07280  0.00050  0.02360  Biso   1.000  C
  Fe1      1.0000 0.01656  0.75311  0.23304  Biso   1.000  Fe
  N1       1.0000 0.78870  0.81710  0.18310  Biso   1.000  N
  N2       1.0000 0.74870  0.19100  0.22070  Biso   1.000  N
  N3       1.0000 0.14300  0.87000  0.24620  Biso   1.000  N
  C14      1.0000 0.18250  0.93360  0.26970  Biso   1.000  C
  C15      1.0000 0.16570  0.07320  0.28570  Biso   1.000  C
  N4       1.0000 0.11150  0.13760  0.27620  Biso   1.000  N
  N5       1.0000 0.97020  0.77160  0.35060  Biso   1.000  N
  C16      1.0000 0.98110  0.79310  0.41420  Biso   1.000  C
  C17      1.0000 0.02930  0.79180  0.55150  Biso   1.000  C
  N6       1.0000 0.05870  0.76720  0.61420  Biso   1.000  N
  N7       1.0000 0.04700  0.83200  0.48460  Biso   1.000  N
  N8       1.0000 0.24350  0.00360  0.29960  Biso   1.000  N
  S1       1.0000 0.16170  0.08892  0.07151  Biso   1.000  S
  S2       1.0000 0.19504  0.91127  0.04003  Biso   1.000  S
  N9       1.0000 0.93400  0.81730  0.48290  Biso   1.000  N
  C18      1.0000 0.20410  0.38430  0.36220  Biso   1.000  C
  H9       1.0000 0.10310  0.39980  0.37410  Biso   1.000  H
  C19      1.0000 0.33880  0.43100  0.39160  Biso   1.000  C
  H10      1.0000 0.32820  0.47730  0.42240  Biso   1.000  H
  C20      1.0000 0.48920  0.40930  0.37520  Biso   1.000  C
  C21      1.0000 0.50100  0.33820  0.33220  Biso   1.000  C
  H11      1.0000 0.60240  0.31990  0.32310  Biso   1.000  H
  C22      1.0000 0.36040  0.29450  0.30290  Biso   1.000  C
  H12      1.0000 0.36880  0.24770  0.27240  Biso   1.000  H
  C23      1.0000 0.63600  0.46150  0.40320  Biso   1.000  C
  C24      1.0000 0.65070  0.54230  0.39020  Biso   1.000  C
  C25      1.0000 0.51840  0.59690  0.34820  Biso   1.000  C
  C26      1.0000 0.48110  0.66930  0.38390  Biso   1.000  C
  H13      1.0000 0.54410  0.68720  0.43140  Biso   1.000  H
  C27      1.0000 0.34590  0.71470  0.34660  Biso   1.000  C
  H14      1.0000 0.32130  0.76380  0.37000  Biso   1.000  H
  C28      1.0000 0.29310  0.62280  0.24320  Biso   1.000  C
  H15      1.0000 0.23120  0.60740  0.19440  Biso   1.000  H
  C29      1.0000 0.42670  0.57410  0.27640  Biso   1.000  C
  H16      1.0000 0.45300  0.52710  0.25020  Biso   1.000  H
  C30      1.0000 0.92720  0.50050  0.47640  Biso   1.000  C
  Fe2      1.0000 0.98344  0.25311  0.26696  Biso   1.000  Fe
  N10      1.0000 0.21130  0.31710  0.31690  Biso   1.000  N
  N11      1.0000 0.25130  0.69100  0.27930  Biso   1.000  N
  N12      1.0000 0.85700  0.37000  0.25380  Biso   1.000  N
  C31      1.0000 0.81750  0.43360  0.23030  Biso   1.000  C
  C32      1.0000 0.83430  0.57320  0.21430  Biso   1.000  C
  N13      1.0000 0.88850  0.63760  0.22380  Biso   1.000  N
  N14      1.0000 0.02980  0.27160  0.14940  Biso   1.000  N
  C33      1.0000 0.01890  0.29310  0.08580  Biso   1.000  C
  C34      1.0000 0.97070  0.29180  0.94850  Biso   1.000  C
  N15      1.0000 0.94130  0.26720  0.88580  Biso   1.000  N
  N16      1.0000 0.95300  0.33200  0.01540  Biso   1.000  N
  N17      1.0000 0.75650  0.50360  0.20040  Biso   1.000  N
  S3       1.0000 0.83830  0.58892  0.42849  Biso   1.000  S
  S4       1.0000 0.80496  0.41127  0.45997  Biso   1.000  S
  N18      1.0000 0.06600  0.31730  0.01710  Biso   1.000  N
  C35      1.0000 0.20410  0.11570  0.86220  Biso   1.000  C
  H17      1.0000 0.10310  0.10020  0.87410  Biso   1.000  H
  C36      1.0000 0.33880  0.06900  0.89160  Biso   1.000  C
  H18      1.0000 0.32820  0.02270  0.92240  Biso   1.000  H
  C37      1.0000 0.48920  0.09070  0.87520  Biso   1.000  C
  C38      1.0000 0.50100  0.16180  0.83220  Biso   1.000  C
  H19      1.0000 0.60240  0.18010  0.82310  Biso   1.000  H
  C39      1.0000 0.36040  0.20550  0.80290  Biso   1.000  C
  H20      1.0000 0.36880  0.25230  0.77240  Biso   1.000  H
  C40      1.0000 0.63600  0.03850  0.90320  Biso   1.000  C
  C41      1.0000 0.65070  0.95770  0.89020  Biso   1.000  C
  C42      1.0000 0.51840  0.90310  0.84820  Biso   1.000  C
  C43      1.0000 0.48110  0.83070  0.88390  Biso   1.000  C
  H21      1.0000 0.54410  0.81280  0.93140  Biso   1.000  H
  C44      1.0000 0.34590  0.78530  0.84660  Biso   1.000  C
  H22      1.0000 0.32130  0.73620  0.87000  Biso   1.000  H
  C45      1.0000 0.29310  0.87720  0.74320  Biso   1.000  C
  H23      1.0000 0.23120  0.89260  0.69440  Biso   1.000  H
  C46      1.0000 0.42670  0.92590  0.77640  Biso   1.000  C
  H24      1.0000 0.45300  0.97290  0.75020  Biso   1.000  H
  C47      1.0000 0.92720  0.99950  0.97640  Biso   1.000  C
  Fe3      1.0000 0.98344  0.24689  0.76696  Biso   1.000  Fe
  N19      1.0000 0.21130  0.18290  0.81690  Biso   1.000  N
  N20      1.0000 0.25130  0.80900  0.77930  Biso   1.000  N
  N21      1.0000 0.85700  0.13000  0.75380  Biso   1.000  N
  C48      1.0000 0.81750  0.06640  0.73030  Biso   1.000  C
  C49      1.0000 0.83430  0.92680  0.71430  Biso   1.000  C
  N22      1.0000 0.88850  0.86240  0.72380  Biso   1.000  N
  N23      1.0000 0.02980  0.22840  0.64940  Biso   1.000  N
  C50      1.0000 0.01890  0.20690  0.58580  Biso   1.000  C
  C51      1.0000 0.97070  0.20820  0.44850  Biso   1.000  C
  N24      1.0000 0.94130  0.23280  0.38580  Biso   1.000  N
  N25      1.0000 0.95300  0.16800  0.51540  Biso   1.000  N
  N26      1.0000 0.75650  0.99640  0.70040  Biso   1.000  N
  S5       1.0000 0.83830  0.91108  0.92849  Biso   1.000  S
  S6       1.0000 0.80496  0.08873  0.95997  Biso   1.000  S
  N27      1.0000 0.06600  0.18270  0.51710  Biso   1.000  N
  C52      1.0000 0.79590  0.61570  0.63780  Biso   1.000  C
  H25      1.0000 0.89690  0.60020  0.62590  Biso   1.000  H
  C53      1.0000 0.66120  0.56900  0.60840  Biso   1.000  C
  H26      1.0000 0.67180  0.52270  0.57760  Biso   1.000  H
  C54      1.0000 0.51080  0.59070  0.62480  Biso   1.000  C
  C55      1.0000 0.49900  0.66180  0.66780  Biso   1.000  C
  H27      1.0000 0.39760  0.68010  0.67690  Biso   1.000  H
  C56      1.0000 0.63960  0.70550  0.69710  Biso   1.000  C
  H28      1.0000 0.63120  0.75230  0.72760  Biso   1.000  H
  C57      1.0000 0.36400  0.53850  0.59680  Biso   1.000  C
  C58      1.0000 0.34930  0.45770  0.60980  Biso   1.000  C
  C59      1.0000 0.48160  0.40310  0.65180  Biso   1.000  C
  C60      1.0000 0.51890  0.33070  0.61610  Biso   1.000  C
  H29      1.0000 0.45590  0.31280  0.56860  Biso   1.000  H
  C61      1.0000 0.65410  0.28530  0.65340  Biso   1.000  C
  H30      1.0000 0.67870  0.23620  0.63000  Biso   1.000  H
  C62      1.0000 0.70690  0.37720  0.75680  Biso   1.000  C
  H31      1.0000 0.76880  0.39260  0.80560  Biso   1.000  H
  C63      1.0000 0.57330  0.42590  0.72360  Biso   1.000  C
  H32      1.0000 0.54700  0.47290  0.74980  Biso   1.000  H
  C64      1.0000 0.07280  0.49950  0.52360  Biso   1.000  C
  Fe4      1.0000 0.01656  0.74689  0.73304  Biso   1.000  Fe
  N28      1.0000 0.78870  0.68290  0.68310  Biso   1.000  N
  N29      1.0000 0.74870  0.30900  0.72070  Biso   1.000  N
  N30      1.0000 0.14300  0.63000  0.74620  Biso   1.000  N
  C65      1.0000 0.18250  0.56640  0.76970  Biso   1.000  C
  C66      1.0000 0.16570  0.42680  0.78570  Biso   1.000  C
  N31      1.0000 0.11150  0.36240  0.77620  Biso   1.000  N
  N32      1.0000 0.97020  0.72840  0.85060  Biso   1.000  N
  C67      1.0000 0.98110  0.70690  0.91420  Biso   1.000  C
  C68      1.0000 0.02930  0.70820  0.05150  Biso   1.000  C
  N33      1.0000 0.05870  0.73280  0.11420  Biso   1.000  N
  N34      1.0000 0.04700  0.66800  0.98460  Biso   1.000  N
  N35      1.0000 0.24350  0.49640  0.79960  Biso   1.000  N
  S7       1.0000 0.16170  0.41108  0.57151  Biso   1.000  S
  S8       1.0000 0.19504  0.58873  0.54003  Biso   1.000  S
  N36      1.0000 0.93400  0.68270  0.98290  Biso   1.000  N
