data_WASNOU_clean
_audit_creation_date              2014-07-02
_audit_creation_method            'Materials Studio'
_symmetry_space_group_name_H-M    'P1'
_symmetry_Int_Tables_number       1
_symmetry_cell_setting            triclinic
loop_
_symmetry_equiv_pos_as_xyz
  x,y,z
_cell_length_a                    10.7020
_cell_length_b                    11.1860
_cell_length_c                    22.5840
_cell_angle_alpha                 93.8000
_cell_angle_beta                  90.1300
_cell_angle_gamma                 115.5700
loop_
_atom_site_label
_atom_site_type_symbol
_atom_site_fract_x
_atom_site_fract_y
_atom_site_fract_z
_atom_site_U_iso_or_equiv
_atom_site_adp_type
_atom_site_occupancy
Cu1    Cu    0.20054   0.51049   0.72579   0.01267  Uiso   1.00
Cu2    Cu    0.79946   0.48951   0.27421   0.01267  Uiso   1.00
Cu3    Cu    0.50000   0.50000   0.50000   0.01267  Uiso   1.00
Cu4    Cu    0.00000   0.00000   0.00000   0.01267  Uiso   1.00
H1     H     0.63910   0.31400   0.51890   0.01267  Uiso   1.00
H2     H     0.32130   0.32030   0.60200   0.01267  Uiso   1.00
H3     H     0.36050   0.13730   0.63750   0.01267  Uiso   1.00
H4     H     0.66810   0.12740   0.57060   0.01267  Uiso   1.00
H5     H     0.55910   0.05410   0.61780   0.01267  Uiso   1.00
H6     H     0.52150   0.90790   0.53490   0.01267  Uiso   1.00
H7     H     0.39290   0.93950   0.54100   0.01267  Uiso   1.00
H8     H     0.40420   0.59550   0.83920   0.01267  Uiso   1.00
H9     H     0.14700   0.23730   0.78060   0.01267  Uiso   1.00
H10    H     0.27460   0.21660   0.86510   0.01267  Uiso   1.00
H11    H     0.42420   0.44070   0.95710   0.01267  Uiso   1.00
H12    H     0.53060   0.55630   0.92220   0.01267  Uiso   1.00
H13    H     0.51170   0.29720   0.91720   0.01267  Uiso   1.00
H14    H     0.62890   0.42020   0.95220   0.01267  Uiso   1.00
H15    H     0.59690   0.38860   0.82700   0.01267  Uiso   1.00
H16    H     0.71340   0.51340   0.86160   0.01267  Uiso   1.00
H17    H     0.81210   0.38340   0.89720   0.01267  Uiso   1.00
H18    H     0.69110   0.25440   0.86800   0.01267  Uiso   1.00
H19    H     0.01750   0.49960   0.83420   0.01267  Uiso   1.00
H20    H     0.88740   0.29410   0.68180   0.01267  Uiso   1.00
H21    H     0.68910   0.22160   0.74780   0.01267  Uiso   1.00
H22    H     0.47050   0.46600   0.73420   0.01267  Uiso   1.00
H23    H     0.40990   0.70690   0.63320   0.01267  Uiso   1.00
H24    H     0.63630   0.71520   0.61110   0.01267  Uiso   1.00
H25    H     0.72830   0.51210   0.63910   0.01267  Uiso   1.00
H26    H     0.70330   0.48810   0.70660   0.01267  Uiso   1.00
H27    H     0.92500   0.64910   0.69530   0.01267  Uiso   1.00
H28    H     0.86720   0.73440   0.66220   0.01267  Uiso   1.00
H29    H     0.83450   0.68770   0.78310   0.01267  Uiso   1.00
H30    H     0.76470   0.76440   0.75070   0.01267  Uiso   1.00
H31    H     0.05690   0.85650   0.76620   0.01267  Uiso   1.00
H32    H     0.99000   0.93180   0.73080   0.01267  Uiso   1.00
H33    H     0.04830   0.87630   0.88040   0.01267  Uiso   1.00
H34    H     0.86500   0.05840   0.79570   0.01267  Uiso   1.00
H35    H     0.87570   0.12050   0.90160   0.01267  Uiso   1.00
H36    H     0.05010   0.41800   0.41150   0.01267  Uiso   1.00
H37    H     0.19120   0.49650   0.95500   0.01267  Uiso   1.00
H38    H     0.36090   0.68600   0.48110   0.01267  Uiso   1.00
H39    H     0.67870   0.67970   0.39800   0.01267  Uiso   1.00
H40    H     0.63950   0.86270   0.36250   0.01267  Uiso   1.00
H41    H     0.33190   0.87260   0.42940   0.01267  Uiso   1.00
H42    H     0.44090   0.94590   0.38220   0.01267  Uiso   1.00
H43    H     0.47850   0.09210   0.46510   0.01267  Uiso   1.00
H44    H     0.60710   0.06050   0.45900   0.01267  Uiso   1.00
H45    H     0.59580   0.40450   0.16080   0.01267  Uiso   1.00
H46    H     0.85300   0.76270   0.21940   0.01267  Uiso   1.00
H47    H     0.72540   0.78340   0.13490   0.01267  Uiso   1.00
H48    H     0.57580   0.55930   0.04290   0.01267  Uiso   1.00
H49    H     0.46940   0.44370   0.07780   0.01267  Uiso   1.00
H50    H     0.48830   0.70280   0.08280   0.01267  Uiso   1.00
H51    H     0.37110   0.57980   0.04780   0.01267  Uiso   1.00
H52    H     0.40310   0.61140   0.17300   0.01267  Uiso   1.00
H53    H     0.28660   0.48660   0.13840   0.01267  Uiso   1.00
H54    H     0.18790   0.61660   0.10280   0.01267  Uiso   1.00
H55    H     0.30890   0.74560   0.13200   0.01267  Uiso   1.00
H56    H     0.98250   0.50040   0.16580   0.01267  Uiso   1.00
H57    H     0.11260   0.70590   0.31820   0.01267  Uiso   1.00
H58    H     0.31090   0.77840   0.25220   0.01267  Uiso   1.00
H59    H     0.52950   0.53400   0.26580   0.01267  Uiso   1.00
H60    H     0.59010   0.29310   0.36680   0.01267  Uiso   1.00
H61    H     0.36370   0.28480   0.38890   0.01267  Uiso   1.00
H62    H     0.27170   0.48790   0.36090   0.01267  Uiso   1.00
H63    H     0.29670   0.51190   0.29340   0.01267  Uiso   1.00
H64    H     0.07500   0.35090   0.30470   0.01267  Uiso   1.00
H65    H     0.13280   0.26560   0.33780   0.01267  Uiso   1.00
H66    H     0.16550   0.31230   0.21690   0.01267  Uiso   1.00
H67    H     0.23530   0.23560   0.24930   0.01267  Uiso   1.00
H68    H     0.94310   0.14350   0.23380   0.01267  Uiso   1.00
H69    H     0.01000   0.06820   0.26920   0.01267  Uiso   1.00
H70    H     0.95170   0.12370   0.11960   0.01267  Uiso   1.00
H71    H     0.13500   0.94160   0.20430   0.01267  Uiso   1.00
H72    H     0.12430   0.87950   0.09840   0.01267  Uiso   1.00
H73    H     0.94990   0.58200   0.58850   0.01267  Uiso   1.00
H74    H     0.80880   0.50350   0.04500   0.01267  Uiso   1.00
C1     C     0.56520   0.29370   0.54410   0.01267  Uiso   1.00
C2     C     0.39090   0.29640   0.58980   0.01267  Uiso   1.00
C3     C     0.41170   0.19490   0.60960   0.01267  Uiso   1.00
C4     C     0.57020   0.08950   0.57900   0.01267  Uiso   1.00
C5     C     0.49060   0.97720   0.53240   0.01267  Uiso   1.00
C6     C     0.35520   0.50340   0.83503   0.01267  Uiso   1.00
C7     C     0.21520   0.30780   0.80320   0.01267  Uiso   1.00
C8     C     0.28510   0.29540   0.84970   0.01267  Uiso   1.00
C9     C     0.47460   0.46100   0.92063   0.01267  Uiso   1.00
C10    C     0.56810   0.39220   0.91698   0.01267  Uiso   1.00
C11    C     0.65650   0.41860   0.86251   0.01267  Uiso   1.00
C12    C     0.74820   0.34780   0.86313   0.01267  Uiso   1.00
C13    C     0.96120   0.43950   0.80407   0.01267  Uiso   1.00
C14    C     0.88950   0.32700   0.72091   0.01267  Uiso   1.00
C15    C     0.77870   0.28590   0.75710   0.01267  Uiso   1.00
C16    C     0.48240   0.52660   0.70596   0.01267  Uiso   1.00
C17    C     0.45000   0.65840   0.65063   0.01267  Uiso   1.00
C18    C     0.57540   0.66370   0.63851   0.01267  Uiso   1.00
C19    C     0.71810   0.55200   0.67720   0.01267  Uiso   1.00
C20    C     0.84880   0.67390   0.69340   0.01267  Uiso   1.00
C21    C     0.84470   0.74500   0.75122   0.01267  Uiso   1.00
C22    C     0.97710   0.87570   0.76337   0.01267  Uiso   1.00
C23    C     0.00480   0.93010   0.87269   0.01267  Uiso   1.00
C24    C     0.90360   0.03010   0.82560   0.01267  Uiso   1.00
C25    C     0.90960   0.06350   0.88390   0.01267  Uiso   1.00
C26    C     0.20550   0.39590   0.49502   0.01267  Uiso   1.00
C27    C     0.09160   0.44220   0.49943   0.01267  Uiso   1.00
C28    C     0.03080   0.45220   0.44711   0.01267  Uiso   1.00
C29    C     0.05900   0.48740   0.55311   0.01267  Uiso   1.00
C30    C     0.11090   0.46680   0.61174   0.01267  Uiso   1.00
C31    C     0.07190   0.27890   0.00829   0.01267  Uiso   1.00
C32    C     0.03110   0.39230   0.00660   0.01267  Uiso   1.00
C33    C     0.91720   0.39480   0.03364   0.01267  Uiso   1.00
C34    C     0.11390   0.49810   0.97308   0.01267  Uiso   1.00
C35    C     0.82350   0.29130   0.07390   0.01267  Uiso   1.00
C36    C     0.43480   0.70630   0.45590   0.01267  Uiso   1.00
C37    C     0.60910   0.70360   0.41020   0.01267  Uiso   1.00
C38    C     0.58830   0.80510   0.39040   0.01267  Uiso   1.00
C39    C     0.42980   0.91050   0.42100   0.01267  Uiso   1.00
C40    C     0.50940   0.02280   0.46760   0.01267  Uiso   1.00
C41    C     0.64480   0.49660   0.16497   0.01267  Uiso   1.00
C42    C     0.78480   0.69220   0.19680   0.01267  Uiso   1.00
C43    C     0.71490   0.70460   0.15030   0.01267  Uiso   1.00
C44    C     0.52540   0.53900   0.07937   0.01267  Uiso   1.00
C45    C     0.43190   0.60780   0.08302   0.01267  Uiso   1.00
C46    C     0.34350   0.58140   0.13749   0.01267  Uiso   1.00
C47    C     0.25180   0.65220   0.13687   0.01267  Uiso   1.00
C48    C     0.03880   0.56050   0.19593   0.01267  Uiso   1.00
C49    C     0.11050   0.67300   0.27909   0.01267  Uiso   1.00
C50    C     0.22130   0.71410   0.24290   0.01267  Uiso   1.00
C51    C     0.51760   0.47340   0.29404   0.01267  Uiso   1.00
C52    C     0.55000   0.34160   0.34937   0.01267  Uiso   1.00
C53    C     0.42460   0.33630   0.36149   0.01267  Uiso   1.00
C54    C     0.28190   0.44800   0.32280   0.01267  Uiso   1.00
C55    C     0.15120   0.32610   0.30660   0.01267  Uiso   1.00
C56    C     0.15530   0.25500   0.24878   0.01267  Uiso   1.00
C57    C     0.02290   0.12430   0.23663   0.01267  Uiso   1.00
C58    C     0.99520   0.06990   0.12731   0.01267  Uiso   1.00
C59    C     0.09640   0.96990   0.17440   0.01267  Uiso   1.00
C60    C     0.09040   0.93650   0.11610   0.01267  Uiso   1.00
C61    C     0.79450   0.60410   0.50498   0.01267  Uiso   1.00
C62    C     0.90840   0.55780   0.50057   0.01267  Uiso   1.00
C63    C     0.96920   0.54780   0.55289   0.01267  Uiso   1.00
C64    C     0.94100   0.51260   0.44689   0.01267  Uiso   1.00
C65    C     0.88910   0.53320   0.38826   0.01267  Uiso   1.00
C66    C     0.92810   0.72110   0.99171   0.01267  Uiso   1.00
C67    C     0.96890   0.60770   0.99340   0.01267  Uiso   1.00
C68    C     0.08280   0.60520   0.96636   0.01267  Uiso   1.00
C69    C     0.88610   0.50190   0.02692   0.01267  Uiso   1.00
C70    C     0.17650   0.70870   0.92610   0.01267  Uiso   1.00
N1     N     0.52270   0.19380   0.58048   0.01267  Uiso   1.00
N2     N     0.48800   0.35870   0.54907   0.01267  Uiso   1.00
N3     N     0.39080   0.56910   0.69319   0.01267  Uiso   1.00
N4     N     0.59620   0.58030   0.67369   0.01267  Uiso   1.00
N5     N     0.96620   0.94550   0.81869   0.01267  Uiso   1.00
N6     N     0.97340   0.00070   0.91347   0.01267  Uiso   1.00
N7     N     0.25770   0.43790   0.79383   0.01267  Uiso   1.00
N8     N     0.37490   0.42120   0.87001   0.01267  Uiso   1.00
N9     N     0.82780   0.35930   0.80965   0.01267  Uiso   1.00
N10    N     0.00410   0.42360   0.75057   0.01267  Uiso   1.00
N11    N     0.47730   0.80620   0.41952   0.01267  Uiso   1.00
N12    N     0.51200   0.64130   0.45093   0.01267  Uiso   1.00
N13    N     0.60920   0.43090   0.30681   0.01267  Uiso   1.00
N14    N     0.40380   0.41970   0.32631   0.01267  Uiso   1.00
N15    N     0.03380   0.05450   0.18131   0.01267  Uiso   1.00
N16    N     0.02660   0.99930   0.08653   0.01267  Uiso   1.00
N17    N     0.74230   0.56210   0.20617   0.01267  Uiso   1.00
N18    N     0.62510   0.57880   0.12999   0.01267  Uiso   1.00
N19    N     0.17220   0.64070   0.19035   0.01267  Uiso   1.00
N20    N     0.99590   0.57640   0.24943   0.01267  Uiso   1.00
O1     O     0.18670   0.29530   0.46377   0.01267  Uiso   1.00
O2     O     0.31730   0.47750   0.52138   0.01267  Uiso   1.00
O3     O     0.11730   0.36150   0.61809   0.01267  Uiso   1.00
O4     O     0.13930   0.55980   0.65255   0.01267  Uiso   1.00
O5     O     0.97340   0.16440   0.01194   0.01267  Uiso   1.00
O6     O     0.19550   0.30390   0.00514   0.01267  Uiso   1.00
O7     O     0.87380   0.28210   0.12131   0.01267  Uiso   1.00
O8     O     0.69980   0.22800   0.05745   0.01267  Uiso   1.00
O9     O     0.81330   0.70470   0.53623   0.01267  Uiso   1.00
O10    O     0.68270   0.52250   0.47862   0.01267  Uiso   1.00
O11    O     0.88270   0.63850   0.38191   0.01267  Uiso   1.00
O12    O     0.86070   0.44020   0.34745   0.01267  Uiso   1.00
O13    O     0.02660   0.83560   0.98806   0.01267  Uiso   1.00
O14    O     0.80450   0.69610   0.99486   0.01267  Uiso   1.00
O15    O     0.12620   0.71790   0.87869   0.01267  Uiso   1.00
O16    O     0.30020   0.77200   0.94255   0.01267  Uiso   1.00
