data_WASNIO_clean
_audit_creation_date              2014-07-02
_audit_creation_method            'Materials Studio'
_symmetry_space_group_name_H-M    'P1'
_symmetry_Int_Tables_number       1
_symmetry_cell_setting            triclinic
loop_
_symmetry_equiv_pos_as_xyz
  x,y,z
_cell_length_a                    8.7362
_cell_length_b                    8.9023
_cell_length_c                    24.0590
_cell_angle_alpha                 93.7500
_cell_angle_beta                  90.0000
_cell_angle_gamma                 90.0000
loop_
_atom_site_label
_atom_site_type_symbol
_atom_site_fract_x
_atom_site_fract_y
_atom_site_fract_z
_atom_site_U_iso_or_equiv
_atom_site_adp_type
_atom_site_occupancy
Cu1    Cu    0.71266   0.75000   0.75000   0.01267  Uiso   1.00
Cu2    Cu    0.28734   0.25000   0.25000   0.01267  Uiso   1.00
Cu3    Cu    0.00000   0.50000   0.50000   0.01267  Uiso   1.00
Cu4    Cu    0.00000   0.00000   0.00000   0.01267  Uiso   1.00
H1     H     0.00060   0.55050   0.62970   0.01267  Uiso   1.00
H2     H     0.21560   0.23370   0.54010   0.01267  Uiso   1.00
H3     H     0.27960   0.20250   0.63800   0.01267  Uiso   1.00
H4     H     0.11730   0.52160   0.72430   0.01267  Uiso   1.00
H5     H     0.25590   0.41140   0.72670   0.01267  Uiso   1.00
H6     H     0.08550   0.35220   0.78930   0.01267  Uiso   1.00
H7     H     0.95280   0.34990   0.74640   0.01267  Uiso   1.00
H8     H     0.65380   0.66430   0.62370   0.01267  Uiso   1.00
H9     H     0.64790   0.39650   0.74510   0.01267  Uiso   1.00
H10    H     0.58600   0.24380   0.65920   0.01267  Uiso   1.00
H11    H     0.51940   0.31270   0.55700   0.01267  Uiso   1.00
H12    H     0.68330   0.37240   0.54370   0.01267  Uiso   1.00
H13    H     0.58420   0.61220   0.53160   0.01267  Uiso   1.00
H14    H     0.42000   0.55820   0.54810   0.01267  Uiso   1.00
H15    H     0.01800   0.00300   0.55010   0.01267  Uiso   1.00
H16    H     0.09780   0.94500   0.60270   0.01267  Uiso   1.00
H17    H     0.85480   0.05980   0.61940   0.01267  Uiso   1.00
H18    H     0.78070   0.92070   0.58660   0.01267  Uiso   1.00
H19    H     0.00060   0.94950   0.87030   0.01267  Uiso   1.00
H20    H     0.21560   0.26630   0.95990   0.01267  Uiso   1.00
H21    H     0.27960   0.29750   0.86200   0.01267  Uiso   1.00
H22    H     0.11730   0.97840   0.77570   0.01267  Uiso   1.00
H23    H     0.25590   0.08860   0.77330   0.01267  Uiso   1.00
H24    H     0.08550   0.14780   0.71070   0.01267  Uiso   1.00
H25    H     0.95280   0.15010   0.75360   0.01267  Uiso   1.00
H26    H     0.65380   0.83570   0.87630   0.01267  Uiso   1.00
H27    H     0.64790   0.10350   0.75490   0.01267  Uiso   1.00
H28    H     0.58600   0.25620   0.84080   0.01267  Uiso   1.00
H29    H     0.51940   0.18730   0.94300   0.01267  Uiso   1.00
H30    H     0.68330   0.12760   0.95630   0.01267  Uiso   1.00
H31    H     0.58420   0.88780   0.96840   0.01267  Uiso   1.00
H32    H     0.42000   0.94180   0.95190   0.01267  Uiso   1.00
H33    H     0.01800   0.49700   0.94990   0.01267  Uiso   1.00
H34    H     0.09780   0.55500   0.89730   0.01267  Uiso   1.00
H35    H     0.85480   0.44020   0.88060   0.01267  Uiso   1.00
H36    H     0.78070   0.57930   0.91340   0.01267  Uiso   1.00
H37    H     0.99940   0.44950   0.37030   0.01267  Uiso   1.00
H38    H     0.78440   0.76630   0.45990   0.01267  Uiso   1.00
H39    H     0.72040   0.79750   0.36200   0.01267  Uiso   1.00
H40    H     0.88270   0.47840   0.27570   0.01267  Uiso   1.00
H41    H     0.74410   0.58860   0.27330   0.01267  Uiso   1.00
H42    H     0.91450   0.64780   0.21070   0.01267  Uiso   1.00
H43    H     0.04720   0.65010   0.25360   0.01267  Uiso   1.00
H44    H     0.34620   0.33570   0.37630   0.01267  Uiso   1.00
H45    H     0.35210   0.60350   0.25490   0.01267  Uiso   1.00
H46    H     0.41400   0.75620   0.34080   0.01267  Uiso   1.00
H47    H     0.48060   0.68730   0.44300   0.01267  Uiso   1.00
H48    H     0.31670   0.62760   0.45630   0.01267  Uiso   1.00
H49    H     0.41580   0.38780   0.46840   0.01267  Uiso   1.00
H50    H     0.58000   0.44180   0.45190   0.01267  Uiso   1.00
H51    H     0.98200   0.99700   0.44990   0.01267  Uiso   1.00
H52    H     0.90220   0.05500   0.39730   0.01267  Uiso   1.00
H53    H     0.14520   0.94020   0.38060   0.01267  Uiso   1.00
H54    H     0.21930   0.07930   0.41340   0.01267  Uiso   1.00
H55    H     0.99940   0.05050   0.12970   0.01267  Uiso   1.00
H56    H     0.78440   0.73370   0.04010   0.01267  Uiso   1.00
H57    H     0.72040   0.70250   0.13800   0.01267  Uiso   1.00
H58    H     0.88270   0.02160   0.22430   0.01267  Uiso   1.00
H59    H     0.74410   0.91140   0.22670   0.01267  Uiso   1.00
H60    H     0.91450   0.85220   0.28930   0.01267  Uiso   1.00
H61    H     0.04720   0.84990   0.24640   0.01267  Uiso   1.00
H62    H     0.34620   0.16430   0.12370   0.01267  Uiso   1.00
H63    H     0.35210   0.89650   0.24510   0.01267  Uiso   1.00
H64    H     0.41400   0.74380   0.15920   0.01267  Uiso   1.00
H65    H     0.48060   0.81270   0.05700   0.01267  Uiso   1.00
H66    H     0.31670   0.87240   0.04370   0.01267  Uiso   1.00
H67    H     0.41580   0.11220   0.03160   0.01267  Uiso   1.00
H68    H     0.58000   0.05820   0.04810   0.01267  Uiso   1.00
H69    H     0.98200   0.50300   0.05010   0.01267  Uiso   1.00
H70    H     0.90220   0.44500   0.10270   0.01267  Uiso   1.00
H71    H     0.14520   0.55980   0.11940   0.01267  Uiso   1.00
H72    H     0.21930   0.42070   0.08660   0.01267  Uiso   1.00
C1     C     0.06140   0.46780   0.61910   0.01267  Uiso   1.00
C2     C     0.17980   0.29360   0.57040   0.01267  Uiso   1.00
C3     C     0.21600   0.27560   0.62440   0.01267  Uiso   1.00
C4     C     0.14930   0.41830   0.71580   0.01267  Uiso   1.00
C5     C     0.05870   0.32070   0.75120   0.01267  Uiso   1.00
C6     C     0.64510   0.57850   0.64347   0.01267  Uiso   1.00
C7     C     0.64190   0.43230   0.70966   0.01267  Uiso   1.00
C8     C     0.60710   0.34630   0.66235   0.01267  Uiso   1.00
C9     C     0.58580   0.40010   0.56073   0.01267  Uiso   1.00
C10    C     0.51520   0.52660   0.53017   0.01267  Uiso   1.00
C11    C     0.03470   0.77520   0.54705   0.01267  Uiso   1.00
C12    C     0.01250   0.92740   0.57733   0.01267  Uiso   1.00
C13    C     0.86630   0.95270   0.61014   0.01267  Uiso   1.00
C14    C     0.85800   0.87160   0.66308   0.01267  Uiso   1.00
C15    C     0.06140   0.03220   0.88090   0.01267  Uiso   1.00
C16    C     0.17980   0.20640   0.92960   0.01267  Uiso   1.00
C17    C     0.21600   0.22440   0.87560   0.01267  Uiso   1.00
C18    C     0.14930   0.08170   0.78420   0.01267  Uiso   1.00
C19    C     0.05870   0.17930   0.74880   0.01267  Uiso   1.00
C20    C     0.64510   0.92150   0.85653   0.01267  Uiso   1.00
C21    C     0.64190   0.06770   0.79034   0.01267  Uiso   1.00
C22    C     0.60710   0.15370   0.83765   0.01267  Uiso   1.00
C23    C     0.58580   0.09990   0.93927   0.01267  Uiso   1.00
C24    C     0.51520   0.97340   0.96983   0.01267  Uiso   1.00
C25    C     0.03470   0.72480   0.95295   0.01267  Uiso   1.00
C26    C     0.01250   0.57260   0.92267   0.01267  Uiso   1.00
C27    C     0.86630   0.54730   0.88986   0.01267  Uiso   1.00
C28    C     0.85800   0.62840   0.83692   0.01267  Uiso   1.00
C29    C     0.93860   0.53220   0.38090   0.01267  Uiso   1.00
C30    C     0.82020   0.70640   0.42960   0.01267  Uiso   1.00
C31    C     0.78400   0.72440   0.37560   0.01267  Uiso   1.00
C32    C     0.85070   0.58170   0.28420   0.01267  Uiso   1.00
C33    C     0.94130   0.67930   0.24880   0.01267  Uiso   1.00
C34    C     0.35490   0.42150   0.35653   0.01267  Uiso   1.00
C35    C     0.35810   0.56770   0.29034   0.01267  Uiso   1.00
C36    C     0.39290   0.65370   0.33765   0.01267  Uiso   1.00
C37    C     0.41420   0.59990   0.43927   0.01267  Uiso   1.00
C38    C     0.48480   0.47340   0.46983   0.01267  Uiso   1.00
C39    C     0.96530   0.22480   0.45295   0.01267  Uiso   1.00
C40    C     0.98750   0.07260   0.42267   0.01267  Uiso   1.00
C41    C     0.13370   0.04730   0.38986   0.01267  Uiso   1.00
C42    C     0.14200   0.12840   0.33692   0.01267  Uiso   1.00
C43    C     0.93860   0.96780   0.11910   0.01267  Uiso   1.00
C44    C     0.82020   0.79360   0.07040   0.01267  Uiso   1.00
C45    C     0.78400   0.77560   0.12440   0.01267  Uiso   1.00
C46    C     0.85070   0.91830   0.21580   0.01267  Uiso   1.00
C47    C     0.94130   0.82070   0.25120   0.01267  Uiso   1.00
C48    C     0.35490   0.07850   0.14347   0.01267  Uiso   1.00
C49    C     0.35810   0.93230   0.20966   0.01267  Uiso   1.00
C50    C     0.39290   0.84630   0.16235   0.01267  Uiso   1.00
C51    C     0.41420   0.90010   0.06073   0.01267  Uiso   1.00
C52    C     0.48480   0.02660   0.03017   0.01267  Uiso   1.00
C53    C     0.96530   0.27520   0.04705   0.01267  Uiso   1.00
C54    C     0.98750   0.42740   0.07733   0.01267  Uiso   1.00
C55    C     0.13370   0.45270   0.11014   0.01267  Uiso   1.00
C56    C     0.14200   0.37160   0.16308   0.01267  Uiso   1.00
N1     N     0.08170   0.41470   0.56747   0.01267  Uiso   1.00
N2     N     0.13990   0.38680   0.65481   0.01267  Uiso   1.00
N3     N     0.66610   0.57590   0.69797   0.01267  Uiso   1.00
N4     N     0.61010   0.44280   0.62073   0.01267  Uiso   1.00
N5     N     0.08170   0.08530   0.93253   0.01267  Uiso   1.00
N6     N     0.13990   0.11320   0.84519   0.01267  Uiso   1.00
N7     N     0.66610   0.92410   0.80203   0.01267  Uiso   1.00
N8     N     0.61010   0.05720   0.87927   0.01267  Uiso   1.00
N9     N     0.91830   0.58530   0.43253   0.01267  Uiso   1.00
N10    N     0.86010   0.61320   0.34519   0.01267  Uiso   1.00
N11    N     0.33390   0.42410   0.30203   0.01267  Uiso   1.00
N12    N     0.38990   0.55720   0.37927   0.01267  Uiso   1.00
N13    N     0.91830   0.91470   0.06747   0.01267  Uiso   1.00
N14    N     0.86010   0.88680   0.15481   0.01267  Uiso   1.00
N15    N     0.33390   0.07590   0.19797   0.01267  Uiso   1.00
N16    N     0.38990   0.94280   0.12073   0.01267  Uiso   1.00
O1     O     0.96570   0.79870   0.68006   0.01267  Uiso   1.00
O2     O     0.72850   0.88220   0.68844   0.01267  Uiso   1.00
O3     O     0.92590   0.68030   0.54627   0.01267  Uiso   1.00
O4     O     0.15750   0.75030   0.52305   0.01267  Uiso   1.00
O5     O     0.96570   0.70130   0.81994   0.01267  Uiso   1.00
O6     O     0.72850   0.61780   0.81156   0.01267  Uiso   1.00
O7     O     0.92590   0.81970   0.95373   0.01267  Uiso   1.00
O8     O     0.15750   0.74970   0.97695   0.01267  Uiso   1.00
O9     O     0.03430   0.20130   0.31994   0.01267  Uiso   1.00
O10    O     0.27150   0.11780   0.31156   0.01267  Uiso   1.00
O11    O     0.07410   0.31970   0.45373   0.01267  Uiso   1.00
O12    O     0.84250   0.24970   0.47695   0.01267  Uiso   1.00
O13    O     0.03430   0.29870   0.18006   0.01267  Uiso   1.00
O14    O     0.27150   0.38220   0.18844   0.01267  Uiso   1.00
O15    O     0.07410   0.18030   0.04627   0.01267  Uiso   1.00
O16    O     0.84250   0.25030   0.02305   0.01267  Uiso   1.00
