data_image0
_cell_length_a       29.956
_cell_length_b       9.7331
_cell_length_c       15.5271
_cell_angle_alpha    90
_cell_angle_beta     90
_cell_angle_gamma    90

_symmetry_space_group_name_H-M    "P 1"
_symmetry_int_tables_number       1

loop_
  _symmetry_equiv_pos_as_xyz
  'x, y, z'

loop_
  _atom_site_label
  _atom_site_occupancy
  _atom_site_fract_x
  _atom_site_fract_y
  _atom_site_fract_z
  _atom_site_thermal_displace_type
  _atom_site_B_iso_or_equiv
  _atom_site_type_symbol
  S1       1.0000 0.05245  0.69340  0.11830  Biso   1.000  S
  S2       1.0000 0.05587  0.39450  0.10890  Biso   1.000  S
  N1       1.0000 0.27680  0.04520  0.13620  Biso   1.000  N
  N2       1.0000 0.20720  0.19760  0.21330  Biso   1.000  N
  C1       1.0000 0.02360  0.54210  0.11260  Biso   1.000  C
  C2       1.0000 0.16320  0.91920  0.24120  Biso   1.000  C
  H1       1.0000 0.15570  0.99410  0.27540  Biso   1.000  H
  N3       1.0000 0.20560  0.90650  0.21380  Biso   1.000  N
  C3       1.0000 0.10470  0.48130  0.14110  Biso   1.000  C
  C4       1.0000 0.15640  0.28140  0.10750  Biso   1.000  C
  H2       1.0000 0.14450  0.27400  0.05240  Biso   1.000  H
  C5       1.0000 0.18780  0.19290  0.13520  Biso   1.000  C
  H3       1.0000 0.19680  0.12370  0.09770  Biso   1.000  H
  C6       1.0000 0.13050  0.82480  0.22030  Biso   1.000  C
  H4       1.0000 0.10160  0.83850  0.24080  Biso   1.000  H
  C7       1.0000 0.10400  0.61680  0.14500  Biso   1.000  C
  C8       1.0000 0.13920  0.71200  0.17060  Biso   1.000  C
  C9       1.0000 0.14190  0.38700  0.16510  Biso   1.000  C
  C10      1.0000 0.29250  0.02550  0.06990  Biso   1.000  C
  C11      1.0000 0.16370  0.39680  0.24370  Biso   1.000  C
  H5       1.0000 0.15710  0.46760  0.28190  Biso   1.000  H
  C12      1.0000 0.21490  0.79500  0.16470  Biso   1.000  C
  H6       1.0000 0.24400  0.78370  0.14520  Biso   1.000  H
  C13      1.0000 0.19530  0.29950  0.26400  Biso   1.000  C
  H7       1.0000 0.20920  0.30620  0.31740  Biso   1.000  H
  C14      1.0000 0.18350  0.69670  0.14170  Biso   1.000  C
  H8       1.0000 0.19150  0.62200  0.10770  Biso   1.000  H
  S3       1.0000 0.44755  0.30660  0.61830  Biso   1.000  S
  S4       1.0000 0.44413  0.60550  0.60890  Biso   1.000  S
  N4       1.0000 0.22320  0.95480  0.63620  Biso   1.000  N
  N5       1.0000 0.29280  0.80240  0.71330  Biso   1.000  N
  C15      1.0000 0.47640  0.45790  0.61260  Biso   1.000  C
  C16      1.0000 0.33680  0.08080  0.74120  Biso   1.000  C
  H9       1.0000 0.34430  0.00590  0.77540  Biso   1.000  H
  N6       1.0000 0.29440  0.09350  0.71380  Biso   1.000  N
  C17      1.0000 0.39530  0.51870  0.64110  Biso   1.000  C
  C18      1.0000 0.34360  0.71860  0.60750  Biso   1.000  C
  H10      1.0000 0.35550  0.72600  0.55240  Biso   1.000  H
  C19      1.0000 0.31220  0.80710  0.63520  Biso   1.000  C
  H11      1.0000 0.30320  0.87630  0.59770  Biso   1.000  H
  C20      1.0000 0.36950  0.17520  0.72030  Biso   1.000  C
  H12      1.0000 0.39840  0.16150  0.74080  Biso   1.000  H
  C21      1.0000 0.39600  0.38320  0.64500  Biso   1.000  C
  C22      1.0000 0.36080  0.28800  0.67060  Biso   1.000  C
  C23      1.0000 0.35810  0.61300  0.66510  Biso   1.000  C
  C24      1.0000 0.20750  0.97450  0.56990  Biso   1.000  C
  C25      1.0000 0.33630  0.60320  0.74370  Biso   1.000  C
  H13      1.0000 0.34290  0.53240  0.78190  Biso   1.000  H
  C26      1.0000 0.28510  0.20500  0.66470  Biso   1.000  C
  H14      1.0000 0.25600  0.21630  0.64520  Biso   1.000  H
  C27      1.0000 0.30470  0.70050  0.76400  Biso   1.000  C
  H15      1.0000 0.29080  0.69380  0.81740  Biso   1.000  H
  C28      1.0000 0.31650  0.30330  0.64170  Biso   1.000  C
  H16      1.0000 0.30850  0.37800  0.60770  Biso   1.000  H
  S5       1.0000 0.44755  0.69340  0.38170  Biso   1.000  S
  S6       1.0000 0.44413  0.39450  0.39110  Biso   1.000  S
  N7       1.0000 0.22320  0.04520  0.36380  Biso   1.000  N
  N8       1.0000 0.29280  0.19760  0.28670  Biso   1.000  N
  C29      1.0000 0.47640  0.54210  0.38740  Biso   1.000  C
  C30      1.0000 0.33680  0.91920  0.25880  Biso   1.000  C
  H17      1.0000 0.34430  0.99410  0.22460  Biso   1.000  H
  N9       1.0000 0.29440  0.90650  0.28620  Biso   1.000  N
  C31      1.0000 0.39530  0.48130  0.35890  Biso   1.000  C
  C32      1.0000 0.34360  0.28140  0.39250  Biso   1.000  C
  H18      1.0000 0.35550  0.27400  0.44760  Biso   1.000  H
  C33      1.0000 0.31220  0.19290  0.36480  Biso   1.000  C
  H19      1.0000 0.30320  0.12370  0.40230  Biso   1.000  H
  C34      1.0000 0.36950  0.82480  0.27970  Biso   1.000  C
  H20      1.0000 0.39840  0.83850  0.25920  Biso   1.000  H
  C35      1.0000 0.39600  0.61680  0.35500  Biso   1.000  C
  C36      1.0000 0.36080  0.71200  0.32940  Biso   1.000  C
  C37      1.0000 0.35810  0.38700  0.33490  Biso   1.000  C
  C38      1.0000 0.20750  0.02550  0.43010  Biso   1.000  C
  C39      1.0000 0.33630  0.39680  0.25630  Biso   1.000  C
  H21      1.0000 0.34290  0.46760  0.21810  Biso   1.000  H
  C40      1.0000 0.28510  0.79500  0.33530  Biso   1.000  C
  H22      1.0000 0.25600  0.78370  0.35480  Biso   1.000  H
  C41      1.0000 0.30470  0.29950  0.23600  Biso   1.000  C
  H23      1.0000 0.29080  0.30620  0.18260  Biso   1.000  H
  C42      1.0000 0.31650  0.69670  0.35830  Biso   1.000  C
  H24      1.0000 0.30850  0.62200  0.39230  Biso   1.000  H
  S7       1.0000 0.05245  0.30660  0.88170  Biso   1.000  S
  S8       1.0000 0.05587  0.60550  0.89110  Biso   1.000  S
  N10      1.0000 0.27680  0.95480  0.86380  Biso   1.000  N
  N11      1.0000 0.20720  0.80240  0.78670  Biso   1.000  N
  C43      1.0000 0.02360  0.45790  0.88740  Biso   1.000  C
  C44      1.0000 0.16320  0.08080  0.75880  Biso   1.000  C
  H25      1.0000 0.15570  0.00590  0.72460  Biso   1.000  H
  N12      1.0000 0.20560  0.09350  0.78620  Biso   1.000  N
  C45      1.0000 0.10470  0.51870  0.85890  Biso   1.000  C
  C46      1.0000 0.15640  0.71860  0.89250  Biso   1.000  C
  H26      1.0000 0.14450  0.72600  0.94760  Biso   1.000  H
  C47      1.0000 0.18780  0.80710  0.86480  Biso   1.000  C
  H27      1.0000 0.19680  0.87630  0.90230  Biso   1.000  H
  C48      1.0000 0.13050  0.17520  0.77970  Biso   1.000  C
  H28      1.0000 0.10160  0.16150  0.75920  Biso   1.000  H
  C49      1.0000 0.10400  0.38320  0.85500  Biso   1.000  C
  C50      1.0000 0.13920  0.28800  0.82940  Biso   1.000  C
  C51      1.0000 0.14190  0.61300  0.83490  Biso   1.000  C
  C52      1.0000 0.29250  0.97450  0.93010  Biso   1.000  C
  C53      1.0000 0.16370  0.60320  0.75630  Biso   1.000  C
  H29      1.0000 0.15710  0.53240  0.71810  Biso   1.000  H
  C54      1.0000 0.21490  0.20500  0.83530  Biso   1.000  C
  H30      1.0000 0.24400  0.21630  0.85480  Biso   1.000  H
  C55      1.0000 0.19530  0.70050  0.73600  Biso   1.000  C
  H31      1.0000 0.20920  0.69380  0.68260  Biso   1.000  H
  C56      1.0000 0.18350  0.30330  0.85830  Biso   1.000  C
  H32      1.0000 0.19150  0.37800  0.89230  Biso   1.000  H
  S9       1.0000 0.94755  0.30660  0.88170  Biso   1.000  S
  S10      1.0000 0.94413  0.60550  0.89110  Biso   1.000  S
  N13      1.0000 0.72320  0.95480  0.86380  Biso   1.000  N
  N14      1.0000 0.79280  0.80240  0.78670  Biso   1.000  N
  C57      1.0000 0.97640  0.45790  0.88740  Biso   1.000  C
  C58      1.0000 0.83680  0.08080  0.75880  Biso   1.000  C
  H33      1.0000 0.84430  0.00590  0.72460  Biso   1.000  H
  N15      1.0000 0.79440  0.09350  0.78620  Biso   1.000  N
  C59      1.0000 0.89530  0.51870  0.85890  Biso   1.000  C
  C60      1.0000 0.84360  0.71860  0.89250  Biso   1.000  C
  H34      1.0000 0.85550  0.72600  0.94760  Biso   1.000  H
  C61      1.0000 0.81220  0.80710  0.86480  Biso   1.000  C
  H35      1.0000 0.80320  0.87630  0.90230  Biso   1.000  H
  C62      1.0000 0.86950  0.17520  0.77970  Biso   1.000  C
  H36      1.0000 0.89840  0.16150  0.75920  Biso   1.000  H
  C63      1.0000 0.89600  0.38320  0.85500  Biso   1.000  C
  C64      1.0000 0.86080  0.28800  0.82940  Biso   1.000  C
  C65      1.0000 0.85810  0.61300  0.83490  Biso   1.000  C
  C66      1.0000 0.70750  0.97450  0.93010  Biso   1.000  C
  C67      1.0000 0.83630  0.60320  0.75630  Biso   1.000  C
  H37      1.0000 0.84290  0.53240  0.71810  Biso   1.000  H
  C68      1.0000 0.78510  0.20500  0.83530  Biso   1.000  C
  H38      1.0000 0.75600  0.21630  0.85480  Biso   1.000  H
  C69      1.0000 0.80470  0.70050  0.73600  Biso   1.000  C
  H39      1.0000 0.79080  0.69380  0.68260  Biso   1.000  H
  C70      1.0000 0.81650  0.30330  0.85830  Biso   1.000  C
  H40      1.0000 0.80850  0.37800  0.89230  Biso   1.000  H
  S11      1.0000 0.55245  0.69340  0.38170  Biso   1.000  S
  S12      1.0000 0.55587  0.39450  0.39110  Biso   1.000  S
  N16      1.0000 0.77680  0.04520  0.36380  Biso   1.000  N
  N17      1.0000 0.70720  0.19760  0.28670  Biso   1.000  N
  C71      1.0000 0.52360  0.54210  0.38740  Biso   1.000  C
  C72      1.0000 0.66320  0.91920  0.25880  Biso   1.000  C
  H41      1.0000 0.65570  0.99410  0.22460  Biso   1.000  H
  N18      1.0000 0.70560  0.90650  0.28620  Biso   1.000  N
  C73      1.0000 0.60470  0.48130  0.35890  Biso   1.000  C
  C74      1.0000 0.65640  0.28140  0.39250  Biso   1.000  C
  H42      1.0000 0.64450  0.27400  0.44760  Biso   1.000  H
  C75      1.0000 0.68780  0.19290  0.36480  Biso   1.000  C
  H43      1.0000 0.69680  0.12370  0.40230  Biso   1.000  H
  C76      1.0000 0.63050  0.82480  0.27970  Biso   1.000  C
  H44      1.0000 0.60160  0.83850  0.25920  Biso   1.000  H
  C77      1.0000 0.60400  0.61680  0.35500  Biso   1.000  C
  C78      1.0000 0.63920  0.71200  0.32940  Biso   1.000  C
  C79      1.0000 0.64190  0.38700  0.33490  Biso   1.000  C
  C80      1.0000 0.79250  0.02550  0.43010  Biso   1.000  C
  C81      1.0000 0.66370  0.39680  0.25630  Biso   1.000  C
  H45      1.0000 0.65710  0.46760  0.21810  Biso   1.000  H
  C82      1.0000 0.71490  0.79500  0.33530  Biso   1.000  C
  H46      1.0000 0.74400  0.78370  0.35480  Biso   1.000  H
  C83      1.0000 0.69530  0.29950  0.23600  Biso   1.000  C
  H47      1.0000 0.70920  0.30620  0.18260  Biso   1.000  H
  C84      1.0000 0.68350  0.69670  0.35830  Biso   1.000  C
  H48      1.0000 0.69150  0.62200  0.39230  Biso   1.000  H
  S13      1.0000 0.55245  0.30660  0.61830  Biso   1.000  S
  S14      1.0000 0.55587  0.60550  0.60890  Biso   1.000  S
  N19      1.0000 0.77680  0.95480  0.63620  Biso   1.000  N
  N20      1.0000 0.70720  0.80240  0.71330  Biso   1.000  N
  C85      1.0000 0.52360  0.45790  0.61260  Biso   1.000  C
  C86      1.0000 0.66320  0.08080  0.74120  Biso   1.000  C
  H49      1.0000 0.65570  0.00590  0.77540  Biso   1.000  H
  N21      1.0000 0.70560  0.09350  0.71380  Biso   1.000  N
  C87      1.0000 0.60470  0.51870  0.64110  Biso   1.000  C
  C88      1.0000 0.65640  0.71860  0.60750  Biso   1.000  C
  H50      1.0000 0.64450  0.72600  0.55240  Biso   1.000  H
  C89      1.0000 0.68780  0.80710  0.63520  Biso   1.000  C
  H51      1.0000 0.69680  0.87630  0.59770  Biso   1.000  H
  C90      1.0000 0.63050  0.17520  0.72030  Biso   1.000  C
  H52      1.0000 0.60160  0.16150  0.74080  Biso   1.000  H
  C91      1.0000 0.60400  0.38320  0.64500  Biso   1.000  C
  C92      1.0000 0.63920  0.28800  0.67060  Biso   1.000  C
  C93      1.0000 0.64190  0.61300  0.66510  Biso   1.000  C
  C94      1.0000 0.79250  0.97450  0.56990  Biso   1.000  C
  C95      1.0000 0.66370  0.60320  0.74370  Biso   1.000  C
  H53      1.0000 0.65710  0.53240  0.78190  Biso   1.000  H
  C96      1.0000 0.71490  0.20500  0.66470  Biso   1.000  C
  H54      1.0000 0.74400  0.21630  0.64520  Biso   1.000  H
  C97      1.0000 0.69530  0.70050  0.76400  Biso   1.000  C
  H55      1.0000 0.70920  0.69380  0.81740  Biso   1.000  H
  C98      1.0000 0.68350  0.30330  0.64170  Biso   1.000  C
  H56      1.0000 0.69150  0.37800  0.60770  Biso   1.000  H
  S15      1.0000 0.94755  0.69340  0.11830  Biso   1.000  S
  S16      1.0000 0.94413  0.39450  0.10890  Biso   1.000  S
  N22      1.0000 0.72320  0.04520  0.13620  Biso   1.000  N
  N23      1.0000 0.79280  0.19760  0.21330  Biso   1.000  N
  C99      1.0000 0.97640  0.54210  0.11260  Biso   1.000  C
  C100     1.0000 0.83680  0.91920  0.24120  Biso   1.000  C
  H57      1.0000 0.84430  0.99410  0.27540  Biso   1.000  H
  N24      1.0000 0.79440  0.90650  0.21380  Biso   1.000  N
  C101     1.0000 0.89530  0.48130  0.14110  Biso   1.000  C
  C102     1.0000 0.84360  0.28140  0.10750  Biso   1.000  C
  H58      1.0000 0.85550  0.27400  0.05240  Biso   1.000  H
  C103     1.0000 0.81220  0.19290  0.13520  Biso   1.000  C
  H59      1.0000 0.80320  0.12370  0.09770  Biso   1.000  H
  C104     1.0000 0.86950  0.82480  0.22030  Biso   1.000  C
  H60      1.0000 0.89840  0.83850  0.24080  Biso   1.000  H
  C105     1.0000 0.89600  0.61680  0.14500  Biso   1.000  C
  C106     1.0000 0.86080  0.71200  0.17060  Biso   1.000  C
  C107     1.0000 0.85810  0.38700  0.16510  Biso   1.000  C
  C108     1.0000 0.70750  0.02550  0.06990  Biso   1.000  C
  C109     1.0000 0.83630  0.39680  0.24370  Biso   1.000  C
  H61      1.0000 0.84290  0.46760  0.28190  Biso   1.000  H
  C110     1.0000 0.78510  0.79500  0.16470  Biso   1.000  C
  H62      1.0000 0.75600  0.78370  0.14520  Biso   1.000  H
  C111     1.0000 0.80470  0.29950  0.26400  Biso   1.000  C
  H63      1.0000 0.79080  0.30620  0.31740  Biso   1.000  H
  C112     1.0000 0.81650  0.69670  0.14170  Biso   1.000  C
  H64      1.0000 0.80850  0.62200  0.10770  Biso   1.000  H
  Fe1      1.0000 0.25000  0.05020  0.25000  Biso   1.000  Fe
  Fe2      1.0000 0.25000  0.94980  0.75000  Biso   1.000  Fe
  Fe3      1.0000 0.75000  0.94980  0.75000  Biso   1.000  Fe
  Fe4      1.0000 0.75000  0.05020  0.25000  Biso   1.000  Fe
  N25      1.0000 0.31360  0.00000  0.00000  Biso   1.000  N
  N26      1.0000 0.18640  0.00000  0.50000  Biso   1.000  N
  N27      1.0000 0.68640  0.00000  0.00000  Biso   1.000  N
  N28      1.0000 0.81360  0.00000  0.50000  Biso   1.000  N
