data_WASVES_clean
_audit_creation_date              2014-07-02
_audit_creation_method            'Materials Studio'
_symmetry_space_group_name_H-M    'P1'
_symmetry_Int_Tables_number       1
_symmetry_cell_setting            triclinic
loop_
_symmetry_equiv_pos_as_xyz
  x,y,z
_cell_length_a                    12.3192
_cell_length_b                    12.3654
_cell_length_c                    25.1114
_cell_angle_alpha                 81.8970
_cell_angle_beta                  85.3890
_cell_angle_gamma                 88.5640
loop_
_atom_site_label
_atom_site_type_symbol
_atom_site_fract_x
_atom_site_fract_y
_atom_site_fract_z
_atom_site_U_iso_or_equiv
_atom_site_adp_type
_atom_site_occupancy
La1    La    0.72324   0.09475   0.58525   0.01267  Uiso   1.00
La2    La    0.99376   0.81801   0.83910   0.01267  Uiso   1.00
La3    La    0.69951   0.32924   0.86288   0.01267  Uiso   1.00
La4    La    0.21774   0.34064   0.64981   0.01267  Uiso   1.00
La5    La    0.27676   0.90525   0.41475   0.01267  Uiso   1.00
La6    La    0.00624   0.18199   0.16090   0.01267  Uiso   1.00
La7    La    0.30049   0.67076   0.13712   0.01267  Uiso   1.00
La8    La    0.78226   0.65936   0.35019   0.01267  Uiso   1.00
Mo1    Mo    0.93590   0.89841   0.67143   0.01267  Uiso   1.00
Mo2    Mo    0.04261   0.12866   0.59284   0.01267  Uiso   1.00
Mo3    Mo    0.17012   0.01877   0.70703   0.01267  Uiso   1.00
Mo4    Mo    0.76117   0.89498   0.73848   0.01267  Uiso   1.00
Mo5    Mo    0.62066   0.14479   0.75034   0.01267  Uiso   1.00
Mo6    Mo    0.74242   0.00648   0.85916   0.01267  Uiso   1.00
Mo7    Mo    0.95009   0.12098   0.88913   0.01267  Uiso   1.00
Mo8    Mo    0.17019   0.10396   0.79558   0.01267  Uiso   1.00
Mo9    Mo    0.02650   0.35394   0.80344   0.01267  Uiso   1.00
Mo10   Mo    0.92603   0.44255   0.72249   0.01267  Uiso   1.00
Mo11   Mo    0.68543   0.32351   0.69199   0.01267  Uiso   1.00
Mo12   Mo    0.91085   0.34815   0.60090   0.01267  Uiso   1.00
Mo13   Mo    0.06410   0.10159   0.32857   0.01267  Uiso   1.00
Mo14   Mo    0.95739   0.87134   0.40716   0.01267  Uiso   1.00
Mo15   Mo    0.82988   0.98123   0.29297   0.01267  Uiso   1.00
Mo16   Mo    0.23883   0.10502   0.26152   0.01267  Uiso   1.00
Mo17   Mo    0.37934   0.85521   0.24966   0.01267  Uiso   1.00
Mo18   Mo    0.25758   0.99352   0.14084   0.01267  Uiso   1.00
Mo19   Mo    0.04991   0.87902   0.11087   0.01267  Uiso   1.00
Mo20   Mo    0.82981   0.89604   0.20442   0.01267  Uiso   1.00
Mo21   Mo    0.97350   0.64606   0.19656   0.01267  Uiso   1.00
Mo22   Mo    0.07397   0.55745   0.27751   0.01267  Uiso   1.00
Mo23   Mo    0.31457   0.67649   0.30801   0.01267  Uiso   1.00
Mo24   Mo    0.08915   0.65185   0.39910   0.01267  Uiso   1.00
P1     P     0.91171   0.15092   0.73534   0.01267  Uiso   1.00
P2     P     0.08829   0.84908   0.26466   0.01267  Uiso   1.00
H1     H     0.98960   0.31660   0.99090   0.01267  Uiso   1.00
H2     H     0.68610   0.49750   0.51280   0.01267  Uiso   1.00
H3     H     0.01040   0.68340   0.00910   0.01267  Uiso   1.00
H4     H     0.31390   0.50250   0.48720   0.01267  Uiso   1.00
C1     C     0.83820   0.42230   0.93660   0.01267  Uiso   1.00
C2     C     0.92230   0.46430   0.97110   0.01267  Uiso   1.00
C3     C     0.92400   0.57520   0.97690   0.01267  Uiso   1.00
C4     C     0.99470   0.39020   0.99440   0.01267  Uiso   1.00
C5     C     0.83940   0.65990   0.95290   0.01267  Uiso   1.00
C6     C     0.44090   0.40330   0.51170   0.01267  Uiso   1.00
C7     C     0.61210   0.49830   0.50770   0.01267  Uiso   1.00
C8     C     0.55180   0.40090   0.51930   0.01267  Uiso   1.00
C9     C     0.61140   0.29820   0.54010   0.01267  Uiso   1.00
C10    C     0.37070   0.29950   0.52130   0.01267  Uiso   1.00
C11    C     0.16180   0.57770   0.06340   0.01267  Uiso   1.00
C12    C     0.07770   0.53570   0.02890   0.01267  Uiso   1.00
C13    C     0.07600   0.42480   0.02310   0.01267  Uiso   1.00
C14    C     0.00530   0.60980   0.00560   0.01267  Uiso   1.00
C15    C     0.16060   0.34010   0.04710   0.01267  Uiso   1.00
C16    C     0.55910   0.59670   0.48830   0.01267  Uiso   1.00
C17    C     0.38790   0.50170   0.49230   0.01267  Uiso   1.00
C18    C     0.44820   0.59910   0.48070   0.01267  Uiso   1.00
C19    C     0.38860   0.70180   0.45990   0.01267  Uiso   1.00
C20    C     0.62930   0.70050   0.47870   0.01267  Uiso   1.00
O1     O     0.91400   0.86530   0.75010   0.01267  Uiso   1.00
O2     O     0.79510   0.96850   0.66620   0.01267  Uiso   1.00
O3     O     0.09650   0.89300   0.68240   0.01267  Uiso   1.00
O4     O     0.97800   0.99520   0.60080   0.01267  Uiso   1.00
O5     O     0.98050   0.08420   0.69720   0.01267  Uiso   1.00
O6     O     0.16440   0.08670   0.62820   0.01267  Uiso   1.00
O7     O     0.89380   0.19280   0.59320   0.01267  Uiso   1.00
O8     O     0.05510   0.27650   0.61270   0.01267  Uiso   1.00
O9     O     0.10770   0.96900   0.78030   0.01267  Uiso   1.00
O10    O     0.18840   0.17050   0.72040   0.01267  Uiso   1.00
O11    O     0.62070   0.98210   0.73960   0.01267  Uiso   1.00
O12    O     0.74780   0.89020   0.81900   0.01267  Uiso   1.00
O13    O     0.80840   0.08440   0.76050   0.01267  Uiso   1.00
O14    O     0.67420   0.17360   0.67470   0.01267  Uiso   1.00
O15    O     0.67760   0.27910   0.77150   0.01267  Uiso   1.00
O16    O     0.62940   0.08090   0.83030   0.01267  Uiso   1.00
O17    O     0.90070   0.98170   0.86590   0.01267  Uiso   1.00
O18    O     0.79810   0.15000   0.87240   0.01267  Uiso   1.00
O19    O     0.97500   0.26780   0.87520   0.01267  Uiso   1.00
O20    O     0.08900   0.07270   0.86890   0.01267  Uiso   1.00
O21    O     0.98140   0.17200   0.78280   0.01267  Uiso   1.00
O22    O     0.16780   0.26200   0.81190   0.01267  Uiso   1.00
O23    O     0.87390   0.38060   0.79420   0.01267  Uiso   1.00
O24    O     0.06870   0.37310   0.72580   0.01267  Uiso   1.00
O25    O     0.95160   0.44860   0.64200   0.01267  Uiso   1.00
O26    O     0.76340   0.46290   0.70770   0.01267  Uiso   1.00
O27    O     0.87550   0.26180   0.70480   0.01267  Uiso   1.00
O28    O     0.76680   0.35570   0.61970   0.01267  Uiso   1.00
O29    O     0.70170   0.28100   0.52040   0.01267  Uiso   1.00
O30    O     0.56250   0.23330   0.57820   0.01267  Uiso   1.00
O31    O     0.87970   0.74540   0.92300   0.01267  Uiso   1.00
O32    O     0.74430   0.64180   0.96510   0.01267  Uiso   1.00
O33    O     0.81870   0.47740   0.89070   0.01267  Uiso   1.00
O34    O     0.79730   0.33380   0.95150   0.01267  Uiso   1.00
O35    O     0.29050   0.29940   0.55630   0.01267  Uiso   1.00
O36    O     0.39960   0.22310   0.49390   0.01267  Uiso   1.00
O37    O     0.08600   0.13470   0.24990   0.01267  Uiso   1.00
O38    O     0.20490   0.03150   0.33380   0.01267  Uiso   1.00
O39    O     0.90350   0.10700   0.31760   0.01267  Uiso   1.00
O40    O     0.02200   0.00480   0.39920   0.01267  Uiso   1.00
O41    O     0.01950   0.91580   0.30280   0.01267  Uiso   1.00
O42    O     0.83560   0.91330   0.37180   0.01267  Uiso   1.00
O43    O     0.10620   0.80720   0.40680   0.01267  Uiso   1.00
O44    O     0.94490   0.72350   0.38730   0.01267  Uiso   1.00
O45    O     0.89230   0.03100   0.21970   0.01267  Uiso   1.00
O46    O     0.81160   0.82950   0.27960   0.01267  Uiso   1.00
O47    O     0.37930   0.01790   0.26040   0.01267  Uiso   1.00
O48    O     0.25220   0.10980   0.18100   0.01267  Uiso   1.00
O49    O     0.19160   0.91560   0.23950   0.01267  Uiso   1.00
O50    O     0.32580   0.82640   0.32530   0.01267  Uiso   1.00
O51    O     0.32240   0.72090   0.22850   0.01267  Uiso   1.00
O52    O     0.37060   0.91910   0.16970   0.01267  Uiso   1.00
O53    O     0.09930   0.01830   0.13410   0.01267  Uiso   1.00
O54    O     0.20190   0.85000   0.12760   0.01267  Uiso   1.00
O55    O     0.02500   0.73220   0.12480   0.01267  Uiso   1.00
O56    O     0.91100   0.92730   0.13110   0.01267  Uiso   1.00
O57    O     0.01860   0.82800   0.21720   0.01267  Uiso   1.00
O58    O     0.83220   0.73800   0.18810   0.01267  Uiso   1.00
O59    O     0.12610   0.61940   0.20580   0.01267  Uiso   1.00
O60    O     0.93130   0.62690   0.27420   0.01267  Uiso   1.00
O61    O     0.04840   0.55140   0.35800   0.01267  Uiso   1.00
O62    O     0.23660   0.53710   0.29230   0.01267  Uiso   1.00
O63    O     0.12450   0.73820   0.29520   0.01267  Uiso   1.00
O64    O     0.23320   0.64430   0.38030   0.01267  Uiso   1.00
O65    O     0.29830   0.71900   0.47960   0.01267  Uiso   1.00
O66    O     0.43750   0.76670   0.42180   0.01267  Uiso   1.00
O67    O     0.12030   0.25460   0.07700   0.01267  Uiso   1.00
O68    O     0.25570   0.35820   0.03490   0.01267  Uiso   1.00
O69    O     0.18130   0.52260   0.10930   0.01267  Uiso   1.00
O70    O     0.20270   0.66620   0.04850   0.01267  Uiso   1.00
O71    O     0.70950   0.70060   0.44370   0.01267  Uiso   1.00
O72    O     0.60040   0.77690   0.50610   0.01267  Uiso   1.00
