data_image0
_cell_length_a       16.8753
_cell_length_b       16.8753
_cell_length_c       16.8753
_cell_angle_alpha    90
_cell_angle_beta     90
_cell_angle_gamma    90

_symmetry_space_group_name_H-M    "P 1"
_symmetry_int_tables_number       1

loop_
  _symmetry_equiv_pos_as_xyz
  'x, y, z'

loop_
  _atom_site_label
  _atom_site_occupancy
  _atom_site_fract_x
  _atom_site_fract_y
  _atom_site_fract_z
  _atom_site_thermal_displace_type
  _atom_site_B_iso_or_equiv
  _atom_site_type_symbol
  In1      1.0000 0.50770  0.61417  0.45050  Biso   1.000  In
  O1       1.0000 0.41050  0.54300  0.49540  Biso   1.000  O
  O2       1.0000 0.46250  0.71950  0.50040  Biso   1.000  O
  O3       1.0000 0.61330  0.66280  0.40290  Biso   1.000  O
  O4       1.0000 0.61700  0.58000  0.30030  Biso   1.000  O
  O5       1.0000 0.44740  0.64690  0.34500  Biso   1.000  O
  O6       1.0000 0.55290  0.74300  0.59060  Biso   1.000  O
  C1       1.0000 0.37720  0.62650  0.22590  Biso   1.000  C
  C2       1.0000 0.41160  0.59750  0.30290  Biso   1.000  C
  C3       1.0000 0.49050  0.75970  0.55710  Biso   1.000  C
  C4       1.0000 0.64080  0.63770  0.33710  Biso   1.000  C
  C5       1.0000 0.40870  0.69490  0.18930  Biso   1.000  C
  H1       1.0000 0.45360  0.71900  0.21030  Biso   1.000  H
  C6       1.0000 0.73830  0.75060  0.34590  Biso   1.000  C
  H2       1.0000 0.71240  0.76850  0.39110  Biso   1.000  H
  C7       1.0000 0.44200  0.83080  0.58020  Biso   1.000  C
  C8       1.0000 0.37600  0.85290  0.53780  Biso   1.000  C
  H3       1.0000 0.36070  0.82250  0.49440  Biso   1.000  H
  C9       1.0000 0.71130  0.68280  0.30410  Biso   1.000  C
  O7       1.0000 0.40370  0.52410  0.31660  Biso   1.000  O
  In2      1.0000 0.99230  0.38583  0.95050  Biso   1.000  In
  O8       1.0000 0.08950  0.45700  0.99540  Biso   1.000  O
  O9       1.0000 0.03750  0.28050  0.00040  Biso   1.000  O
  O10      1.0000 0.88670  0.33720  0.90290  Biso   1.000  O
  O11      1.0000 0.88300  0.42000  0.80030  Biso   1.000  O
  O12      1.0000 0.05260  0.35310  0.84500  Biso   1.000  O
  O13      1.0000 0.94710  0.25700  0.09060  Biso   1.000  O
  C10      1.0000 0.12280  0.37350  0.72590  Biso   1.000  C
  C11      1.0000 0.08840  0.40250  0.80290  Biso   1.000  C
  C12      1.0000 0.00950  0.24030  0.05710  Biso   1.000  C
  C13      1.0000 0.85920  0.36230  0.83710  Biso   1.000  C
  C14      1.0000 0.09130  0.30510  0.68930  Biso   1.000  C
  H4       1.0000 0.04640  0.28100  0.71030  Biso   1.000  H
  C15      1.0000 0.76170  0.24940  0.84590  Biso   1.000  C
  H5       1.0000 0.78760  0.23150  0.89110  Biso   1.000  H
  C16      1.0000 0.05800  0.16920  0.08020  Biso   1.000  C
  C17      1.0000 0.12400  0.14710  0.03780  Biso   1.000  C
  H6       1.0000 0.13930  0.17750  0.99440  Biso   1.000  H
  C18      1.0000 0.78870  0.31720  0.80410  Biso   1.000  C
  O14      1.0000 0.09630  0.47590  0.81660  Biso   1.000  O
  In3      1.0000 0.49230  0.11417  0.04950  Biso   1.000  In
  O15      1.0000 0.58950  0.04300  0.00460  Biso   1.000  O
  O16      1.0000 0.53750  0.21950  0.99960  Biso   1.000  O
  O17      1.0000 0.38670  0.16280  0.09710  Biso   1.000  O
  O18      1.0000 0.38300  0.08000  0.19970  Biso   1.000  O
  O19      1.0000 0.55260  0.14690  0.15500  Biso   1.000  O
  O20      1.0000 0.44710  0.24300  0.90940  Biso   1.000  O
  C19      1.0000 0.62280  0.12650  0.27410  Biso   1.000  C
  C20      1.0000 0.58840  0.09750  0.19710  Biso   1.000  C
  C21      1.0000 0.50950  0.25970  0.94290  Biso   1.000  C
  C22      1.0000 0.35920  0.13770  0.16290  Biso   1.000  C
  C23      1.0000 0.59130  0.19490  0.31070  Biso   1.000  C
  H7       1.0000 0.54640  0.21900  0.28970  Biso   1.000  H
  C24      1.0000 0.26170  0.25060  0.15410  Biso   1.000  C
  H8       1.0000 0.28760  0.26850  0.10890  Biso   1.000  H
  C25      1.0000 0.55800  0.33080  0.91980  Biso   1.000  C
  C26      1.0000 0.62400  0.35290  0.96220  Biso   1.000  C
  H9       1.0000 0.63930  0.32250  0.00560  Biso   1.000  H
  C27      1.0000 0.28870  0.18280  0.19590  Biso   1.000  C
  O21      1.0000 0.59630  0.02410  0.18340  Biso   1.000  O
  In4      1.0000 0.00770  0.88583  0.54950  Biso   1.000  In
  O22      1.0000 0.91050  0.95700  0.50460  Biso   1.000  O
  O23      1.0000 0.96250  0.78050  0.49960  Biso   1.000  O
  O24      1.0000 0.11330  0.83720  0.59710  Biso   1.000  O
  O25      1.0000 0.11700  0.92000  0.69970  Biso   1.000  O
  O26      1.0000 0.94740  0.85310  0.65500  Biso   1.000  O
  O27      1.0000 0.05290  0.75700  0.40940  Biso   1.000  O
  C28      1.0000 0.87720  0.87350  0.77410  Biso   1.000  C
  C29      1.0000 0.91160  0.90250  0.69710  Biso   1.000  C
  C30      1.0000 0.99050  0.74030  0.44290  Biso   1.000  C
  C31      1.0000 0.14080  0.86230  0.66290  Biso   1.000  C
  C32      1.0000 0.90870  0.80510  0.81070  Biso   1.000  C
  H10      1.0000 0.95360  0.78100  0.78970  Biso   1.000  H
  C33      1.0000 0.23830  0.74940  0.65410  Biso   1.000  C
  H11      1.0000 0.21240  0.73150  0.60890  Biso   1.000  H
  C34      1.0000 0.94200  0.66920  0.41980  Biso   1.000  C
  C35      1.0000 0.87600  0.64710  0.46220  Biso   1.000  C
  H12      1.0000 0.86070  0.67750  0.50560  Biso   1.000  H
  C36      1.0000 0.21130  0.81720  0.69590  Biso   1.000  C
  O28      1.0000 0.90370  0.97590  0.68340  Biso   1.000  O
  In5      1.0000 0.45050  0.50770  0.61417  Biso   1.000  In
  O29      1.0000 0.49540  0.41050  0.54300  Biso   1.000  O
  O30      1.0000 0.50040  0.46250  0.71950  Biso   1.000  O
  O31      1.0000 0.40290  0.61330  0.66280  Biso   1.000  O
  O32      1.0000 0.30030  0.61700  0.58000  Biso   1.000  O
  O33      1.0000 0.34500  0.44740  0.64690  Biso   1.000  O
  O34      1.0000 0.59060  0.55290  0.74300  Biso   1.000  O
  C37      1.0000 0.22590  0.37720  0.62650  Biso   1.000  C
  C38      1.0000 0.30290  0.41160  0.59750  Biso   1.000  C
  C39      1.0000 0.55710  0.49050  0.75970  Biso   1.000  C
  C40      1.0000 0.33710  0.64080  0.63770  Biso   1.000  C
  C41      1.0000 0.18930  0.40870  0.69490  Biso   1.000  C
  H13      1.0000 0.21030  0.45360  0.71900  Biso   1.000  H
  C42      1.0000 0.34590  0.73830  0.75060  Biso   1.000  C
  H14      1.0000 0.39110  0.71240  0.76850  Biso   1.000  H
  C43      1.0000 0.58020  0.44200  0.83080  Biso   1.000  C
  C44      1.0000 0.53780  0.37600  0.85290  Biso   1.000  C
  H15      1.0000 0.49440  0.36070  0.82250  Biso   1.000  H
  C45      1.0000 0.30410  0.71130  0.68280  Biso   1.000  C
  O35      1.0000 0.31660  0.40370  0.52410  Biso   1.000  O
  In6      1.0000 0.95050  0.99230  0.38583  Biso   1.000  In
  O36      1.0000 0.99540  0.08950  0.45700  Biso   1.000  O
  O37      1.0000 0.00040  0.03750  0.28050  Biso   1.000  O
  O38      1.0000 0.90290  0.88670  0.33720  Biso   1.000  O
  O39      1.0000 0.80030  0.88300  0.42000  Biso   1.000  O
  O40      1.0000 0.84500  0.05260  0.35310  Biso   1.000  O
  O41      1.0000 0.09060  0.94710  0.25700  Biso   1.000  O
  C46      1.0000 0.72590  0.12280  0.37350  Biso   1.000  C
  C47      1.0000 0.80290  0.08840  0.40250  Biso   1.000  C
  C48      1.0000 0.05710  0.00950  0.24030  Biso   1.000  C
  C49      1.0000 0.83710  0.85920  0.36230  Biso   1.000  C
  C50      1.0000 0.68930  0.09130  0.30510  Biso   1.000  C
  H16      1.0000 0.71030  0.04640  0.28100  Biso   1.000  H
  C51      1.0000 0.84590  0.76170  0.24940  Biso   1.000  C
  H17      1.0000 0.89110  0.78760  0.23150  Biso   1.000  H
  C52      1.0000 0.08020  0.05800  0.16920  Biso   1.000  C
  C53      1.0000 0.03780  0.12400  0.14710  Biso   1.000  C
  H18      1.0000 0.99440  0.13930  0.17750  Biso   1.000  H
  C54      1.0000 0.80410  0.78870  0.31720  Biso   1.000  C
  O42      1.0000 0.81660  0.09630  0.47590  Biso   1.000  O
  In7      1.0000 0.04950  0.49230  0.11417  Biso   1.000  In
  O43      1.0000 0.00460  0.58950  0.04300  Biso   1.000  O
  O44      1.0000 0.99960  0.53750  0.21950  Biso   1.000  O
  O45      1.0000 0.09710  0.38670  0.16280  Biso   1.000  O
  O46      1.0000 0.19970  0.38300  0.08000  Biso   1.000  O
  O47      1.0000 0.15500  0.55260  0.14690  Biso   1.000  O
  O48      1.0000 0.90940  0.44710  0.24300  Biso   1.000  O
  C55      1.0000 0.27410  0.62280  0.12650  Biso   1.000  C
  C56      1.0000 0.19710  0.58840  0.09750  Biso   1.000  C
  C57      1.0000 0.94290  0.50950  0.25970  Biso   1.000  C
  C58      1.0000 0.16290  0.35920  0.13770  Biso   1.000  C
  C59      1.0000 0.31070  0.59130  0.19490  Biso   1.000  C
  H19      1.0000 0.28970  0.54640  0.21900  Biso   1.000  H
  C60      1.0000 0.15410  0.26170  0.25060  Biso   1.000  C
  H20      1.0000 0.10890  0.28760  0.26850  Biso   1.000  H
  C61      1.0000 0.91980  0.55800  0.33080  Biso   1.000  C
  C62      1.0000 0.96220  0.62400  0.35290  Biso   1.000  C
  H21      1.0000 0.00560  0.63930  0.32250  Biso   1.000  H
  C63      1.0000 0.19590  0.28870  0.18280  Biso   1.000  C
  O49      1.0000 0.18340  0.59630  0.02410  Biso   1.000  O
  In8      1.0000 0.54950  0.00770  0.88583  Biso   1.000  In
  O50      1.0000 0.50460  0.91050  0.95700  Biso   1.000  O
  O51      1.0000 0.49960  0.96250  0.78050  Biso   1.000  O
  O52      1.0000 0.59710  0.11330  0.83720  Biso   1.000  O
  O53      1.0000 0.69970  0.11700  0.92000  Biso   1.000  O
  O54      1.0000 0.65500  0.94740  0.85310  Biso   1.000  O
  O55      1.0000 0.40940  0.05290  0.75700  Biso   1.000  O
  C64      1.0000 0.77410  0.87720  0.87350  Biso   1.000  C
  C65      1.0000 0.69710  0.91160  0.90250  Biso   1.000  C
  C66      1.0000 0.44290  0.99050  0.74030  Biso   1.000  C
  C67      1.0000 0.66290  0.14080  0.86230  Biso   1.000  C
  C68      1.0000 0.81070  0.90870  0.80510  Biso   1.000  C
  H22      1.0000 0.78970  0.95360  0.78100  Biso   1.000  H
  C69      1.0000 0.65410  0.23830  0.74940  Biso   1.000  C
  H23      1.0000 0.60890  0.21240  0.73150  Biso   1.000  H
  C70      1.0000 0.41980  0.94200  0.66920  Biso   1.000  C
  C71      1.0000 0.46220  0.87600  0.64710  Biso   1.000  C
  H24      1.0000 0.50560  0.86070  0.67750  Biso   1.000  H
  C72      1.0000 0.69590  0.21130  0.81720  Biso   1.000  C
  O56      1.0000 0.68340  0.90370  0.97590  Biso   1.000  O
  In9      1.0000 0.61417  0.45050  0.50770  Biso   1.000  In
  O57      1.0000 0.54300  0.49540  0.41050  Biso   1.000  O
  O58      1.0000 0.71950  0.50040  0.46250  Biso   1.000  O
  O59      1.0000 0.66280  0.40290  0.61330  Biso   1.000  O
  O60      1.0000 0.58000  0.30030  0.61700  Biso   1.000  O
  O61      1.0000 0.64690  0.34500  0.44740  Biso   1.000  O
  O62      1.0000 0.74300  0.59060  0.55290  Biso   1.000  O
  C73      1.0000 0.62650  0.22590  0.37720  Biso   1.000  C
  C74      1.0000 0.59750  0.30290  0.41160  Biso   1.000  C
  C75      1.0000 0.75970  0.55710  0.49050  Biso   1.000  C
  C76      1.0000 0.63770  0.33710  0.64080  Biso   1.000  C
  C77      1.0000 0.69490  0.18930  0.40870  Biso   1.000  C
  H25      1.0000 0.71900  0.21030  0.45360  Biso   1.000  H
  C78      1.0000 0.75060  0.34590  0.73830  Biso   1.000  C
  H26      1.0000 0.76850  0.39110  0.71240  Biso   1.000  H
  C79      1.0000 0.83080  0.58020  0.44200  Biso   1.000  C
  C80      1.0000 0.85290  0.53780  0.37600  Biso   1.000  C
  H27      1.0000 0.82250  0.49440  0.36070  Biso   1.000  H
  C81      1.0000 0.68280  0.30410  0.71130  Biso   1.000  C
  O63      1.0000 0.52410  0.31660  0.40370  Biso   1.000  O
  In10     1.0000 0.38583  0.95050  0.99230  Biso   1.000  In
  O64      1.0000 0.45700  0.99540  0.08950  Biso   1.000  O
  O65      1.0000 0.28050  0.00040  0.03750  Biso   1.000  O
  O66      1.0000 0.33720  0.90290  0.88670  Biso   1.000  O
  O67      1.0000 0.42000  0.80030  0.88300  Biso   1.000  O
  O68      1.0000 0.35310  0.84500  0.05260  Biso   1.000  O
  O69      1.0000 0.25700  0.09060  0.94710  Biso   1.000  O
  C82      1.0000 0.37350  0.72590  0.12280  Biso   1.000  C
  C83      1.0000 0.40250  0.80290  0.08840  Biso   1.000  C
  C84      1.0000 0.24030  0.05710  0.00950  Biso   1.000  C
  C85      1.0000 0.36230  0.83710  0.85920  Biso   1.000  C
  C86      1.0000 0.30510  0.68930  0.09130  Biso   1.000  C
  H28      1.0000 0.28100  0.71030  0.04640  Biso   1.000  H
  C87      1.0000 0.24940  0.84590  0.76170  Biso   1.000  C
  H29      1.0000 0.23150  0.89110  0.78760  Biso   1.000  H
  C88      1.0000 0.16920  0.08020  0.05800  Biso   1.000  C
  C89      1.0000 0.14710  0.03780  0.12400  Biso   1.000  C
  H30      1.0000 0.17750  0.99440  0.13930  Biso   1.000  H
  C90      1.0000 0.31720  0.80410  0.78870  Biso   1.000  C
  O70      1.0000 0.47590  0.81660  0.09630  Biso   1.000  O
  In11     1.0000 0.11417  0.04950  0.49230  Biso   1.000  In
  O71      1.0000 0.04300  0.00460  0.58950  Biso   1.000  O
  O72      1.0000 0.21950  0.99960  0.53750  Biso   1.000  O
  O73      1.0000 0.16280  0.09710  0.38670  Biso   1.000  O
  O74      1.0000 0.08000  0.19970  0.38300  Biso   1.000  O
  O75      1.0000 0.14690  0.15500  0.55260  Biso   1.000  O
  O76      1.0000 0.24300  0.90940  0.44710  Biso   1.000  O
  C91      1.0000 0.12650  0.27410  0.62280  Biso   1.000  C
  C92      1.0000 0.09750  0.19710  0.58840  Biso   1.000  C
  C93      1.0000 0.25970  0.94290  0.50950  Biso   1.000  C
  C94      1.0000 0.13770  0.16290  0.35920  Biso   1.000  C
  C95      1.0000 0.19490  0.31070  0.59130  Biso   1.000  C
  H31      1.0000 0.21900  0.28970  0.54640  Biso   1.000  H
  C96      1.0000 0.25060  0.15410  0.26170  Biso   1.000  C
  H32      1.0000 0.26850  0.10890  0.28760  Biso   1.000  H
  C97      1.0000 0.33080  0.91980  0.55800  Biso   1.000  C
  C98      1.0000 0.35290  0.96220  0.62400  Biso   1.000  C
  H33      1.0000 0.32250  0.00560  0.63930  Biso   1.000  H
  C99      1.0000 0.18280  0.19590  0.28870  Biso   1.000  C
  O77      1.0000 0.02410  0.18340  0.59630  Biso   1.000  O
  In12     1.0000 0.88583  0.54950  0.00770  Biso   1.000  In
  O78      1.0000 0.95700  0.50460  0.91050  Biso   1.000  O
  O79      1.0000 0.78050  0.49960  0.96250  Biso   1.000  O
  O80      1.0000 0.83720  0.59710  0.11330  Biso   1.000  O
  O81      1.0000 0.92000  0.69970  0.11700  Biso   1.000  O
  O82      1.0000 0.85310  0.65500  0.94740  Biso   1.000  O
  O83      1.0000 0.75700  0.40940  0.05290  Biso   1.000  O
  C100     1.0000 0.87350  0.77410  0.87720  Biso   1.000  C
  C101     1.0000 0.90250  0.69710  0.91160  Biso   1.000  C
  C102     1.0000 0.74030  0.44290  0.99050  Biso   1.000  C
  C103     1.0000 0.86230  0.66290  0.14080  Biso   1.000  C
  C104     1.0000 0.80510  0.81070  0.90870  Biso   1.000  C
  H34      1.0000 0.78100  0.78970  0.95360  Biso   1.000  H
  C105     1.0000 0.74940  0.65410  0.23830  Biso   1.000  C
  H35      1.0000 0.73150  0.60890  0.21240  Biso   1.000  H
  C106     1.0000 0.66920  0.41980  0.94200  Biso   1.000  C
  C107     1.0000 0.64710  0.46220  0.87600  Biso   1.000  C
  H36      1.0000 0.67750  0.50560  0.86070  Biso   1.000  H
  C108     1.0000 0.81720  0.69590  0.21130  Biso   1.000  C
  O84      1.0000 0.97590  0.68340  0.90370  Biso   1.000  O
  Nd1      1.0000 0.41544  0.41544  0.41544  Biso   1.000  Nd
  O85      1.0000 0.56030  0.56030  0.56030  Biso   1.000  O
  Nd2      1.0000 0.08456  0.58456  0.91544  Biso   1.000  Nd
  O86      1.0000 0.93970  0.43970  0.06030  Biso   1.000  O
  Nd3      1.0000 0.58456  0.91544  0.08456  Biso   1.000  Nd
  O87      1.0000 0.43970  0.06030  0.93970  Biso   1.000  O
  Nd4      1.0000 0.91544  0.08456  0.58456  Biso   1.000  Nd
  O88      1.0000 0.06030  0.93970  0.43970  Biso   1.000  O
