data_image0
_cell_length_a       10.2768
_cell_length_b       10.3016
_cell_length_c       18.8364
_cell_angle_alpha    90
_cell_angle_beta     90
_cell_angle_gamma    90

_symmetry_space_group_name_H-M    "P 1"
_symmetry_int_tables_number       1

loop_
  _symmetry_equiv_pos_as_xyz
  'x, y, z'

loop_
  _atom_site_label
  _atom_site_occupancy
  _atom_site_fract_x
  _atom_site_fract_y
  _atom_site_fract_z
  _atom_site_thermal_displace_type
  _atom_site_B_iso_or_equiv
  _atom_site_type_symbol
  Co1      1.0000 0.57218  0.86788  0.06058  Biso   1.000  Co
  Co2      1.0000 0.59538  0.13696  0.20076  Biso   1.000  Co
  Co3      1.0000 0.90936  0.89769  0.19470  Biso   1.000  Co
  Co4      1.0000 0.84840  0.16533  0.03230  Biso   1.000  Co
  P1       1.0000 0.59429  0.84787  0.23152  Biso   1.000  P
  P2       1.0000 0.89626  0.20874  0.20015  Biso   1.000  P
  P3       1.0000 0.88902  0.84771  0.03261  Biso   1.000  P
  P4       1.0000 0.56148  0.13503  0.02910  Biso   1.000  P
  O1       1.0000 0.74520  0.81560  0.03200  Biso   1.000  O
  O2       1.0000 0.54670  0.80100  0.15900  Biso   1.000  O
  O3       1.0000 0.95420  0.77240  0.97350  Biso   1.000  O
  O4       1.0000 0.50240  0.01060  0.99800  Biso   1.000  O
  O5       1.0000 0.76040  0.20320  0.23410  Biso   1.000  O
  O6       1.0000 0.55400  0.75200  0.28950  Biso   1.000  O
  O7       1.0000 0.62080  0.09080  0.10070  Biso   1.000  O
  O8       1.0000 0.53210  0.98000  0.24860  Biso   1.000  O
  O9       1.0000 0.74270  0.86070  0.23520  Biso   1.000  O
  O10      1.0000 0.96630  0.07800  0.20790  Biso   1.000  O
  O11      1.0000 0.97470  0.31360  0.23770  Biso   1.000  O
  O12      1.0000 0.95090  0.80940  0.10470  Biso   1.000  O
  O13      1.0000 0.91470  0.99160  0.01990  Biso   1.000  O
  O14      1.0000 0.45990  0.24100  0.03810  Biso   1.000  O
  O15      1.0000 0.88880  0.24790  0.12170  Biso   1.000  O
  O16      1.0000 0.67710  0.18200  0.98390  Biso   1.000  O
  Co5      1.0000 0.92782  0.13212  0.56058  Biso   1.000  Co
  Co6      1.0000 0.90462  0.86304  0.70076  Biso   1.000  Co
  Co7      1.0000 0.59064  0.10231  0.69470  Biso   1.000  Co
  Co8      1.0000 0.65160  0.83467  0.53230  Biso   1.000  Co
  P5       1.0000 0.90571  0.15213  0.73152  Biso   1.000  P
  P6       1.0000 0.60374  0.79126  0.70015  Biso   1.000  P
  P7       1.0000 0.61098  0.15229  0.53261  Biso   1.000  P
  P8       1.0000 0.93852  0.86497  0.52910  Biso   1.000  P
  O17      1.0000 0.75480  0.18440  0.53200  Biso   1.000  O
  O18      1.0000 0.95330  0.19900  0.65900  Biso   1.000  O
  O19      1.0000 0.54580  0.22760  0.47350  Biso   1.000  O
  O20      1.0000 0.99760  0.98940  0.49800  Biso   1.000  O
  O21      1.0000 0.73960  0.79680  0.73410  Biso   1.000  O
  O22      1.0000 0.94600  0.24800  0.78950  Biso   1.000  O
  O23      1.0000 0.87920  0.90920  0.60070  Biso   1.000  O
  O24      1.0000 0.96790  0.02000  0.74860  Biso   1.000  O
  O25      1.0000 0.75730  0.13930  0.73520  Biso   1.000  O
  O26      1.0000 0.53370  0.92200  0.70790  Biso   1.000  O
  O27      1.0000 0.52530  0.68640  0.73770  Biso   1.000  O
  O28      1.0000 0.54910  0.19060  0.60470  Biso   1.000  O
  O29      1.0000 0.58530  0.00840  0.51990  Biso   1.000  O
  O30      1.0000 0.04010  0.75900  0.53810  Biso   1.000  O
  O31      1.0000 0.61120  0.75210  0.62170  Biso   1.000  O
  O32      1.0000 0.82290  0.81800  0.48390  Biso   1.000  O
  Co9      1.0000 0.42782  0.36788  0.43942  Biso   1.000  Co
  Co10     1.0000 0.40462  0.63696  0.29924  Biso   1.000  Co
  Co11     1.0000 0.09064  0.39769  0.30530  Biso   1.000  Co
  Co12     1.0000 0.15160  0.66533  0.46770  Biso   1.000  Co
  P9       1.0000 0.40571  0.34787  0.26848  Biso   1.000  P
  P10      1.0000 0.10374  0.70874  0.29985  Biso   1.000  P
  P11      1.0000 0.11098  0.34771  0.46739  Biso   1.000  P
  P12      1.0000 0.43852  0.63503  0.47090  Biso   1.000  P
  O33      1.0000 0.25480  0.31560  0.46800  Biso   1.000  O
  O34      1.0000 0.45330  0.30100  0.34100  Biso   1.000  O
  O35      1.0000 0.04580  0.27240  0.52650  Biso   1.000  O
  O36      1.0000 0.49760  0.51060  0.50200  Biso   1.000  O
  O37      1.0000 0.23960  0.70320  0.26590  Biso   1.000  O
  O38      1.0000 0.44600  0.25200  0.21050  Biso   1.000  O
  O39      1.0000 0.37920  0.59080  0.39930  Biso   1.000  O
  O40      1.0000 0.46790  0.48000  0.25140  Biso   1.000  O
  O41      1.0000 0.25730  0.36070  0.26480  Biso   1.000  O
  O42      1.0000 0.03370  0.57800  0.29210  Biso   1.000  O
  O43      1.0000 0.02530  0.81360  0.26230  Biso   1.000  O
  O44      1.0000 0.04910  0.30940  0.39530  Biso   1.000  O
  O45      1.0000 0.08530  0.49160  0.48010  Biso   1.000  O
  O46      1.0000 0.54010  0.74100  0.46190  Biso   1.000  O
  O47      1.0000 0.11120  0.74790  0.37830  Biso   1.000  O
  O48      1.0000 0.32290  0.68200  0.51610  Biso   1.000  O
  Co13     1.0000 0.07218  0.63212  0.93942  Biso   1.000  Co
  Co14     1.0000 0.09538  0.36304  0.79924  Biso   1.000  Co
  Co15     1.0000 0.40936  0.60231  0.80530  Biso   1.000  Co
  Co16     1.0000 0.34840  0.33467  0.96770  Biso   1.000  Co
  P13      1.0000 0.09429  0.65213  0.76848  Biso   1.000  P
  P14      1.0000 0.39626  0.29126  0.79985  Biso   1.000  P
  P15      1.0000 0.38902  0.65229  0.96739  Biso   1.000  P
  P16      1.0000 0.06148  0.36497  0.97090  Biso   1.000  P
  O49      1.0000 0.24520  0.68440  0.96800  Biso   1.000  O
  O50      1.0000 0.04670  0.69900  0.84100  Biso   1.000  O
  O51      1.0000 0.45420  0.72760  0.02650  Biso   1.000  O
  O52      1.0000 0.00240  0.48940  0.00200  Biso   1.000  O
  O53      1.0000 0.26040  0.29680  0.76590  Biso   1.000  O
  O54      1.0000 0.05400  0.74800  0.71050  Biso   1.000  O
  O55      1.0000 0.12080  0.40920  0.89930  Biso   1.000  O
  O56      1.0000 0.03210  0.52000  0.75140  Biso   1.000  O
  O57      1.0000 0.24270  0.63930  0.76480  Biso   1.000  O
  O58      1.0000 0.46630  0.42200  0.79210  Biso   1.000  O
  O59      1.0000 0.47470  0.18640  0.76230  Biso   1.000  O
  O60      1.0000 0.45090  0.69060  0.89530  Biso   1.000  O
  O61      1.0000 0.41470  0.50840  0.98010  Biso   1.000  O
  O62      1.0000 0.95990  0.25900  0.96190  Biso   1.000  O
  O63      1.0000 0.38880  0.25210  0.87830  Biso   1.000  O
  O64      1.0000 0.17710  0.31800  0.01610  Biso   1.000  O
