data_image0
_cell_length_a       27.1344
_cell_length_b       27.1344
_cell_length_c       27.1344
_cell_angle_alpha    90
_cell_angle_beta     90
_cell_angle_gamma    90

_symmetry_space_group_name_H-M    "P 1"
_symmetry_int_tables_number       1

loop_
  _symmetry_equiv_pos_as_xyz
  'x, y, z'

loop_
  _atom_site_label
  _atom_site_occupancy
  _atom_site_fract_x
  _atom_site_fract_y
  _atom_site_fract_z
  _atom_site_thermal_displace_type
  _atom_site_B_iso_or_equiv
  _atom_site_type_symbol
  In1      1.0000 0.92946  0.52672  0.00603  Biso   1.000  In
  O1       1.0000 0.00139  0.55572  0.02685  Biso   1.000  O
  O2       1.0000 0.86260  0.49650  0.97780  Biso   1.000  O
  O3       1.0000 0.84370  0.45690  0.04380  Biso   1.000  O
  O4       1.0000 0.98485  0.61104  0.93690  Biso   1.000  O
  O5       1.0000 0.90850  0.59050  0.96600  Biso   1.000  O
  C1       1.0000 0.83950  0.46570  0.99870  Biso   1.000  C
  C2       1.0000 0.78980  0.45280  0.97990  Biso   1.000  C
  C3       1.0000 0.76180  0.42160  0.01040  Biso   1.000  C
  H1       1.0000 0.77280  0.40570  0.03870  Biso   1.000  H
  C4       1.0000 0.70830  0.41840  0.98820  Biso   1.000  C
  H2       1.0000 0.68130  0.41290  0.00870  Biso   1.000  H
  C5       1.0000 0.70130  0.42420  0.93570  Biso   1.000  C
  C6       1.0000 0.73170  0.45320  0.91120  Biso   1.000  C
  H3       1.0000 0.72380  0.46380  0.87960  Biso   1.000  H
  C7       1.0000 0.77570  0.46780  0.93330  Biso   1.000  C
  H4       1.0000 0.79650  0.48870  0.91580  Biso   1.000  H
  C8       1.0000 0.65500  0.40680  0.91070  Biso   1.000  C
  C9       1.0000 0.63670  0.42900  0.87190  Biso   1.000  C
  H5       1.0000 0.65180  0.45770  0.86090  Biso   1.000  H
  C10      1.0000 0.94020  0.61790  0.93870  Biso   1.000  C
  C11      1.0000 0.91820  0.66490  0.92000  Biso   1.000  C
  C12      1.0000 0.87020  0.67570  0.92510  Biso   1.000  C
  H6       1.0000 0.84970  0.65300  0.94070  Biso   1.000  H
  C13      1.0000 0.85140  0.71640  0.90920  Biso   1.000  C
  H7       1.0000 0.81870  0.72440  0.91600  Biso   1.000  H
  C14      1.0000 0.88170  0.74900  0.88090  Biso   1.000  C
  C15      1.0000 0.92910  0.73880  0.87710  Biso   1.000  C
  H8       1.0000 0.95070  0.76130  0.86270  Biso   1.000  H
  C16      1.0000 0.94500  0.69720  0.89390  Biso   1.000  C
  H9       1.0000 0.97760  0.68890  0.88730  Biso   1.000  H
  C17      1.0000 0.86090  0.79870  0.86010  Biso   1.000  C
  C18      1.0000 0.81900  0.81960  0.87920  Biso   1.000  C
  H10      1.0000 0.80400  0.80470  0.90610  Biso   1.000  H
  C19      1.0000 0.87000  0.62370  0.14810  Biso   1.000  C
  H11      1.0000 0.88650  0.63560  0.12060  Biso   1.000  H
  O6       1.0000 0.88610  0.49160  0.12370  Biso   1.000  O
  C20      1.0000 0.87690  0.54110  0.10640  Biso   1.000  C
  C21      1.0000 0.81670  0.67750  0.25660  Biso   1.000  C
  C22      1.0000 0.84420  0.71810  0.27690  Biso   1.000  C
  H12      1.0000 0.87480  0.72720  0.26440  Biso   1.000  H
  C23      1.0000 0.86150  0.57170  0.14650  Biso   1.000  C
  C24      1.0000 0.83680  0.54600  0.18510  Biso   1.000  C
  H13      1.0000 0.83000  0.51240  0.18650  Biso   1.000  H
  C25      1.0000 0.85820  0.66140  0.18380  Biso   1.000  C
  H14      1.0000 0.86490  0.69500  0.18250  Biso   1.000  H
  C26      1.0000 0.83380  0.63430  0.22120  Biso   1.000  C
  C27      1.0000 0.82460  0.58240  0.22110  Biso   1.000  C
  H15      1.0000 0.80810  0.57060  0.24880  Biso   1.000  H
  O7       1.0000 0.89650  0.56200  0.06800  Biso   1.000  O
  In2      1.0000 0.57054  0.47328  0.50603  Biso   1.000  In
  O8       1.0000 0.49861  0.44428  0.52685  Biso   1.000  O
  O9       1.0000 0.63740  0.50350  0.47780  Biso   1.000  O
  O10      1.0000 0.65630  0.54310  0.54380  Biso   1.000  O
  O11      1.0000 0.51515  0.38896  0.43690  Biso   1.000  O
  O12      1.0000 0.59150  0.40950  0.46600  Biso   1.000  O
  C28      1.0000 0.66050  0.53430  0.49870  Biso   1.000  C
  C29      1.0000 0.71020  0.54720  0.47990  Biso   1.000  C
  C30      1.0000 0.73820  0.57840  0.51040  Biso   1.000  C
  H16      1.0000 0.72720  0.59430  0.53870  Biso   1.000  H
  C31      1.0000 0.79170  0.58160  0.48820  Biso   1.000  C
  H17      1.0000 0.81870  0.58710  0.50870  Biso   1.000  H
  C32      1.0000 0.79870  0.57580  0.43570  Biso   1.000  C
  C33      1.0000 0.76830  0.54680  0.41120  Biso   1.000  C
  H18      1.0000 0.77620  0.53620  0.37960  Biso   1.000  H
  C34      1.0000 0.72430  0.53220  0.43330  Biso   1.000  C
  H19      1.0000 0.70350  0.51130  0.41580  Biso   1.000  H
  C35      1.0000 0.84500  0.59320  0.41070  Biso   1.000  C
  C36      1.0000 0.86330  0.57100  0.37190  Biso   1.000  C
  H20      1.0000 0.84820  0.54230  0.36090  Biso   1.000  H
  C37      1.0000 0.55980  0.38210  0.43870  Biso   1.000  C
  C38      1.0000 0.58180  0.33510  0.42000  Biso   1.000  C
  C39      1.0000 0.62980  0.32430  0.42510  Biso   1.000  C
  H21      1.0000 0.65030  0.34700  0.44070  Biso   1.000  H
  C40      1.0000 0.64860  0.28360  0.40920  Biso   1.000  C
  H22      1.0000 0.68130  0.27560  0.41600  Biso   1.000  H
  C41      1.0000 0.61830  0.25100  0.38090  Biso   1.000  C
  C42      1.0000 0.57090  0.26120  0.37710  Biso   1.000  C
  H23      1.0000 0.54930  0.23870  0.36270  Biso   1.000  H
  C43      1.0000 0.55500  0.30280  0.39390  Biso   1.000  C
  H24      1.0000 0.52240  0.31110  0.38730  Biso   1.000  H
  C44      1.0000 0.63910  0.20130  0.36010  Biso   1.000  C
  C45      1.0000 0.68100  0.18040  0.37920  Biso   1.000  C
  H25      1.0000 0.69600  0.19530  0.40610  Biso   1.000  H
  C46      1.0000 0.63000  0.37630  0.64810  Biso   1.000  C
  H26      1.0000 0.61350  0.36440  0.62060  Biso   1.000  H
  O13      1.0000 0.61390  0.50840  0.62370  Biso   1.000  O
  C47      1.0000 0.62310  0.45890  0.60640  Biso   1.000  C
  C48      1.0000 0.68330  0.32250  0.75660  Biso   1.000  C
  C49      1.0000 0.65580  0.28190  0.77690  Biso   1.000  C
  H27      1.0000 0.62520  0.27280  0.76440  Biso   1.000  H
  C50      1.0000 0.63850  0.42830  0.64650  Biso   1.000  C
  C51      1.0000 0.66320  0.45400  0.68510  Biso   1.000  C
  H28      1.0000 0.67000  0.48760  0.68650  Biso   1.000  H
  C52      1.0000 0.64180  0.33860  0.68380  Biso   1.000  C
  H29      1.0000 0.63510  0.30500  0.68250  Biso   1.000  H
  C53      1.0000 0.66620  0.36570  0.72120  Biso   1.000  C
  C54      1.0000 0.67540  0.41760  0.72110  Biso   1.000  C
  H30      1.0000 0.69190  0.42940  0.74880  Biso   1.000  H
  O14      1.0000 0.60350  0.43800  0.56800  Biso   1.000  O
  In3      1.0000 0.07054  0.02672  0.49397  Biso   1.000  In
  O15      1.0000 0.99861  0.05572  0.47315  Biso   1.000  O
  O16      1.0000 0.13740  0.99650  0.52220  Biso   1.000  O
  O17      1.0000 0.15630  0.95690  0.45620  Biso   1.000  O
  O18      1.0000 0.01515  0.11104  0.56310  Biso   1.000  O
  O19      1.0000 0.09150  0.09050  0.53400  Biso   1.000  O
  C55      1.0000 0.16050  0.96570  0.50130  Biso   1.000  C
  C56      1.0000 0.21020  0.95280  0.52010  Biso   1.000  C
  C57      1.0000 0.23820  0.92160  0.48960  Biso   1.000  C
  H31      1.0000 0.22720  0.90570  0.46130  Biso   1.000  H
  C58      1.0000 0.29170  0.91840  0.51180  Biso   1.000  C
  H32      1.0000 0.31870  0.91290  0.49130  Biso   1.000  H
  C59      1.0000 0.29870  0.92420  0.56430  Biso   1.000  C
  C60      1.0000 0.26830  0.95320  0.58880  Biso   1.000  C
  H33      1.0000 0.27620  0.96380  0.62040  Biso   1.000  H
  C61      1.0000 0.22430  0.96780  0.56670  Biso   1.000  C
  H34      1.0000 0.20350  0.98870  0.58420  Biso   1.000  H
  C62      1.0000 0.34500  0.90680  0.58930  Biso   1.000  C
  C63      1.0000 0.36330  0.92900  0.62810  Biso   1.000  C
  H35      1.0000 0.34820  0.95770  0.63910  Biso   1.000  H
  C64      1.0000 0.05980  0.11790  0.56130  Biso   1.000  C
  C65      1.0000 0.08180  0.16490  0.58000  Biso   1.000  C
  C66      1.0000 0.12980  0.17570  0.57490  Biso   1.000  C
  H36      1.0000 0.15030  0.15300  0.55930  Biso   1.000  H
  C67      1.0000 0.14860  0.21640  0.59080  Biso   1.000  C
  H37      1.0000 0.18130  0.22440  0.58400  Biso   1.000  H
  C68      1.0000 0.11830  0.24900  0.61910  Biso   1.000  C
  C69      1.0000 0.07090  0.23880  0.62290  Biso   1.000  C
  H38      1.0000 0.04930  0.26130  0.63730  Biso   1.000  H
  C70      1.0000 0.05500  0.19720  0.60610  Biso   1.000  C
  H39      1.0000 0.02240  0.18890  0.61270  Biso   1.000  H
  C71      1.0000 0.13910  0.29870  0.63990  Biso   1.000  C
  C72      1.0000 0.18100  0.31960  0.62080  Biso   1.000  C
  H40      1.0000 0.19600  0.30470  0.59390  Biso   1.000  H
  C73      1.0000 0.13000  0.12370  0.35190  Biso   1.000  C
  H41      1.0000 0.11350  0.13560  0.37940  Biso   1.000  H
  O20      1.0000 0.11390  0.99160  0.37630  Biso   1.000  O
  C74      1.0000 0.12310  0.04110  0.39360  Biso   1.000  C
  C75      1.0000 0.18330  0.17750  0.24340  Biso   1.000  C
  C76      1.0000 0.15580  0.21810  0.22310  Biso   1.000  C
  H42      1.0000 0.12520  0.22720  0.23560  Biso   1.000  H
  C77      1.0000 0.13850  0.07170  0.35350  Biso   1.000  C
  C78      1.0000 0.16320  0.04600  0.31490  Biso   1.000  C
  H43      1.0000 0.17000  0.01240  0.31350  Biso   1.000  H
  C79      1.0000 0.14180  0.16140  0.31620  Biso   1.000  C
  H44      1.0000 0.13510  0.19500  0.31750  Biso   1.000  H
  C80      1.0000 0.16620  0.13430  0.27880  Biso   1.000  C
  C81      1.0000 0.17540  0.08240  0.27890  Biso   1.000  C
  H45      1.0000 0.19190  0.07060  0.25120  Biso   1.000  H
  O21      1.0000 0.10350  0.06200  0.43200  Biso   1.000  O
  In4      1.0000 0.42946  0.97328  0.99397  Biso   1.000  In
  O22      1.0000 0.50139  0.94428  0.97315  Biso   1.000  O
  O23      1.0000 0.36260  0.00350  0.02220  Biso   1.000  O
  O24      1.0000 0.34370  0.04310  0.95620  Biso   1.000  O
  O25      1.0000 0.48485  0.88896  0.06310  Biso   1.000  O
  O26      1.0000 0.40850  0.90950  0.03400  Biso   1.000  O
  C82      1.0000 0.33950  0.03430  0.00130  Biso   1.000  C
  C83      1.0000 0.28980  0.04720  0.02010  Biso   1.000  C
  C84      1.0000 0.26180  0.07840  0.98960  Biso   1.000  C
  H46      1.0000 0.27280  0.09430  0.96130  Biso   1.000  H
  C85      1.0000 0.20830  0.08160  0.01180  Biso   1.000  C
  H47      1.0000 0.18130  0.08710  0.99130  Biso   1.000  H
  C86      1.0000 0.20130  0.07580  0.06430  Biso   1.000  C
  C87      1.0000 0.23170  0.04680  0.08880  Biso   1.000  C
  H48      1.0000 0.22380  0.03620  0.12040  Biso   1.000  H
  C88      1.0000 0.27570  0.03220  0.06670  Biso   1.000  C
  H49      1.0000 0.29650  0.01130  0.08420  Biso   1.000  H
  C89      1.0000 0.15500  0.09320  0.08930  Biso   1.000  C
  C90      1.0000 0.13670  0.07100  0.12810  Biso   1.000  C
  H50      1.0000 0.15180  0.04230  0.13910  Biso   1.000  H
  C91      1.0000 0.44020  0.88210  0.06130  Biso   1.000  C
  C92      1.0000 0.41820  0.83510  0.08000  Biso   1.000  C
  C93      1.0000 0.37020  0.82430  0.07490  Biso   1.000  C
  H51      1.0000 0.34970  0.84700  0.05930  Biso   1.000  H
  C94      1.0000 0.35140  0.78360  0.09080  Biso   1.000  C
  H52      1.0000 0.31870  0.77560  0.08400  Biso   1.000  H
  C95      1.0000 0.38170  0.75100  0.11910  Biso   1.000  C
  C96      1.0000 0.42910  0.76120  0.12290  Biso   1.000  C
  H53      1.0000 0.45070  0.73870  0.13730  Biso   1.000  H
  C97      1.0000 0.44500  0.80280  0.10610  Biso   1.000  C
  H54      1.0000 0.47760  0.81110  0.11270  Biso   1.000  H
  C98      1.0000 0.36090  0.70130  0.13990  Biso   1.000  C
  C99      1.0000 0.31900  0.68040  0.12080  Biso   1.000  C
  H55      1.0000 0.30400  0.69530  0.09390  Biso   1.000  H
  C100     1.0000 0.37000  0.87630  0.85190  Biso   1.000  C
  H56      1.0000 0.38650  0.86440  0.87940  Biso   1.000  H
  O27      1.0000 0.38610  0.00840  0.87630  Biso   1.000  O
  C101     1.0000 0.37690  0.95890  0.89360  Biso   1.000  C
  C102     1.0000 0.31670  0.82250  0.74340  Biso   1.000  C
  C103     1.0000 0.34420  0.78190  0.72310  Biso   1.000  C
  H57      1.0000 0.37480  0.77280  0.73560  Biso   1.000  H
  C104     1.0000 0.36150  0.92830  0.85350  Biso   1.000  C
  C105     1.0000 0.33680  0.95400  0.81490  Biso   1.000  C
  H58      1.0000 0.33000  0.98760  0.81350  Biso   1.000  H
  C106     1.0000 0.35820  0.83860  0.81620  Biso   1.000  C
  H59      1.0000 0.36490  0.80500  0.81750  Biso   1.000  H
  C107     1.0000 0.33380  0.86570  0.77880  Biso   1.000  C
  C108     1.0000 0.32460  0.91760  0.77890  Biso   1.000  C
  H60      1.0000 0.30810  0.92940  0.75120  Biso   1.000  H
  O28      1.0000 0.39650  0.93800  0.93200  Biso   1.000  O
  In5      1.0000 0.00603  0.92946  0.52672  Biso   1.000  In
  O29      1.0000 0.02685  0.00139  0.55572  Biso   1.000  O
  O30      1.0000 0.97780  0.86260  0.49650  Biso   1.000  O
  O31      1.0000 0.04380  0.84370  0.45690  Biso   1.000  O
  O32      1.0000 0.93690  0.98485  0.61104  Biso   1.000  O
  O33      1.0000 0.96600  0.90850  0.59050  Biso   1.000  O
  C109     1.0000 0.99870  0.83950  0.46570  Biso   1.000  C
  C110     1.0000 0.97990  0.78980  0.45280  Biso   1.000  C
  C111     1.0000 0.01040  0.76180  0.42160  Biso   1.000  C
  H61      1.0000 0.03870  0.77280  0.40570  Biso   1.000  H
  C112     1.0000 0.98820  0.70830  0.41840  Biso   1.000  C
  H62      1.0000 0.00870  0.68130  0.41290  Biso   1.000  H
  C113     1.0000 0.93570  0.70130  0.42420  Biso   1.000  C
  C114     1.0000 0.91120  0.73170  0.45320  Biso   1.000  C
  H63      1.0000 0.87960  0.72380  0.46380  Biso   1.000  H
  C115     1.0000 0.93330  0.77570  0.46780  Biso   1.000  C
  H64      1.0000 0.91580  0.79650  0.48870  Biso   1.000  H
  C116     1.0000 0.91070  0.65500  0.40680  Biso   1.000  C
  C117     1.0000 0.87190  0.63670  0.42900  Biso   1.000  C
  H65      1.0000 0.86090  0.65180  0.45770  Biso   1.000  H
  C118     1.0000 0.93870  0.94020  0.61790  Biso   1.000  C
  C119     1.0000 0.92000  0.91820  0.66490  Biso   1.000  C
  C120     1.0000 0.92510  0.87020  0.67570  Biso   1.000  C
  H66      1.0000 0.94070  0.84970  0.65300  Biso   1.000  H
  C121     1.0000 0.90920  0.85140  0.71640  Biso   1.000  C
  H67      1.0000 0.91600  0.81870  0.72440  Biso   1.000  H
  C122     1.0000 0.88090  0.88170  0.74900  Biso   1.000  C
  C123     1.0000 0.87710  0.92910  0.73880  Biso   1.000  C
  H68      1.0000 0.86270  0.95070  0.76130  Biso   1.000  H
  C124     1.0000 0.89390  0.94500  0.69720  Biso   1.000  C
  H69      1.0000 0.88730  0.97760  0.68890  Biso   1.000  H
  C125     1.0000 0.86010  0.86090  0.79870  Biso   1.000  C
  C126     1.0000 0.87920  0.81900  0.81960  Biso   1.000  C
  H70      1.0000 0.90610  0.80400  0.80470  Biso   1.000  H
  C127     1.0000 0.14810  0.87000  0.62370  Biso   1.000  C
  H71      1.0000 0.12060  0.88650  0.63560  Biso   1.000  H
  O34      1.0000 0.12370  0.88610  0.49160  Biso   1.000  O
  C128     1.0000 0.10640  0.87690  0.54110  Biso   1.000  C
  C129     1.0000 0.25660  0.81670  0.67750  Biso   1.000  C
  C130     1.0000 0.27690  0.84420  0.71810  Biso   1.000  C
  H72      1.0000 0.26440  0.87480  0.72720  Biso   1.000  H
  C131     1.0000 0.14650  0.86150  0.57170  Biso   1.000  C
  C132     1.0000 0.18510  0.83680  0.54600  Biso   1.000  C
  H73      1.0000 0.18650  0.83000  0.51240  Biso   1.000  H
  C133     1.0000 0.18380  0.85820  0.66140  Biso   1.000  C
  H74      1.0000 0.18250  0.86490  0.69500  Biso   1.000  H
  C134     1.0000 0.22120  0.83380  0.63430  Biso   1.000  C
  C135     1.0000 0.22110  0.82460  0.58240  Biso   1.000  C
  H75      1.0000 0.24880  0.80810  0.57060  Biso   1.000  H
  O35      1.0000 0.06800  0.89650  0.56200  Biso   1.000  O
  In6      1.0000 0.50603  0.57054  0.47328  Biso   1.000  In
  O36      1.0000 0.52685  0.49861  0.44428  Biso   1.000  O
  O37      1.0000 0.47780  0.63740  0.50350  Biso   1.000  O
  O38      1.0000 0.54380  0.65630  0.54310  Biso   1.000  O
  O39      1.0000 0.43690  0.51515  0.38896  Biso   1.000  O
  O40      1.0000 0.46600  0.59150  0.40950  Biso   1.000  O
  C136     1.0000 0.49870  0.66050  0.53430  Biso   1.000  C
  C137     1.0000 0.47990  0.71020  0.54720  Biso   1.000  C
  C138     1.0000 0.51040  0.73820  0.57840  Biso   1.000  C
  H76      1.0000 0.53870  0.72720  0.59430  Biso   1.000  H
  C139     1.0000 0.48820  0.79170  0.58160  Biso   1.000  C
  H77      1.0000 0.50870  0.81870  0.58710  Biso   1.000  H
  C140     1.0000 0.43570  0.79870  0.57580  Biso   1.000  C
  C141     1.0000 0.41120  0.76830  0.54680  Biso   1.000  C
  H78      1.0000 0.37960  0.77620  0.53620  Biso   1.000  H
  C142     1.0000 0.43330  0.72430  0.53220  Biso   1.000  C
  H79      1.0000 0.41580  0.70350  0.51130  Biso   1.000  H
  C143     1.0000 0.41070  0.84500  0.59320  Biso   1.000  C
  C144     1.0000 0.37190  0.86330  0.57100  Biso   1.000  C
  H80      1.0000 0.36090  0.84820  0.54230  Biso   1.000  H
  C145     1.0000 0.43870  0.55980  0.38210  Biso   1.000  C
  C146     1.0000 0.42000  0.58180  0.33510  Biso   1.000  C
  C147     1.0000 0.42510  0.62980  0.32430  Biso   1.000  C
  H81      1.0000 0.44070  0.65030  0.34700  Biso   1.000  H
  C148     1.0000 0.40920  0.64860  0.28360  Biso   1.000  C
  H82      1.0000 0.41600  0.68130  0.27560  Biso   1.000  H
  C149     1.0000 0.38090  0.61830  0.25100  Biso   1.000  C
  C150     1.0000 0.37710  0.57090  0.26120  Biso   1.000  C
  H83      1.0000 0.36270  0.54930  0.23870  Biso   1.000  H
  C151     1.0000 0.39390  0.55500  0.30280  Biso   1.000  C
  H84      1.0000 0.38730  0.52240  0.31110  Biso   1.000  H
  C152     1.0000 0.36010  0.63910  0.20130  Biso   1.000  C
  C153     1.0000 0.37920  0.68100  0.18040  Biso   1.000  C
  H85      1.0000 0.40610  0.69600  0.19530  Biso   1.000  H
  C154     1.0000 0.64810  0.63000  0.37630  Biso   1.000  C
  H86      1.0000 0.62060  0.61350  0.36440  Biso   1.000  H
  O41      1.0000 0.62370  0.61390  0.50840  Biso   1.000  O
  C155     1.0000 0.60640  0.62310  0.45890  Biso   1.000  C
  C156     1.0000 0.75660  0.68330  0.32250  Biso   1.000  C
  C157     1.0000 0.77690  0.65580  0.28190  Biso   1.000  C
  H87      1.0000 0.76440  0.62520  0.27280  Biso   1.000  H
  C158     1.0000 0.64650  0.63850  0.42830  Biso   1.000  C
  C159     1.0000 0.68510  0.66320  0.45400  Biso   1.000  C
  H88      1.0000 0.68650  0.67000  0.48760  Biso   1.000  H
  C160     1.0000 0.68380  0.64180  0.33860  Biso   1.000  C
  H89      1.0000 0.68250  0.63510  0.30500  Biso   1.000  H
  C161     1.0000 0.72120  0.66620  0.36570  Biso   1.000  C
  C162     1.0000 0.72110  0.67540  0.41760  Biso   1.000  C
  H90      1.0000 0.74880  0.69190  0.42940  Biso   1.000  H
  O42      1.0000 0.56800  0.60350  0.43800  Biso   1.000  O
  In7      1.0000 0.49397  0.07054  0.02672  Biso   1.000  In
  O43      1.0000 0.47315  0.99861  0.05572  Biso   1.000  O
  O44      1.0000 0.52220  0.13740  0.99650  Biso   1.000  O
  O45      1.0000 0.45620  0.15630  0.95690  Biso   1.000  O
  O46      1.0000 0.56310  0.01515  0.11104  Biso   1.000  O
  O47      1.0000 0.53400  0.09150  0.09050  Biso   1.000  O
  C163     1.0000 0.50130  0.16050  0.96570  Biso   1.000  C
  C164     1.0000 0.52010  0.21020  0.95280  Biso   1.000  C
  C165     1.0000 0.48960  0.23820  0.92160  Biso   1.000  C
  H91      1.0000 0.46130  0.22720  0.90570  Biso   1.000  H
  C166     1.0000 0.51180  0.29170  0.91840  Biso   1.000  C
  H92      1.0000 0.49130  0.31870  0.91290  Biso   1.000  H
  C167     1.0000 0.56430  0.29870  0.92420  Biso   1.000  C
  C168     1.0000 0.58880  0.26830  0.95320  Biso   1.000  C
  H93      1.0000 0.62040  0.27620  0.96380  Biso   1.000  H
  C169     1.0000 0.56670  0.22430  0.96780  Biso   1.000  C
  H94      1.0000 0.58420  0.20350  0.98870  Biso   1.000  H
  C170     1.0000 0.58930  0.34500  0.90680  Biso   1.000  C
  C171     1.0000 0.62810  0.36330  0.92900  Biso   1.000  C
  H95      1.0000 0.63910  0.34820  0.95770  Biso   1.000  H
  C172     1.0000 0.56130  0.05980  0.11790  Biso   1.000  C
  C173     1.0000 0.58000  0.08180  0.16490  Biso   1.000  C
  C174     1.0000 0.57490  0.12980  0.17570  Biso   1.000  C
  H96      1.0000 0.55930  0.15030  0.15300  Biso   1.000  H
  C175     1.0000 0.59080  0.14860  0.21640  Biso   1.000  C
  H97      1.0000 0.58400  0.18130  0.22440  Biso   1.000  H
  C176     1.0000 0.61910  0.11830  0.24900  Biso   1.000  C
  C177     1.0000 0.62290  0.07090  0.23880  Biso   1.000  C
  H98      1.0000 0.63730  0.04930  0.26130  Biso   1.000  H
  C178     1.0000 0.60610  0.05500  0.19720  Biso   1.000  C
  H99      1.0000 0.61270  0.02240  0.18890  Biso   1.000  H
  C179     1.0000 0.63990  0.13910  0.29870  Biso   1.000  C
  C180     1.0000 0.62080  0.18100  0.31960  Biso   1.000  C
  H100     1.0000 0.59390  0.19600  0.30470  Biso   1.000  H
  C181     1.0000 0.35190  0.13000  0.12370  Biso   1.000  C
  H101     1.0000 0.37940  0.11350  0.13560  Biso   1.000  H
  O48      1.0000 0.37630  0.11390  0.99160  Biso   1.000  O
  C182     1.0000 0.39360  0.12310  0.04110  Biso   1.000  C
  C183     1.0000 0.24340  0.18330  0.17750  Biso   1.000  C
  C184     1.0000 0.22310  0.15580  0.21810  Biso   1.000  C
  H102     1.0000 0.23560  0.12520  0.22720  Biso   1.000  H
  C185     1.0000 0.35350  0.13850  0.07170  Biso   1.000  C
  C186     1.0000 0.31490  0.16320  0.04600  Biso   1.000  C
  H103     1.0000 0.31350  0.17000  0.01240  Biso   1.000  H
  C187     1.0000 0.31620  0.14180  0.16140  Biso   1.000  C
  H104     1.0000 0.31750  0.13510  0.19500  Biso   1.000  H
  C188     1.0000 0.27880  0.16620  0.13430  Biso   1.000  C
  C189     1.0000 0.27890  0.17540  0.08240  Biso   1.000  C
  H105     1.0000 0.25120  0.19190  0.07060  Biso   1.000  H
  O49      1.0000 0.43200  0.10350  0.06200  Biso   1.000  O
  In8      1.0000 0.99397  0.42946  0.97328  Biso   1.000  In
  O50      1.0000 0.97315  0.50139  0.94428  Biso   1.000  O
  O51      1.0000 0.02220  0.36260  0.00350  Biso   1.000  O
  O52      1.0000 0.95620  0.34370  0.04310  Biso   1.000  O
  O53      1.0000 0.06310  0.48485  0.88896  Biso   1.000  O
  O54      1.0000 0.03400  0.40850  0.90950  Biso   1.000  O
  C190     1.0000 0.00130  0.33950  0.03430  Biso   1.000  C
  C191     1.0000 0.02010  0.28980  0.04720  Biso   1.000  C
  C192     1.0000 0.98960  0.26180  0.07840  Biso   1.000  C
  H106     1.0000 0.96130  0.27280  0.09430  Biso   1.000  H
  C193     1.0000 0.01180  0.20830  0.08160  Biso   1.000  C
  H107     1.0000 0.99130  0.18130  0.08710  Biso   1.000  H
  C194     1.0000 0.06430  0.20130  0.07580  Biso   1.000  C
  C195     1.0000 0.08880  0.23170  0.04680  Biso   1.000  C
  H108     1.0000 0.12040  0.22380  0.03620  Biso   1.000  H
  C196     1.0000 0.06670  0.27570  0.03220  Biso   1.000  C
  H109     1.0000 0.08420  0.29650  0.01130  Biso   1.000  H
  C197     1.0000 0.08930  0.15500  0.09320  Biso   1.000  C
  C198     1.0000 0.12810  0.13670  0.07100  Biso   1.000  C
  H110     1.0000 0.13910  0.15180  0.04230  Biso   1.000  H
  C199     1.0000 0.06130  0.44020  0.88210  Biso   1.000  C
  C200     1.0000 0.08000  0.41820  0.83510  Biso   1.000  C
  C201     1.0000 0.07490  0.37020  0.82430  Biso   1.000  C
  H111     1.0000 0.05930  0.34970  0.84700  Biso   1.000  H
  C202     1.0000 0.09080  0.35140  0.78360  Biso   1.000  C
  H112     1.0000 0.08400  0.31870  0.77560  Biso   1.000  H
  C203     1.0000 0.11910  0.38170  0.75100  Biso   1.000  C
  C204     1.0000 0.12290  0.42910  0.76120  Biso   1.000  C
  H113     1.0000 0.13730  0.45070  0.73870  Biso   1.000  H
  C205     1.0000 0.10610  0.44500  0.80280  Biso   1.000  C
  H114     1.0000 0.11270  0.47760  0.81110  Biso   1.000  H
  C206     1.0000 0.13990  0.36090  0.70130  Biso   1.000  C
  C207     1.0000 0.12080  0.31900  0.68040  Biso   1.000  C
  H115     1.0000 0.09390  0.30400  0.69530  Biso   1.000  H
  C208     1.0000 0.85190  0.37000  0.87630  Biso   1.000  C
  H116     1.0000 0.87940  0.38650  0.86440  Biso   1.000  H
  O55      1.0000 0.87630  0.38610  0.00840  Biso   1.000  O
  C209     1.0000 0.89360  0.37690  0.95890  Biso   1.000  C
  C210     1.0000 0.74340  0.31670  0.82250  Biso   1.000  C
  C211     1.0000 0.72310  0.34420  0.78190  Biso   1.000  C
  H117     1.0000 0.73560  0.37480  0.77280  Biso   1.000  H
  C212     1.0000 0.85350  0.36150  0.92830  Biso   1.000  C
  C213     1.0000 0.81490  0.33680  0.95400  Biso   1.000  C
  H118     1.0000 0.81350  0.33000  0.98760  Biso   1.000  H
  C214     1.0000 0.81620  0.35820  0.83860  Biso   1.000  C
  H119     1.0000 0.81750  0.36490  0.80500  Biso   1.000  H
  C215     1.0000 0.77880  0.33380  0.86570  Biso   1.000  C
  C216     1.0000 0.77890  0.32460  0.91760  Biso   1.000  C
  H120     1.0000 0.75120  0.30810  0.92940  Biso   1.000  H
  O56      1.0000 0.93200  0.39650  0.93800  Biso   1.000  O
  In9      1.0000 0.52672  0.00603  0.92946  Biso   1.000  In
  O57      1.0000 0.55572  0.02685  0.00139  Biso   1.000  O
  O58      1.0000 0.49650  0.97780  0.86260  Biso   1.000  O
  O59      1.0000 0.45690  0.04380  0.84370  Biso   1.000  O
  O60      1.0000 0.61104  0.93690  0.98485  Biso   1.000  O
  O61      1.0000 0.59050  0.96600  0.90850  Biso   1.000  O
  C217     1.0000 0.46570  0.99870  0.83950  Biso   1.000  C
  C218     1.0000 0.45280  0.97990  0.78980  Biso   1.000  C
  C219     1.0000 0.42160  0.01040  0.76180  Biso   1.000  C
  H121     1.0000 0.40570  0.03870  0.77280  Biso   1.000  H
  C220     1.0000 0.41840  0.98820  0.70830  Biso   1.000  C
  H122     1.0000 0.41290  0.00870  0.68130  Biso   1.000  H
  C221     1.0000 0.42420  0.93570  0.70130  Biso   1.000  C
  C222     1.0000 0.45320  0.91120  0.73170  Biso   1.000  C
  H123     1.0000 0.46380  0.87960  0.72380  Biso   1.000  H
  C223     1.0000 0.46780  0.93330  0.77570  Biso   1.000  C
  H124     1.0000 0.48870  0.91580  0.79650  Biso   1.000  H
  C224     1.0000 0.40680  0.91070  0.65500  Biso   1.000  C
  C225     1.0000 0.42900  0.87190  0.63670  Biso   1.000  C
  H125     1.0000 0.45770  0.86090  0.65180  Biso   1.000  H
  C226     1.0000 0.61790  0.93870  0.94020  Biso   1.000  C
  C227     1.0000 0.66490  0.92000  0.91820  Biso   1.000  C
  C228     1.0000 0.67570  0.92510  0.87020  Biso   1.000  C
  H126     1.0000 0.65300  0.94070  0.84970  Biso   1.000  H
  C229     1.0000 0.71640  0.90920  0.85140  Biso   1.000  C
  H127     1.0000 0.72440  0.91600  0.81870  Biso   1.000  H
  C230     1.0000 0.74900  0.88090  0.88170  Biso   1.000  C
  C231     1.0000 0.73880  0.87710  0.92910  Biso   1.000  C
  H128     1.0000 0.76130  0.86270  0.95070  Biso   1.000  H
  C232     1.0000 0.69720  0.89390  0.94500  Biso   1.000  C
  H129     1.0000 0.68890  0.88730  0.97760  Biso   1.000  H
  C233     1.0000 0.79870  0.86010  0.86090  Biso   1.000  C
  C234     1.0000 0.81960  0.87920  0.81900  Biso   1.000  C
  H130     1.0000 0.80470  0.90610  0.80400  Biso   1.000  H
  C235     1.0000 0.62370  0.14810  0.87000  Biso   1.000  C
  H131     1.0000 0.63560  0.12060  0.88650  Biso   1.000  H
  O62      1.0000 0.49160  0.12370  0.88610  Biso   1.000  O
  C236     1.0000 0.54110  0.10640  0.87690  Biso   1.000  C
  C237     1.0000 0.67750  0.25660  0.81670  Biso   1.000  C
  C238     1.0000 0.71810  0.27690  0.84420  Biso   1.000  C
  H132     1.0000 0.72720  0.26440  0.87480  Biso   1.000  H
  C239     1.0000 0.57170  0.14650  0.86150  Biso   1.000  C
  C240     1.0000 0.54600  0.18510  0.83680  Biso   1.000  C
  H133     1.0000 0.51240  0.18650  0.83000  Biso   1.000  H
  C241     1.0000 0.66140  0.18380  0.85820  Biso   1.000  C
  H134     1.0000 0.69500  0.18250  0.86490  Biso   1.000  H
  C242     1.0000 0.63430  0.22120  0.83380  Biso   1.000  C
  C243     1.0000 0.58240  0.22110  0.82460  Biso   1.000  C
  H135     1.0000 0.57060  0.24880  0.80810  Biso   1.000  H
  O63      1.0000 0.56200  0.06800  0.89650  Biso   1.000  O
  In10     1.0000 0.47328  0.50603  0.57054  Biso   1.000  In
  O64      1.0000 0.44428  0.52685  0.49861  Biso   1.000  O
  O65      1.0000 0.50350  0.47780  0.63740  Biso   1.000  O
  O66      1.0000 0.54310  0.54380  0.65630  Biso   1.000  O
  O67      1.0000 0.38896  0.43690  0.51515  Biso   1.000  O
  O68      1.0000 0.40950  0.46600  0.59150  Biso   1.000  O
  C244     1.0000 0.53430  0.49870  0.66050  Biso   1.000  C
  C245     1.0000 0.54720  0.47990  0.71020  Biso   1.000  C
  C246     1.0000 0.57840  0.51040  0.73820  Biso   1.000  C
  H136     1.0000 0.59430  0.53870  0.72720  Biso   1.000  H
  C247     1.0000 0.58160  0.48820  0.79170  Biso   1.000  C
  H137     1.0000 0.58710  0.50870  0.81870  Biso   1.000  H
  C248     1.0000 0.57580  0.43570  0.79870  Biso   1.000  C
  C249     1.0000 0.54680  0.41120  0.76830  Biso   1.000  C
  H138     1.0000 0.53620  0.37960  0.77620  Biso   1.000  H
  C250     1.0000 0.53220  0.43330  0.72430  Biso   1.000  C
  H139     1.0000 0.51130  0.41580  0.70350  Biso   1.000  H
  C251     1.0000 0.59320  0.41070  0.84500  Biso   1.000  C
  C252     1.0000 0.57100  0.37190  0.86330  Biso   1.000  C
  H140     1.0000 0.54230  0.36090  0.84820  Biso   1.000  H
  C253     1.0000 0.38210  0.43870  0.55980  Biso   1.000  C
  C254     1.0000 0.33510  0.42000  0.58180  Biso   1.000  C
  C255     1.0000 0.32430  0.42510  0.62980  Biso   1.000  C
  H141     1.0000 0.34700  0.44070  0.65030  Biso   1.000  H
  C256     1.0000 0.28360  0.40920  0.64860  Biso   1.000  C
  H142     1.0000 0.27560  0.41600  0.68130  Biso   1.000  H
  C257     1.0000 0.25100  0.38090  0.61830  Biso   1.000  C
  C258     1.0000 0.26120  0.37710  0.57090  Biso   1.000  C
  H143     1.0000 0.23870  0.36270  0.54930  Biso   1.000  H
  C259     1.0000 0.30280  0.39390  0.55500  Biso   1.000  C
  H144     1.0000 0.31110  0.38730  0.52240  Biso   1.000  H
  C260     1.0000 0.20130  0.36010  0.63910  Biso   1.000  C
  C261     1.0000 0.18040  0.37920  0.68100  Biso   1.000  C
  H145     1.0000 0.19530  0.40610  0.69600  Biso   1.000  H
  C262     1.0000 0.37630  0.64810  0.63000  Biso   1.000  C
  H146     1.0000 0.36440  0.62060  0.61350  Biso   1.000  H
  O69      1.0000 0.50840  0.62370  0.61390  Biso   1.000  O
  C263     1.0000 0.45890  0.60640  0.62310  Biso   1.000  C
  C264     1.0000 0.32250  0.75660  0.68330  Biso   1.000  C
  C265     1.0000 0.28190  0.77690  0.65580  Biso   1.000  C
  H147     1.0000 0.27280  0.76440  0.62520  Biso   1.000  H
  C266     1.0000 0.42830  0.64650  0.63850  Biso   1.000  C
  C267     1.0000 0.45400  0.68510  0.66320  Biso   1.000  C
  H148     1.0000 0.48760  0.68650  0.67000  Biso   1.000  H
  C268     1.0000 0.33860  0.68380  0.64180  Biso   1.000  C
  H149     1.0000 0.30500  0.68250  0.63510  Biso   1.000  H
  C269     1.0000 0.36570  0.72120  0.66620  Biso   1.000  C
  C270     1.0000 0.41760  0.72110  0.67540  Biso   1.000  C
  H150     1.0000 0.42940  0.74880  0.69190  Biso   1.000  H
  O70      1.0000 0.43800  0.56800  0.60350  Biso   1.000  O
  In11     1.0000 0.02672  0.49397  0.07054  Biso   1.000  In
  O71      1.0000 0.05572  0.47315  0.99861  Biso   1.000  O
  O72      1.0000 0.99650  0.52220  0.13740  Biso   1.000  O
  O73      1.0000 0.95690  0.45620  0.15630  Biso   1.000  O
  O74      1.0000 0.11104  0.56310  0.01515  Biso   1.000  O
  O75      1.0000 0.09050  0.53400  0.09150  Biso   1.000  O
  C271     1.0000 0.96570  0.50130  0.16050  Biso   1.000  C
  C272     1.0000 0.95280  0.52010  0.21020  Biso   1.000  C
  C273     1.0000 0.92160  0.48960  0.23820  Biso   1.000  C
  H151     1.0000 0.90570  0.46130  0.22720  Biso   1.000  H
  C274     1.0000 0.91840  0.51180  0.29170  Biso   1.000  C
  H152     1.0000 0.91290  0.49130  0.31870  Biso   1.000  H
  C275     1.0000 0.92420  0.56430  0.29870  Biso   1.000  C
  C276     1.0000 0.95320  0.58880  0.26830  Biso   1.000  C
  H153     1.0000 0.96380  0.62040  0.27620  Biso   1.000  H
  C277     1.0000 0.96780  0.56670  0.22430  Biso   1.000  C
  H154     1.0000 0.98870  0.58420  0.20350  Biso   1.000  H
  C278     1.0000 0.90680  0.58930  0.34500  Biso   1.000  C
  C279     1.0000 0.92900  0.62810  0.36330  Biso   1.000  C
  H155     1.0000 0.95770  0.63910  0.34820  Biso   1.000  H
  C280     1.0000 0.11790  0.56130  0.05980  Biso   1.000  C
  C281     1.0000 0.16490  0.58000  0.08180  Biso   1.000  C
  C282     1.0000 0.17570  0.57490  0.12980  Biso   1.000  C
  H156     1.0000 0.15300  0.55930  0.15030  Biso   1.000  H
  C283     1.0000 0.21640  0.59080  0.14860  Biso   1.000  C
  H157     1.0000 0.22440  0.58400  0.18130  Biso   1.000  H
  C284     1.0000 0.24900  0.61910  0.11830  Biso   1.000  C
  C285     1.0000 0.23880  0.62290  0.07090  Biso   1.000  C
  H158     1.0000 0.26130  0.63730  0.04930  Biso   1.000  H
  C286     1.0000 0.19720  0.60610  0.05500  Biso   1.000  C
  H159     1.0000 0.18890  0.61270  0.02240  Biso   1.000  H
  C287     1.0000 0.29870  0.63990  0.13910  Biso   1.000  C
  C288     1.0000 0.31960  0.62080  0.18100  Biso   1.000  C
  H160     1.0000 0.30470  0.59390  0.19600  Biso   1.000  H
  C289     1.0000 0.12370  0.35190  0.13000  Biso   1.000  C
  H161     1.0000 0.13560  0.37940  0.11350  Biso   1.000  H
  O76      1.0000 0.99160  0.37630  0.11390  Biso   1.000  O
  C290     1.0000 0.04110  0.39360  0.12310  Biso   1.000  C
  C291     1.0000 0.17750  0.24340  0.18330  Biso   1.000  C
  C292     1.0000 0.21810  0.22310  0.15580  Biso   1.000  C
  H162     1.0000 0.22720  0.23560  0.12520  Biso   1.000  H
  C293     1.0000 0.07170  0.35350  0.13850  Biso   1.000  C
  C294     1.0000 0.04600  0.31490  0.16320  Biso   1.000  C
  H163     1.0000 0.01240  0.31350  0.17000  Biso   1.000  H
  C295     1.0000 0.16140  0.31620  0.14180  Biso   1.000  C
  H164     1.0000 0.19500  0.31750  0.13510  Biso   1.000  H
  C296     1.0000 0.13430  0.27880  0.16620  Biso   1.000  C
  C297     1.0000 0.08240  0.27890  0.17540  Biso   1.000  C
  H165     1.0000 0.07060  0.25120  0.19190  Biso   1.000  H
  O77      1.0000 0.06200  0.43200  0.10350  Biso   1.000  O
  In12     1.0000 0.97328  0.99397  0.42946  Biso   1.000  In
  O78      1.0000 0.94428  0.97315  0.50139  Biso   1.000  O
  O79      1.0000 0.00350  0.02220  0.36260  Biso   1.000  O
  O80      1.0000 0.04310  0.95620  0.34370  Biso   1.000  O
  O81      1.0000 0.88896  0.06310  0.48485  Biso   1.000  O
  O82      1.0000 0.90950  0.03400  0.40850  Biso   1.000  O
  C298     1.0000 0.03430  0.00130  0.33950  Biso   1.000  C
  C299     1.0000 0.04720  0.02010  0.28980  Biso   1.000  C
  C300     1.0000 0.07840  0.98960  0.26180  Biso   1.000  C
  H166     1.0000 0.09430  0.96130  0.27280  Biso   1.000  H
  C301     1.0000 0.08160  0.01180  0.20830  Biso   1.000  C
  H167     1.0000 0.08710  0.99130  0.18130  Biso   1.000  H
  C302     1.0000 0.07580  0.06430  0.20130  Biso   1.000  C
  C303     1.0000 0.04680  0.08880  0.23170  Biso   1.000  C
  H168     1.0000 0.03620  0.12040  0.22380  Biso   1.000  H
  C304     1.0000 0.03220  0.06670  0.27570  Biso   1.000  C
  H169     1.0000 0.01130  0.08420  0.29650  Biso   1.000  H
  C305     1.0000 0.09320  0.08930  0.15500  Biso   1.000  C
  C306     1.0000 0.07100  0.12810  0.13670  Biso   1.000  C
  H170     1.0000 0.04230  0.13910  0.15180  Biso   1.000  H
  C307     1.0000 0.88210  0.06130  0.44020  Biso   1.000  C
  C308     1.0000 0.83510  0.08000  0.41820  Biso   1.000  C
  C309     1.0000 0.82430  0.07490  0.37020  Biso   1.000  C
  H171     1.0000 0.84700  0.05930  0.34970  Biso   1.000  H
  C310     1.0000 0.78360  0.09080  0.35140  Biso   1.000  C
  H172     1.0000 0.77560  0.08400  0.31870  Biso   1.000  H
  C311     1.0000 0.75100  0.11910  0.38170  Biso   1.000  C
  C312     1.0000 0.76120  0.12290  0.42910  Biso   1.000  C
  H173     1.0000 0.73870  0.13730  0.45070  Biso   1.000  H
  C313     1.0000 0.80280  0.10610  0.44500  Biso   1.000  C
  H174     1.0000 0.81110  0.11270  0.47760  Biso   1.000  H
  C314     1.0000 0.70130  0.13990  0.36090  Biso   1.000  C
  C315     1.0000 0.68040  0.12080  0.31900  Biso   1.000  C
  H175     1.0000 0.69530  0.09390  0.30400  Biso   1.000  H
  C316     1.0000 0.87630  0.85190  0.37000  Biso   1.000  C
  H176     1.0000 0.86440  0.87940  0.38650  Biso   1.000  H
  O83      1.0000 0.00840  0.87630  0.38610  Biso   1.000  O
  C317     1.0000 0.95890  0.89360  0.37690  Biso   1.000  C
  C318     1.0000 0.82250  0.74340  0.31670  Biso   1.000  C
  C319     1.0000 0.78190  0.72310  0.34420  Biso   1.000  C
  H177     1.0000 0.77280  0.73560  0.37480  Biso   1.000  H
  C320     1.0000 0.92830  0.85350  0.36150  Biso   1.000  C
  C321     1.0000 0.95400  0.81490  0.33680  Biso   1.000  C
  H178     1.0000 0.98760  0.81350  0.33000  Biso   1.000  H
  C322     1.0000 0.83860  0.81620  0.35820  Biso   1.000  C
  H179     1.0000 0.80500  0.81750  0.36490  Biso   1.000  H
  C323     1.0000 0.86570  0.77880  0.33380  Biso   1.000  C
  C324     1.0000 0.91760  0.77890  0.32460  Biso   1.000  C
  H180     1.0000 0.92940  0.75120  0.30810  Biso   1.000  H
  O84      1.0000 0.93800  0.93200  0.39650  Biso   1.000  O
  Pr1      1.0000 0.05240  0.55240  0.94760  Biso   1.000  Pr
  Pr2      1.0000 0.90984  0.40984  0.09016  Biso   1.000  Pr
  O85      1.0000 0.96137  0.46137  0.03863  Biso   1.000  O
  Pr3      1.0000 0.44760  0.44760  0.44760  Biso   1.000  Pr
  Pr4      1.0000 0.59016  0.59016  0.59016  Biso   1.000  Pr
  O86      1.0000 0.53863  0.53863  0.53863  Biso   1.000  O
  Pr5      1.0000 0.94760  0.05240  0.55240  Biso   1.000  Pr
  Pr6      1.0000 0.09016  0.90984  0.40984  Biso   1.000  Pr
  O87      1.0000 0.03863  0.96137  0.46137  Biso   1.000  O
  Pr7      1.0000 0.55240  0.94760  0.05240  Biso   1.000  Pr
  Pr8      1.0000 0.40984  0.09016  0.90984  Biso   1.000  Pr
  O88      1.0000 0.46137  0.03863  0.96137  Biso   1.000  O
