data_image0
_cell_length_a       16.8845
_cell_length_b       16.8845
_cell_length_c       16.8845
_cell_angle_alpha    90
_cell_angle_beta     90
_cell_angle_gamma    90

_symmetry_space_group_name_H-M    "P 1"
_symmetry_int_tables_number       1

loop_
  _symmetry_equiv_pos_as_xyz
  'x, y, z'

loop_
  _atom_site_label
  _atom_site_occupancy
  _atom_site_fract_x
  _atom_site_fract_y
  _atom_site_fract_z
  _atom_site_thermal_displace_type
  _atom_site_B_iso_or_equiv
  _atom_site_type_symbol
  In1      1.0000 0.99224  0.61415  0.54975  Biso   1.000  In
  O1       1.0000 0.08880  0.54260  0.50560  Biso   1.000  O
  O2       1.0000 0.03840  0.71860  0.49960  Biso   1.000  O
  O3       1.0000 0.88690  0.66320  0.59680  Biso   1.000  O
  O4       1.0000 0.88510  0.58000  0.70010  Biso   1.000  O
  C1       1.0000 0.12290  0.62710  0.77380  Biso   1.000  C
  O5       1.0000 0.94670  0.74320  0.40900  Biso   1.000  O
  O6       1.0000 0.05360  0.64660  0.65410  Biso   1.000  O
  C2       1.0000 0.05830  0.83150  0.42090  Biso   1.000  C
  C3       1.0000 0.12480  0.85350  0.46320  Biso   1.000  C
  H1       1.0000 0.14080  0.82330  0.50650  Biso   1.000  H
  C4       1.0000 0.08790  0.59510  0.69670  Biso   1.000  C
  C5       1.0000 0.00990  0.75950  0.44360  Biso   1.000  C
  C6       1.0000 0.09030  0.69470  0.80940  Biso   1.000  C
  H2       1.0000 0.04520  0.71830  0.78850  Biso   1.000  H
  C7       1.0000 0.85930  0.63780  0.66270  Biso   1.000  C
  C8       1.0000 0.75030  0.65550  0.76180  Biso   1.000  C
  H3       1.0000 0.76900  0.61130  0.78880  Biso   1.000  H
  C9       1.0000 0.78930  0.68210  0.69510  Biso   1.000  C
  O7       1.0000 0.09600  0.52420  0.68200  Biso   1.000  O
  In2      1.0000 0.50776  0.38585  0.04975  Biso   1.000  In
  O8       1.0000 0.41120  0.45740  0.00560  Biso   1.000  O
  O9       1.0000 0.46160  0.28140  0.99960  Biso   1.000  O
  O10      1.0000 0.61310  0.33680  0.09680  Biso   1.000  O
  O11      1.0000 0.61490  0.42000  0.20010  Biso   1.000  O
  C10      1.0000 0.37710  0.37290  0.27380  Biso   1.000  C
  O12      1.0000 0.55330  0.25680  0.90900  Biso   1.000  O
  O13      1.0000 0.44640  0.35340  0.15410  Biso   1.000  O
  C11      1.0000 0.44170  0.16850  0.92090  Biso   1.000  C
  C12      1.0000 0.37520  0.14650  0.96320  Biso   1.000  C
  H4       1.0000 0.35920  0.17670  0.00650  Biso   1.000  H
  C13      1.0000 0.41210  0.40490  0.19670  Biso   1.000  C
  C14      1.0000 0.49010  0.24050  0.94360  Biso   1.000  C
  C15      1.0000 0.40970  0.30530  0.30940  Biso   1.000  C
  H5       1.0000 0.45480  0.28170  0.28850  Biso   1.000  H
  C16      1.0000 0.64070  0.36220  0.16270  Biso   1.000  C
  C17      1.0000 0.74970  0.34450  0.26180  Biso   1.000  C
  H6       1.0000 0.73100  0.38870  0.28880  Biso   1.000  H
  C18      1.0000 0.71070  0.31790  0.19510  Biso   1.000  C
  O14      1.0000 0.40400  0.47580  0.18200  Biso   1.000  O
  In3      1.0000 0.00776  0.11415  0.95025  Biso   1.000  In
  O15      1.0000 0.91120  0.04260  0.99440  Biso   1.000  O
  O16      1.0000 0.96160  0.21860  0.00040  Biso   1.000  O
  O17      1.0000 0.11310  0.16320  0.90320  Biso   1.000  O
  O18      1.0000 0.11490  0.08000  0.79990  Biso   1.000  O
  C19      1.0000 0.87710  0.12710  0.72620  Biso   1.000  C
  O19      1.0000 0.05330  0.24320  0.09100  Biso   1.000  O
  O20      1.0000 0.94640  0.14660  0.84590  Biso   1.000  O
  C20      1.0000 0.94170  0.33150  0.07910  Biso   1.000  C
  C21      1.0000 0.87520  0.35350  0.03680  Biso   1.000  C
  H7       1.0000 0.85920  0.32330  0.99350  Biso   1.000  H
  C22      1.0000 0.91210  0.09510  0.80330  Biso   1.000  C
  C23      1.0000 0.99010  0.25950  0.05640  Biso   1.000  C
  C24      1.0000 0.90970  0.19470  0.69060  Biso   1.000  C
  H8       1.0000 0.95480  0.21830  0.71150  Biso   1.000  H
  C25      1.0000 0.14070  0.13780  0.83730  Biso   1.000  C
  C26      1.0000 0.24970  0.15550  0.73820  Biso   1.000  C
  H9       1.0000 0.23100  0.11130  0.71120  Biso   1.000  H
  C27      1.0000 0.21070  0.18210  0.80490  Biso   1.000  C
  O21      1.0000 0.90400  0.02420  0.81800  Biso   1.000  O
  In4      1.0000 0.49224  0.88585  0.45025  Biso   1.000  In
  O22      1.0000 0.58880  0.95740  0.49440  Biso   1.000  O
  O23      1.0000 0.53840  0.78140  0.50040  Biso   1.000  O
  O24      1.0000 0.38690  0.83680  0.40320  Biso   1.000  O
  O25      1.0000 0.38510  0.92000  0.29990  Biso   1.000  O
  C28      1.0000 0.62290  0.87290  0.22620  Biso   1.000  C
  O26      1.0000 0.44670  0.75680  0.59100  Biso   1.000  O
  O27      1.0000 0.55360  0.85340  0.34590  Biso   1.000  O
  C29      1.0000 0.55830  0.66850  0.57910  Biso   1.000  C
  C30      1.0000 0.62480  0.64650  0.53680  Biso   1.000  C
  H10      1.0000 0.64080  0.67670  0.49350  Biso   1.000  H
  C31      1.0000 0.58790  0.90490  0.30330  Biso   1.000  C
  C32      1.0000 0.50990  0.74050  0.55640  Biso   1.000  C
  C33      1.0000 0.59030  0.80530  0.19060  Biso   1.000  C
  H11      1.0000 0.54520  0.78170  0.21150  Biso   1.000  H
  C34      1.0000 0.35930  0.86220  0.33730  Biso   1.000  C
  C35      1.0000 0.25030  0.84450  0.23820  Biso   1.000  C
  H12      1.0000 0.26900  0.88870  0.21120  Biso   1.000  H
  C36      1.0000 0.28930  0.81790  0.30490  Biso   1.000  C
  O28      1.0000 0.59600  0.97580  0.31800  Biso   1.000  O
  In5      1.0000 0.54975  0.99224  0.61415  Biso   1.000  In
  O29      1.0000 0.50560  0.08880  0.54260  Biso   1.000  O
  O30      1.0000 0.49960  0.03840  0.71860  Biso   1.000  O
  O31      1.0000 0.59680  0.88690  0.66320  Biso   1.000  O
  O32      1.0000 0.70010  0.88510  0.58000  Biso   1.000  O
  C37      1.0000 0.77380  0.12290  0.62710  Biso   1.000  C
  O33      1.0000 0.40900  0.94670  0.74320  Biso   1.000  O
  O34      1.0000 0.65410  0.05360  0.64660  Biso   1.000  O
  C38      1.0000 0.42090  0.05830  0.83150  Biso   1.000  C
  C39      1.0000 0.46320  0.12480  0.85350  Biso   1.000  C
  H13      1.0000 0.50650  0.14080  0.82330  Biso   1.000  H
  C40      1.0000 0.69670  0.08790  0.59510  Biso   1.000  C
  C41      1.0000 0.44360  0.00990  0.75950  Biso   1.000  C
  C42      1.0000 0.80940  0.09030  0.69470  Biso   1.000  C
  H14      1.0000 0.78850  0.04520  0.71830  Biso   1.000  H
  C43      1.0000 0.66270  0.85930  0.63780  Biso   1.000  C
  C44      1.0000 0.76180  0.75030  0.65550  Biso   1.000  C
  H15      1.0000 0.78880  0.76900  0.61130  Biso   1.000  H
  C45      1.0000 0.69510  0.78930  0.68210  Biso   1.000  C
  O35      1.0000 0.68200  0.09600  0.52420  Biso   1.000  O
  In6      1.0000 0.04975  0.50776  0.38585  Biso   1.000  In
  O36      1.0000 0.00560  0.41120  0.45740  Biso   1.000  O
  O37      1.0000 0.99960  0.46160  0.28140  Biso   1.000  O
  O38      1.0000 0.09680  0.61310  0.33680  Biso   1.000  O
  O39      1.0000 0.20010  0.61490  0.42000  Biso   1.000  O
  C46      1.0000 0.27380  0.37710  0.37290  Biso   1.000  C
  O40      1.0000 0.90900  0.55330  0.25680  Biso   1.000  O
  O41      1.0000 0.15410  0.44640  0.35340  Biso   1.000  O
  C47      1.0000 0.92090  0.44170  0.16850  Biso   1.000  C
  C48      1.0000 0.96320  0.37520  0.14650  Biso   1.000  C
  H16      1.0000 0.00650  0.35920  0.17670  Biso   1.000  H
  C49      1.0000 0.19670  0.41210  0.40490  Biso   1.000  C
  C50      1.0000 0.94360  0.49010  0.24050  Biso   1.000  C
  C51      1.0000 0.30940  0.40970  0.30530  Biso   1.000  C
  H17      1.0000 0.28850  0.45480  0.28170  Biso   1.000  H
  C52      1.0000 0.16270  0.64070  0.36220  Biso   1.000  C
  C53      1.0000 0.26180  0.74970  0.34450  Biso   1.000  C
  H18      1.0000 0.28880  0.73100  0.38870  Biso   1.000  H
  C54      1.0000 0.19510  0.71070  0.31790  Biso   1.000  C
  O42      1.0000 0.18200  0.40400  0.47580  Biso   1.000  O
  In7      1.0000 0.95025  0.00776  0.11415  Biso   1.000  In
  O43      1.0000 0.99440  0.91120  0.04260  Biso   1.000  O
  O44      1.0000 0.00040  0.96160  0.21860  Biso   1.000  O
  O45      1.0000 0.90320  0.11310  0.16320  Biso   1.000  O
  O46      1.0000 0.79990  0.11490  0.08000  Biso   1.000  O
  C55      1.0000 0.72620  0.87710  0.12710  Biso   1.000  C
  O47      1.0000 0.09100  0.05330  0.24320  Biso   1.000  O
  O48      1.0000 0.84590  0.94640  0.14660  Biso   1.000  O
  C56      1.0000 0.07910  0.94170  0.33150  Biso   1.000  C
  C57      1.0000 0.03680  0.87520  0.35350  Biso   1.000  C
  H19      1.0000 0.99350  0.85920  0.32330  Biso   1.000  H
  C58      1.0000 0.80330  0.91210  0.09510  Biso   1.000  C
  C59      1.0000 0.05640  0.99010  0.25950  Biso   1.000  C
  C60      1.0000 0.69060  0.90970  0.19470  Biso   1.000  C
  H20      1.0000 0.71150  0.95480  0.21830  Biso   1.000  H
  C61      1.0000 0.83730  0.14070  0.13780  Biso   1.000  C
  C62      1.0000 0.73820  0.24970  0.15550  Biso   1.000  C
  H21      1.0000 0.71120  0.23100  0.11130  Biso   1.000  H
  C63      1.0000 0.80490  0.21070  0.18210  Biso   1.000  C
  O49      1.0000 0.81800  0.90400  0.02420  Biso   1.000  O
  In8      1.0000 0.45025  0.49224  0.88585  Biso   1.000  In
  O50      1.0000 0.49440  0.58880  0.95740  Biso   1.000  O
  O51      1.0000 0.50040  0.53840  0.78140  Biso   1.000  O
  O52      1.0000 0.40320  0.38690  0.83680  Biso   1.000  O
  O53      1.0000 0.29990  0.38510  0.92000  Biso   1.000  O
  C64      1.0000 0.22620  0.62290  0.87290  Biso   1.000  C
  O54      1.0000 0.59100  0.44670  0.75680  Biso   1.000  O
  O55      1.0000 0.34590  0.55360  0.85340  Biso   1.000  O
  C65      1.0000 0.57910  0.55830  0.66850  Biso   1.000  C
  C66      1.0000 0.53680  0.62480  0.64650  Biso   1.000  C
  H22      1.0000 0.49350  0.64080  0.67670  Biso   1.000  H
  C67      1.0000 0.30330  0.58790  0.90490  Biso   1.000  C
  C68      1.0000 0.55640  0.50990  0.74050  Biso   1.000  C
  C69      1.0000 0.19060  0.59030  0.80530  Biso   1.000  C
  H23      1.0000 0.21150  0.54520  0.78170  Biso   1.000  H
  C70      1.0000 0.33730  0.35930  0.86220  Biso   1.000  C
  C71      1.0000 0.23820  0.25030  0.84450  Biso   1.000  C
  H24      1.0000 0.21120  0.26900  0.88870  Biso   1.000  H
  C72      1.0000 0.30490  0.28930  0.81790  Biso   1.000  C
  O56      1.0000 0.31800  0.59600  0.97580  Biso   1.000  O
  In9      1.0000 0.61415  0.54975  0.99224  Biso   1.000  In
  O57      1.0000 0.54260  0.50560  0.08880  Biso   1.000  O
  O58      1.0000 0.71860  0.49960  0.03840  Biso   1.000  O
  O59      1.0000 0.66320  0.59680  0.88690  Biso   1.000  O
  O60      1.0000 0.58000  0.70010  0.88510  Biso   1.000  O
  C73      1.0000 0.62710  0.77380  0.12290  Biso   1.000  C
  O61      1.0000 0.74320  0.40900  0.94670  Biso   1.000  O
  O62      1.0000 0.64660  0.65410  0.05360  Biso   1.000  O
  C74      1.0000 0.83150  0.42090  0.05830  Biso   1.000  C
  C75      1.0000 0.85350  0.46320  0.12480  Biso   1.000  C
  H25      1.0000 0.82330  0.50650  0.14080  Biso   1.000  H
  C76      1.0000 0.59510  0.69670  0.08790  Biso   1.000  C
  C77      1.0000 0.75950  0.44360  0.00990  Biso   1.000  C
  C78      1.0000 0.69470  0.80940  0.09030  Biso   1.000  C
  H26      1.0000 0.71830  0.78850  0.04520  Biso   1.000  H
  C79      1.0000 0.63780  0.66270  0.85930  Biso   1.000  C
  C80      1.0000 0.65550  0.76180  0.75030  Biso   1.000  C
  H27      1.0000 0.61130  0.78880  0.76900  Biso   1.000  H
  C81      1.0000 0.68210  0.69510  0.78930  Biso   1.000  C
  O63      1.0000 0.52420  0.68200  0.09600  Biso   1.000  O
  In10     1.0000 0.38585  0.04975  0.50776  Biso   1.000  In
  O64      1.0000 0.45740  0.00560  0.41120  Biso   1.000  O
  O65      1.0000 0.28140  0.99960  0.46160  Biso   1.000  O
  O66      1.0000 0.33680  0.09680  0.61310  Biso   1.000  O
  O67      1.0000 0.42000  0.20010  0.61490  Biso   1.000  O
  C82      1.0000 0.37290  0.27380  0.37710  Biso   1.000  C
  O68      1.0000 0.25680  0.90900  0.55330  Biso   1.000  O
  O69      1.0000 0.35340  0.15410  0.44640  Biso   1.000  O
  C83      1.0000 0.16850  0.92090  0.44170  Biso   1.000  C
  C84      1.0000 0.14650  0.96320  0.37520  Biso   1.000  C
  H28      1.0000 0.17670  0.00650  0.35920  Biso   1.000  H
  C85      1.0000 0.40490  0.19670  0.41210  Biso   1.000  C
  C86      1.0000 0.24050  0.94360  0.49010  Biso   1.000  C
  C87      1.0000 0.30530  0.30940  0.40970  Biso   1.000  C
  H29      1.0000 0.28170  0.28850  0.45480  Biso   1.000  H
  C88      1.0000 0.36220  0.16270  0.64070  Biso   1.000  C
  C89      1.0000 0.34450  0.26180  0.74970  Biso   1.000  C
  H30      1.0000 0.38870  0.28880  0.73100  Biso   1.000  H
  C90      1.0000 0.31790  0.19510  0.71070  Biso   1.000  C
  O70      1.0000 0.47580  0.18200  0.40400  Biso   1.000  O
  In11     1.0000 0.11415  0.95025  0.00776  Biso   1.000  In
  O71      1.0000 0.04260  0.99440  0.91120  Biso   1.000  O
  O72      1.0000 0.21860  0.00040  0.96160  Biso   1.000  O
  O73      1.0000 0.16320  0.90320  0.11310  Biso   1.000  O
  O74      1.0000 0.08000  0.79990  0.11490  Biso   1.000  O
  C91      1.0000 0.12710  0.72620  0.87710  Biso   1.000  C
  O75      1.0000 0.24320  0.09100  0.05330  Biso   1.000  O
  O76      1.0000 0.14660  0.84590  0.94640  Biso   1.000  O
  C92      1.0000 0.33150  0.07910  0.94170  Biso   1.000  C
  C93      1.0000 0.35350  0.03680  0.87520  Biso   1.000  C
  H31      1.0000 0.32330  0.99350  0.85920  Biso   1.000  H
  C94      1.0000 0.09510  0.80330  0.91210  Biso   1.000  C
  C95      1.0000 0.25950  0.05640  0.99010  Biso   1.000  C
  C96      1.0000 0.19470  0.69060  0.90970  Biso   1.000  C
  H32      1.0000 0.21830  0.71150  0.95480  Biso   1.000  H
  C97      1.0000 0.13780  0.83730  0.14070  Biso   1.000  C
  C98      1.0000 0.15550  0.73820  0.24970  Biso   1.000  C
  H33      1.0000 0.11130  0.71120  0.23100  Biso   1.000  H
  C99      1.0000 0.18210  0.80490  0.21070  Biso   1.000  C
  O77      1.0000 0.02420  0.81800  0.90400  Biso   1.000  O
  In12     1.0000 0.88585  0.45025  0.49224  Biso   1.000  In
  O78      1.0000 0.95740  0.49440  0.58880  Biso   1.000  O
  O79      1.0000 0.78140  0.50040  0.53840  Biso   1.000  O
  O80      1.0000 0.83680  0.40320  0.38690  Biso   1.000  O
  O81      1.0000 0.92000  0.29990  0.38510  Biso   1.000  O
  C100     1.0000 0.87290  0.22620  0.62290  Biso   1.000  C
  O82      1.0000 0.75680  0.59100  0.44670  Biso   1.000  O
  O83      1.0000 0.85340  0.34590  0.55360  Biso   1.000  O
  C101     1.0000 0.66850  0.57910  0.55830  Biso   1.000  C
  C102     1.0000 0.64650  0.53680  0.62480  Biso   1.000  C
  H34      1.0000 0.67670  0.49350  0.64080  Biso   1.000  H
  C103     1.0000 0.90490  0.30330  0.58790  Biso   1.000  C
  C104     1.0000 0.74050  0.55640  0.50990  Biso   1.000  C
  C105     1.0000 0.80530  0.19060  0.59030  Biso   1.000  C
  H35      1.0000 0.78170  0.21150  0.54520  Biso   1.000  H
  C106     1.0000 0.86220  0.33730  0.35930  Biso   1.000  C
  C107     1.0000 0.84450  0.23820  0.25030  Biso   1.000  C
  H36      1.0000 0.88870  0.21120  0.26900  Biso   1.000  H
  C108     1.0000 0.81790  0.30490  0.28930  Biso   1.000  C
  O84      1.0000 0.97580  0.31800  0.59600  Biso   1.000  O
  Sm1      1.0000 0.08394  0.41606  0.58394  Biso   1.000  Sm
  O85      1.0000 0.93980  0.56020  0.43980  Biso   1.000  O
  Sm2      1.0000 0.41606  0.58394  0.08394  Biso   1.000  Sm
  O86      1.0000 0.56020  0.43980  0.93980  Biso   1.000  O
  Sm3      1.0000 0.91606  0.91606  0.91606  Biso   1.000  Sm
  O87      1.0000 0.06020  0.06020  0.06020  Biso   1.000  O
  Sm4      1.0000 0.58394  0.08394  0.41606  Biso   1.000  Sm
  O88      1.0000 0.43980  0.93980  0.56020  Biso   1.000  O
