data_image0
_cell_length_a       31.95
_cell_length_b       8.3596
_cell_length_c       15.9195
_cell_angle_alpha    90
_cell_angle_beta     96.645
_cell_angle_gamma    90

_symmetry_space_group_name_H-M    "P 1"
_symmetry_int_tables_number       1

loop_
  _symmetry_equiv_pos_as_xyz
  'x, y, z'

loop_
  _atom_site_label
  _atom_site_occupancy
  _atom_site_fract_x
  _atom_site_fract_y
  _atom_site_fract_z
  _atom_site_thermal_displace_type
  _atom_site_B_iso_or_equiv
  _atom_site_type_symbol
  Co1      1.0000 0.12823  0.71906  0.05946  Biso   1.000  Co
  Co2      1.0000 0.37163  0.20807  0.91045  Biso   1.000  Co
  Co3      1.0000 0.24950  0.50505  0.10884  Biso   1.000  Co
  Co4      1.0000 0.24647  0.48626  0.36672  Biso   1.000  Co
  Co5      1.0000 0.50774  0.26192  0.98854  Biso   1.000  Co
  Co6      1.0000 0.99364  0.75879  0.01360  Biso   1.000  Co
  P1       1.0000 0.16933  0.46800  0.20545  Biso   1.000  P
  P2       1.0000 0.21904  0.79290  0.99027  Biso   1.000  P
  P3       1.0000 0.06380  0.98270  0.10975  Biso   1.000  P
  P4       1.0000 0.28170  0.34490  0.94157  Biso   1.000  P
  P5       1.0000 0.43521  0.03710  0.05996  Biso   1.000  P
  P6       1.0000 0.05636  0.55480  0.91935  Biso   1.000  P
  P7       1.0000 0.44275  0.48100  0.87112  Biso   1.000  P
  P8       1.0000 0.32550  0.52990  0.27685  Biso   1.000  P
  O1       1.0000 0.17140  0.76910  0.98810  Biso   1.000  O
  O2       1.0000 0.14890  0.62430  0.16860  Biso   1.000  O
  O3       1.0000 0.08539  0.57720  0.00250  Biso   1.000  O
  O4       1.0000 0.10920  0.92900  0.10400  Biso   1.000  O
  O5       1.0000 0.40520  0.04730  0.97930  Biso   1.000  O
  O6       1.0000 0.32448  0.27010  0.97210  Biso   1.000  O
  O7       1.0000 0.39996  0.41140  0.88530  Biso   1.000  O
  O8       1.0000 0.35330  0.38240  0.29810  Biso   1.000  O
  O9       1.0000 0.29520  0.49140  0.19890  Biso   1.000  O
  O10      1.0000 0.25480  0.36270  0.01330  Biso   1.000  O
  O11      1.0000 0.19903  0.39850  0.14400  Biso   1.000  O
  O12      1.0000 0.24360  0.72570  0.07080  Biso   1.000  O
  O13      1.0000 0.25800  0.24850  0.86830  Biso   1.000  O
  O14      1.0000 0.30200  0.57860  0.35130  Biso   1.000  O
  O15      1.0000 0.19450  0.51070  0.28940  Biso   1.000  O
  O16      1.0000 0.22900  0.97250  0.98190  Biso   1.000  O
  O17      1.0000 0.47810  0.35490  0.88590  Biso   1.000  O
  O18      1.0000 0.47040  0.16400  0.06380  Biso   1.000  O
  O19      1.0000 0.45380  0.86860  0.07230  Biso   1.000  O
  O20      1.0000 0.45170  0.62470  0.93100  Biso   1.000  O
  O21      1.0000 0.01900  0.67320  0.91710  Biso   1.000  O
  O22      1.0000 0.05110  0.10740  0.04200  Biso   1.000  O
  O23      1.0000 0.03440  0.83730  0.10520  Biso   1.000  O
  O24      1.0000 0.03870  0.38160  0.91700  Biso   1.000  O
  O25      1.0000 0.13570  0.34240  0.21450  Biso   1.000  O
  O26      1.0000 0.23250  0.71350  0.90960  Biso   1.000  O
  O27      1.0000 0.06150  0.06920  0.19670  Biso   1.000  O
  H1       1.0000 0.06810  0.00620  0.23550  Biso   1.000  H
  O28      1.0000 0.28930  0.51510  0.90370  Biso   1.000  O
  H2       1.0000 0.30390  0.50620  0.86480  Biso   1.000  H
  O29      1.0000 0.40950  0.07000  0.13660  Biso   1.000  O
  H3       1.0000 0.42540  0.06490  0.18090  Biso   1.000  H
  O30      1.0000 0.07950  0.57740  0.84210  Biso   1.000  O
  O31      1.0000 0.44200  0.54090  0.77950  Biso   1.000  O
  O32      1.0000 0.35400  0.67480  0.26020  Biso   1.000  O
  Co7      1.0000 0.87177  0.21906  0.44054  Biso   1.000  Co
  Co8      1.0000 0.62837  0.70807  0.58955  Biso   1.000  Co
  Co9      1.0000 0.75050  0.00505  0.39116  Biso   1.000  Co
  Co10     1.0000 0.75353  0.98626  0.13328  Biso   1.000  Co
  Co11     1.0000 0.49226  0.76192  0.51146  Biso   1.000  Co
  Co12     1.0000 0.00636  0.25879  0.48640  Biso   1.000  Co
  P9       1.0000 0.83067  0.96800  0.29455  Biso   1.000  P
  P10      1.0000 0.78096  0.29290  0.50973  Biso   1.000  P
  P11      1.0000 0.93620  0.48270  0.39025  Biso   1.000  P
  P12      1.0000 0.71830  0.84490  0.55843  Biso   1.000  P
  P13      1.0000 0.56479  0.53710  0.44004  Biso   1.000  P
  P14      1.0000 0.94364  0.05480  0.58065  Biso   1.000  P
  P15      1.0000 0.55725  0.98100  0.62888  Biso   1.000  P
  P16      1.0000 0.67450  0.02990  0.22315  Biso   1.000  P
  O33      1.0000 0.82860  0.26910  0.51190  Biso   1.000  O
  O34      1.0000 0.85110  0.12430  0.33140  Biso   1.000  O
  O35      1.0000 0.91461  0.07720  0.49750  Biso   1.000  O
  O36      1.0000 0.89080  0.42900  0.39600  Biso   1.000  O
  O37      1.0000 0.59480  0.54730  0.52070  Biso   1.000  O
  O38      1.0000 0.67552  0.77010  0.52790  Biso   1.000  O
  O39      1.0000 0.60004  0.91140  0.61470  Biso   1.000  O
  O40      1.0000 0.64670  0.88240  0.20190  Biso   1.000  O
  O41      1.0000 0.70480  0.99140  0.30110  Biso   1.000  O
  O42      1.0000 0.74520  0.86270  0.48670  Biso   1.000  O
  O43      1.0000 0.80097  0.89850  0.35600  Biso   1.000  O
  O44      1.0000 0.75640  0.22570  0.42920  Biso   1.000  O
  O45      1.0000 0.74200  0.74850  0.63170  Biso   1.000  O
  O46      1.0000 0.69800  0.07860  0.14870  Biso   1.000  O
  O47      1.0000 0.80550  0.01070  0.21060  Biso   1.000  O
  O48      1.0000 0.77100  0.47250  0.51810  Biso   1.000  O
  O49      1.0000 0.52190  0.85490  0.61410  Biso   1.000  O
  O50      1.0000 0.52960  0.66400  0.43620  Biso   1.000  O
  O51      1.0000 0.54620  0.36860  0.42770  Biso   1.000  O
  O52      1.0000 0.54830  0.12470  0.56900  Biso   1.000  O
  O53      1.0000 0.98100  0.17320  0.58290  Biso   1.000  O
  O54      1.0000 0.94890  0.60740  0.45800  Biso   1.000  O
  O55      1.0000 0.96560  0.33730  0.39480  Biso   1.000  O
  O56      1.0000 0.96130  0.88160  0.58300  Biso   1.000  O
  O57      1.0000 0.86430  0.84240  0.28550  Biso   1.000  O
  O58      1.0000 0.76750  0.21350  0.59040  Biso   1.000  O
  O59      1.0000 0.93850  0.56920  0.30330  Biso   1.000  O
  H4       1.0000 0.93190  0.50620  0.26450  Biso   1.000  H
  O60      1.0000 0.71070  0.01510  0.59630  Biso   1.000  O
  H5       1.0000 0.69610  0.00620  0.63520  Biso   1.000  H
  O61      1.0000 0.59050  0.57000  0.36340  Biso   1.000  O
  H6       1.0000 0.57460  0.56490  0.31910  Biso   1.000  H
  O62      1.0000 0.92050  0.07740  0.65790  Biso   1.000  O
  O63      1.0000 0.55800  0.04090  0.72050  Biso   1.000  O
  O64      1.0000 0.64600  0.17480  0.23980  Biso   1.000  O
  Co13     1.0000 0.87177  0.28094  0.94054  Biso   1.000  Co
  Co14     1.0000 0.62837  0.79193  0.08955  Biso   1.000  Co
  Co15     1.0000 0.75050  0.49495  0.89116  Biso   1.000  Co
  Co16     1.0000 0.75353  0.51374  0.63328  Biso   1.000  Co
  Co17     1.0000 0.49226  0.73808  0.01146  Biso   1.000  Co
  Co18     1.0000 0.00636  0.24121  0.98640  Biso   1.000  Co
  P17      1.0000 0.83067  0.53200  0.79455  Biso   1.000  P
  P18      1.0000 0.78096  0.20710  0.00973  Biso   1.000  P
  P19      1.0000 0.93620  0.01730  0.89025  Biso   1.000  P
  P20      1.0000 0.71830  0.65510  0.05843  Biso   1.000  P
  P21      1.0000 0.56479  0.96290  0.94004  Biso   1.000  P
  P22      1.0000 0.94364  0.44520  0.08065  Biso   1.000  P
  P23      1.0000 0.55725  0.51900  0.12888  Biso   1.000  P
  P24      1.0000 0.67450  0.47010  0.72315  Biso   1.000  P
  O65      1.0000 0.82860  0.23090  0.01190  Biso   1.000  O
  O66      1.0000 0.85110  0.37570  0.83140  Biso   1.000  O
  O67      1.0000 0.91461  0.42280  0.99750  Biso   1.000  O
  O68      1.0000 0.89080  0.07100  0.89600  Biso   1.000  O
  O69      1.0000 0.59480  0.95270  0.02070  Biso   1.000  O
  O70      1.0000 0.67552  0.72990  0.02790  Biso   1.000  O
  O71      1.0000 0.60004  0.58860  0.11470  Biso   1.000  O
  O72      1.0000 0.64670  0.61760  0.70190  Biso   1.000  O
  O73      1.0000 0.70480  0.50860  0.80110  Biso   1.000  O
  O74      1.0000 0.74520  0.63730  0.98670  Biso   1.000  O
  O75      1.0000 0.80097  0.60150  0.85600  Biso   1.000  O
  O76      1.0000 0.75640  0.27430  0.92920  Biso   1.000  O
  O77      1.0000 0.74200  0.75150  0.13170  Biso   1.000  O
  O78      1.0000 0.69800  0.42140  0.64870  Biso   1.000  O
  O79      1.0000 0.80550  0.48930  0.71060  Biso   1.000  O
  O80      1.0000 0.77100  0.02750  0.01810  Biso   1.000  O
  O81      1.0000 0.52190  0.64510  0.11410  Biso   1.000  O
  O82      1.0000 0.52960  0.83600  0.93620  Biso   1.000  O
  O83      1.0000 0.54620  0.13140  0.92770  Biso   1.000  O
  O84      1.0000 0.54830  0.37530  0.06900  Biso   1.000  O
  O85      1.0000 0.98100  0.32680  0.08290  Biso   1.000  O
  O86      1.0000 0.94890  0.89260  0.95800  Biso   1.000  O
  O87      1.0000 0.96560  0.16270  0.89480  Biso   1.000  O
  O88      1.0000 0.96130  0.61840  0.08300  Biso   1.000  O
  O89      1.0000 0.86430  0.65760  0.78550  Biso   1.000  O
  O90      1.0000 0.76750  0.28650  0.09040  Biso   1.000  O
  O91      1.0000 0.93850  0.93080  0.80330  Biso   1.000  O
  H7       1.0000 0.93190  0.99380  0.76450  Biso   1.000  H
  O92      1.0000 0.71070  0.48490  0.09630  Biso   1.000  O
  H8       1.0000 0.69610  0.49380  0.13520  Biso   1.000  H
  O93      1.0000 0.59050  0.93000  0.86340  Biso   1.000  O
  H9       1.0000 0.57460  0.93510  0.81910  Biso   1.000  H
  O94      1.0000 0.92050  0.42260  0.15790  Biso   1.000  O
  O95      1.0000 0.55800  0.45910  0.22050  Biso   1.000  O
  O96      1.0000 0.64600  0.32520  0.73980  Biso   1.000  O
  Co19     1.0000 0.12823  0.78094  0.55946  Biso   1.000  Co
  Co20     1.0000 0.37163  0.29193  0.41045  Biso   1.000  Co
  Co21     1.0000 0.24950  0.99495  0.60884  Biso   1.000  Co
  Co22     1.0000 0.24647  0.01374  0.86672  Biso   1.000  Co
  Co23     1.0000 0.50774  0.23808  0.48854  Biso   1.000  Co
  Co24     1.0000 0.99364  0.74121  0.51360  Biso   1.000  Co
  P25      1.0000 0.16933  0.03200  0.70545  Biso   1.000  P
  P26      1.0000 0.21904  0.70710  0.49027  Biso   1.000  P
  P27      1.0000 0.06380  0.51730  0.60975  Biso   1.000  P
  P28      1.0000 0.28170  0.15510  0.44157  Biso   1.000  P
  P29      1.0000 0.43521  0.46290  0.55996  Biso   1.000  P
  P30      1.0000 0.05636  0.94520  0.41935  Biso   1.000  P
  P31      1.0000 0.44275  0.01900  0.37112  Biso   1.000  P
  P32      1.0000 0.32550  0.97010  0.77685  Biso   1.000  P
  O97      1.0000 0.17140  0.73090  0.48810  Biso   1.000  O
  O98      1.0000 0.14890  0.87570  0.66860  Biso   1.000  O
  O99      1.0000 0.08539  0.92280  0.50250  Biso   1.000  O
  O100     1.0000 0.10920  0.57100  0.60400  Biso   1.000  O
  O101     1.0000 0.40520  0.45270  0.47930  Biso   1.000  O
  O102     1.0000 0.32448  0.22990  0.47210  Biso   1.000  O
  O103     1.0000 0.39996  0.08860  0.38530  Biso   1.000  O
  O104     1.0000 0.35330  0.11760  0.79810  Biso   1.000  O
  O105     1.0000 0.29520  0.00860  0.69890  Biso   1.000  O
  O106     1.0000 0.25480  0.13730  0.51330  Biso   1.000  O
  O107     1.0000 0.19903  0.10150  0.64400  Biso   1.000  O
  O108     1.0000 0.24360  0.77430  0.57080  Biso   1.000  O
  O109     1.0000 0.25800  0.25150  0.36830  Biso   1.000  O
  O110     1.0000 0.30200  0.92140  0.85130  Biso   1.000  O
  O111     1.0000 0.19450  0.98930  0.78940  Biso   1.000  O
  O112     1.0000 0.22900  0.52750  0.48190  Biso   1.000  O
  O113     1.0000 0.47810  0.14510  0.38590  Biso   1.000  O
  O114     1.0000 0.47040  0.33600  0.56380  Biso   1.000  O
  O115     1.0000 0.45380  0.63140  0.57230  Biso   1.000  O
  O116     1.0000 0.45170  0.87530  0.43100  Biso   1.000  O
  O117     1.0000 0.01900  0.82680  0.41710  Biso   1.000  O
  O118     1.0000 0.05110  0.39260  0.54200  Biso   1.000  O
  O119     1.0000 0.03440  0.66270  0.60520  Biso   1.000  O
  O120     1.0000 0.03870  0.11840  0.41700  Biso   1.000  O
  O121     1.0000 0.13570  0.15760  0.71450  Biso   1.000  O
  O122     1.0000 0.23250  0.78650  0.40960  Biso   1.000  O
  O123     1.0000 0.06150  0.43080  0.69670  Biso   1.000  O
  H10      1.0000 0.06810  0.49380  0.73550  Biso   1.000  H
  O124     1.0000 0.28930  0.98490  0.40370  Biso   1.000  O
  H11      1.0000 0.30390  0.99380  0.36480  Biso   1.000  H
  O125     1.0000 0.40950  0.43000  0.63660  Biso   1.000  O
  H12      1.0000 0.42540  0.43510  0.68090  Biso   1.000  H
  O126     1.0000 0.07950  0.92260  0.34210  Biso   1.000  O
  O127     1.0000 0.44200  0.95910  0.27950  Biso   1.000  O
  O128     1.0000 0.35400  0.82520  0.76020  Biso   1.000  O
