data_WAVRAO_clean
_audit_creation_date              2014-07-02
_audit_creation_method            'Materials Studio'
_symmetry_space_group_name_H-M    'P1'
_symmetry_Int_Tables_number       1
_symmetry_cell_setting            triclinic
loop_
_symmetry_equiv_pos_as_xyz
  x,y,z
_cell_length_a                    22.5627
_cell_length_b                    22.5627
_cell_length_c                    22.5627
_cell_angle_alpha                 107.9680
_cell_angle_beta                  107.9680
_cell_angle_gamma                 107.9680
loop_
_atom_site_label
_atom_site_type_symbol
_atom_site_fract_x
_atom_site_fract_y
_atom_site_fract_z
_atom_site_U_iso_or_equiv
_atom_site_adp_type
_atom_site_occupancy
Mn1    Mn    0.95024   0.46413   0.53261   0.01267  Uiso   1.00
Mn2    Mn    0.53261   0.95024   0.46413   0.01267  Uiso   1.00
Mn3    Mn    0.46413   0.53261   0.95024   0.01267  Uiso   1.00
Mn4    Mn    0.04976   0.53587   0.46739   0.01267  Uiso   1.00
Mn5    Mn    0.46739   0.04976   0.53587   0.01267  Uiso   1.00
Mn6    Mn    0.53587   0.46739   0.04976   0.01267  Uiso   1.00
In1    In    0.86977   0.45762   0.36089   0.01267  Uiso   1.00
In2    In    0.36089   0.86977   0.45762   0.01267  Uiso   1.00
In3    In    0.45762   0.36089   0.86977   0.01267  Uiso   1.00
In4    In    0.13023   0.54238   0.63911   0.01267  Uiso   1.00
In5    In    0.63911   0.13023   0.54238   0.01267  Uiso   1.00
In6    In    0.54238   0.63911   0.13023   0.01267  Uiso   1.00
H1     H     0.73000   0.54000   0.62340   0.01267  Uiso   1.00
H2     H     0.71380   0.10840   0.13430   0.01267  Uiso   1.00
H3     H     0.58250   0.09700   0.94160   0.01267  Uiso   1.00
H4     H     0.51410   0.71510   0.90710   0.01267  Uiso   1.00
H5     H     0.61320   0.01100   0.07190   0.01267  Uiso   1.00
H6     H     0.41070   0.89900   0.78490   0.01267  Uiso   1.00
H7     H     0.62130   0.51220   0.43080   0.01267  Uiso   1.00
H8     H     0.55400   0.91760   0.08230   0.01267  Uiso   1.00
H9     H     0.49380   0.88950   0.86820   0.01267  Uiso   1.00
H10    H     0.52730   0.81300   0.88870   0.01267  Uiso   1.00
H11    H     0.54170   0.82020   0.10050   0.01267  Uiso   1.00
H12    H     0.80940   0.51360   0.59080   0.01267  Uiso   1.00
H13    H     0.69880   0.48180   0.39630   0.01267  Uiso   1.00
H14    H     0.67130   0.29640   0.13550   0.01267  Uiso   1.00
H15    H     0.36980   0.87480   0.66850   0.01267  Uiso   1.00
H16    H     0.57840   0.06470   0.83010   0.01267  Uiso   1.00
H17    H     0.59940   0.18710   0.04130   0.01267  Uiso   1.00
H18    H     0.77930   0.21470   0.23190   0.01267  Uiso   1.00
H19    H     0.53520   0.03950   0.71280   0.01267  Uiso   1.00
H20    H     0.62340   0.73000   0.54000   0.01267  Uiso   1.00
H21    H     0.13430   0.71380   0.10840   0.01267  Uiso   1.00
H22    H     0.94160   0.58250   0.09700   0.01267  Uiso   1.00
H23    H     0.90710   0.51410   0.71510   0.01267  Uiso   1.00
H24    H     0.07190   0.61320   0.01100   0.01267  Uiso   1.00
H25    H     0.78490   0.41070   0.89900   0.01267  Uiso   1.00
H26    H     0.43080   0.62130   0.51220   0.01267  Uiso   1.00
H27    H     0.08230   0.55400   0.91760   0.01267  Uiso   1.00
H28    H     0.86820   0.49380   0.88950   0.01267  Uiso   1.00
H29    H     0.88870   0.52730   0.81300   0.01267  Uiso   1.00
H30    H     0.10050   0.54170   0.82020   0.01267  Uiso   1.00
H31    H     0.59080   0.80940   0.51360   0.01267  Uiso   1.00
H32    H     0.39630   0.69880   0.48180   0.01267  Uiso   1.00
H33    H     0.13550   0.67130   0.29640   0.01267  Uiso   1.00
H34    H     0.66850   0.36980   0.87480   0.01267  Uiso   1.00
H35    H     0.83010   0.57840   0.06470   0.01267  Uiso   1.00
H36    H     0.04130   0.59940   0.18710   0.01267  Uiso   1.00
H37    H     0.23190   0.77930   0.21470   0.01267  Uiso   1.00
H38    H     0.71280   0.53520   0.03950   0.01267  Uiso   1.00
H39    H     0.54000   0.62340   0.73000   0.01267  Uiso   1.00
H40    H     0.10840   0.13430   0.71380   0.01267  Uiso   1.00
H41    H     0.09700   0.94160   0.58250   0.01267  Uiso   1.00
H42    H     0.71510   0.90710   0.51410   0.01267  Uiso   1.00
H43    H     0.01100   0.07190   0.61320   0.01267  Uiso   1.00
H44    H     0.89900   0.78490   0.41070   0.01267  Uiso   1.00
H45    H     0.51220   0.43080   0.62130   0.01267  Uiso   1.00
H46    H     0.91760   0.08230   0.55400   0.01267  Uiso   1.00
H47    H     0.88950   0.86820   0.49380   0.01267  Uiso   1.00
H48    H     0.81300   0.88870   0.52730   0.01267  Uiso   1.00
H49    H     0.82020   0.10050   0.54170   0.01267  Uiso   1.00
H50    H     0.51360   0.59080   0.80940   0.01267  Uiso   1.00
H51    H     0.48180   0.39630   0.69880   0.01267  Uiso   1.00
H52    H     0.29640   0.13550   0.67130   0.01267  Uiso   1.00
H53    H     0.87480   0.66850   0.36980   0.01267  Uiso   1.00
H54    H     0.06470   0.83010   0.57840   0.01267  Uiso   1.00
H55    H     0.18710   0.04130   0.59940   0.01267  Uiso   1.00
H56    H     0.21470   0.23190   0.77930   0.01267  Uiso   1.00
H57    H     0.03950   0.71280   0.53520   0.01267  Uiso   1.00
H58    H     0.27000   0.46000   0.37660   0.01267  Uiso   1.00
H59    H     0.28620   0.89160   0.86570   0.01267  Uiso   1.00
H60    H     0.41750   0.90300   0.05840   0.01267  Uiso   1.00
H61    H     0.48590   0.28490   0.09290   0.01267  Uiso   1.00
H62    H     0.38680   0.98900   0.92810   0.01267  Uiso   1.00
H63    H     0.58930   0.10100   0.21510   0.01267  Uiso   1.00
H64    H     0.37870   0.48780   0.56920   0.01267  Uiso   1.00
H65    H     0.44600   0.08240   0.91770   0.01267  Uiso   1.00
H66    H     0.50620   0.11050   0.13180   0.01267  Uiso   1.00
H67    H     0.47270   0.18700   0.11130   0.01267  Uiso   1.00
H68    H     0.45830   0.17980   0.89950   0.01267  Uiso   1.00
H69    H     0.19060   0.48640   0.40920   0.01267  Uiso   1.00
H70    H     0.30120   0.51820   0.60370   0.01267  Uiso   1.00
H71    H     0.32870   0.70360   0.86450   0.01267  Uiso   1.00
H72    H     0.63020   0.12520   0.33150   0.01267  Uiso   1.00
H73    H     0.42160   0.93530   0.16990   0.01267  Uiso   1.00
H74    H     0.40060   0.81290   0.95870   0.01267  Uiso   1.00
H75    H     0.22070   0.78530   0.76810   0.01267  Uiso   1.00
H76    H     0.46480   0.96050   0.28720   0.01267  Uiso   1.00
H77    H     0.37660   0.27000   0.46000   0.01267  Uiso   1.00
H78    H     0.86570   0.28620   0.89160   0.01267  Uiso   1.00
H79    H     0.05840   0.41750   0.90300   0.01267  Uiso   1.00
H80    H     0.09290   0.48590   0.28490   0.01267  Uiso   1.00
H81    H     0.92810   0.38680   0.98900   0.01267  Uiso   1.00
H82    H     0.21510   0.58930   0.10100   0.01267  Uiso   1.00
H83    H     0.56920   0.37870   0.48780   0.01267  Uiso   1.00
H84    H     0.91770   0.44600   0.08240   0.01267  Uiso   1.00
H85    H     0.13180   0.50620   0.11050   0.01267  Uiso   1.00
H86    H     0.11130   0.47270   0.18700   0.01267  Uiso   1.00
H87    H     0.89950   0.45830   0.17980   0.01267  Uiso   1.00
H88    H     0.40920   0.19060   0.48640   0.01267  Uiso   1.00
H89    H     0.60370   0.30120   0.51820   0.01267  Uiso   1.00
H90    H     0.86450   0.32870   0.70360   0.01267  Uiso   1.00
H91    H     0.33150   0.63020   0.12520   0.01267  Uiso   1.00
H92    H     0.16990   0.42160   0.93530   0.01267  Uiso   1.00
H93    H     0.95870   0.40060   0.81290   0.01267  Uiso   1.00
H94    H     0.76810   0.22070   0.78530   0.01267  Uiso   1.00
H95    H     0.28720   0.46480   0.96050   0.01267  Uiso   1.00
H96    H     0.46000   0.37660   0.27000   0.01267  Uiso   1.00
H97    H     0.89160   0.86570   0.28620   0.01267  Uiso   1.00
H98    H     0.90300   0.05840   0.41750   0.01267  Uiso   1.00
H99    H     0.28490   0.09290   0.48590   0.01267  Uiso   1.00
H100   H     0.98900   0.92810   0.38680   0.01267  Uiso   1.00
H101   H     0.10100   0.21510   0.58930   0.01267  Uiso   1.00
H102   H     0.48780   0.56920   0.37870   0.01267  Uiso   1.00
H103   H     0.08240   0.91770   0.44600   0.01267  Uiso   1.00
H104   H     0.11050   0.13180   0.50620   0.01267  Uiso   1.00
H105   H     0.18700   0.11130   0.47270   0.01267  Uiso   1.00
H106   H     0.17980   0.89950   0.45830   0.01267  Uiso   1.00
H107   H     0.48640   0.40920   0.19060   0.01267  Uiso   1.00
H108   H     0.51820   0.60370   0.30120   0.01267  Uiso   1.00
H109   H     0.70360   0.86450   0.32870   0.01267  Uiso   1.00
H110   H     0.12520   0.33150   0.63020   0.01267  Uiso   1.00
H111   H     0.93530   0.16990   0.42160   0.01267  Uiso   1.00
H112   H     0.81290   0.95870   0.40060   0.01267  Uiso   1.00
H113   H     0.78530   0.76810   0.22070   0.01267  Uiso   1.00
H114   H     0.96050   0.28720   0.46480   0.01267  Uiso   1.00
C1     C     0.72434   0.52966   0.57820   0.01267  Uiso   1.00
C2     C     0.70370   0.14550   0.13490   0.01267  Uiso   1.00
C3     C     0.64884   0.13545   0.07831   0.01267  Uiso   1.00
C4     C     0.57396   0.05752   0.94912   0.01267  Uiso   1.00
C5     C     0.52188   0.75561   0.94215   0.01267  Uiso   1.00
C6     C     0.59288   0.00607   0.02695   0.01267  Uiso   1.00
C7     C     0.60351   0.06492   0.01687   0.01267  Uiso   1.00
C8     C     0.43729   0.92696   0.77085   0.01267  Uiso   1.00
C9     C     0.50094   0.98191   0.81965   0.01267  Uiso   1.00
C10    C     0.53235   0.99242   0.89353   0.01267  Uiso   1.00
C11    C     0.65913   0.51262   0.46305   0.01267  Uiso   1.00
C12    C     0.54646   0.87720   0.04714   0.01267  Uiso   1.00
C13    C     0.78045   0.33762   0.25483   0.01267  Uiso   1.00
C14    C     0.52190   0.93356   0.90554   0.01267  Uiso   1.00
C15    C     0.54367   0.87643   0.98404   0.01267  Uiso   1.00
C16    C     0.55286   0.93981   0.97243   0.01267  Uiso   1.00
C17    C     0.53046   0.81483   0.93141   0.01267  Uiso   1.00
C18    C     0.81761   0.48328   0.47005   0.01267  Uiso   1.00
C19    C     0.53818   0.81848   0.05774   0.01267  Uiso   1.00
C20    C     0.52476   0.75694   0.00472   0.01267  Uiso   1.00
C21    C     0.51638   0.69383   0.01729   0.01267  Uiso   1.00
C22    C     0.77174   0.51329   0.55857   0.01267  Uiso   1.00
C23    C     0.61996   0.55330   0.55382   0.01267  Uiso   1.00
C24    C     0.70588   0.49471   0.44213   0.01267  Uiso   1.00
C25    C     0.59780   0.59733   0.53162   0.01267  Uiso   1.00
C26    C     0.66798   0.53092   0.53076   0.01267  Uiso   1.00
C27    C     0.76338   0.49625   0.49058   0.01267  Uiso   1.00
C28    C     0.45065   0.95469   0.68026   0.01267  Uiso   1.00
C29    C     0.73265   0.26721   0.19244   0.01267  Uiso   1.00
C30    C     0.67922   0.25851   0.13607   0.01267  Uiso   1.00
C31    C     0.41234   0.91274   0.70112   0.01267  Uiso   1.00
C32    C     0.53682   0.02541   0.79787   0.01267  Uiso   1.00
C33    C     0.63641   0.19276   0.07903   0.01267  Uiso   1.00
C34    C     0.74440   0.20970   0.19290   0.01267  Uiso   1.00
C35    C     0.51049   0.01026   0.72715   0.01267  Uiso   1.00
C36    C     0.42391   0.93309   0.60170   0.01267  Uiso   1.00
C37    C     0.57820   0.72434   0.52966   0.01267  Uiso   1.00
C38    C     0.13490   0.70370   0.14550   0.01267  Uiso   1.00
C39    C     0.07831   0.64884   0.13545   0.01267  Uiso   1.00
C40    C     0.94912   0.57396   0.05752   0.01267  Uiso   1.00
C41    C     0.94215   0.52188   0.75561   0.01267  Uiso   1.00
C42    C     0.02695   0.59288   0.00607   0.01267  Uiso   1.00
C43    C     0.01687   0.60351   0.06492   0.01267  Uiso   1.00
C44    C     0.77085   0.43729   0.92696   0.01267  Uiso   1.00
C45    C     0.81965   0.50094   0.98191   0.01267  Uiso   1.00
C46    C     0.89353   0.53235   0.99242   0.01267  Uiso   1.00
C47    C     0.46305   0.65913   0.51262   0.01267  Uiso   1.00
C48    C     0.04714   0.54646   0.87720   0.01267  Uiso   1.00
C49    C     0.25483   0.78045   0.33762   0.01267  Uiso   1.00
C50    C     0.90554   0.52190   0.93356   0.01267  Uiso   1.00
C51    C     0.98404   0.54367   0.87643   0.01267  Uiso   1.00
C52    C     0.97243   0.55286   0.93981   0.01267  Uiso   1.00
C53    C     0.93141   0.53046   0.81483   0.01267  Uiso   1.00
C54    C     0.47005   0.81761   0.48328   0.01267  Uiso   1.00
C55    C     0.05774   0.53818   0.81848   0.01267  Uiso   1.00
C56    C     0.00472   0.52476   0.75694   0.01267  Uiso   1.00
C57    C     0.01729   0.51638   0.69383   0.01267  Uiso   1.00
C58    C     0.55857   0.77174   0.51329   0.01267  Uiso   1.00
C59    C     0.55382   0.61996   0.55330   0.01267  Uiso   1.00
C60    C     0.44213   0.70588   0.49471   0.01267  Uiso   1.00
C61    C     0.53162   0.59780   0.59733   0.01267  Uiso   1.00
C62    C     0.53076   0.66798   0.53092   0.01267  Uiso   1.00
C63    C     0.49058   0.76338   0.49625   0.01267  Uiso   1.00
C64    C     0.68026   0.45065   0.95469   0.01267  Uiso   1.00
C65    C     0.19244   0.73265   0.26721   0.01267  Uiso   1.00
C66    C     0.13607   0.67922   0.25851   0.01267  Uiso   1.00
C67    C     0.70112   0.41234   0.91274   0.01267  Uiso   1.00
C68    C     0.79787   0.53682   0.02541   0.01267  Uiso   1.00
C69    C     0.07903   0.63641   0.19276   0.01267  Uiso   1.00
C70    C     0.19290   0.74440   0.20970   0.01267  Uiso   1.00
C71    C     0.72715   0.51049   0.01026   0.01267  Uiso   1.00
C72    C     0.60170   0.42391   0.93309   0.01267  Uiso   1.00
C73    C     0.52966   0.57820   0.72434   0.01267  Uiso   1.00
C74    C     0.14550   0.13490   0.70370   0.01267  Uiso   1.00
C75    C     0.13545   0.07831   0.64884   0.01267  Uiso   1.00
C76    C     0.05752   0.94912   0.57396   0.01267  Uiso   1.00
C77    C     0.75561   0.94215   0.52188   0.01267  Uiso   1.00
C78    C     0.00607   0.02695   0.59288   0.01267  Uiso   1.00
C79    C     0.06492   0.01687   0.60351   0.01267  Uiso   1.00
C80    C     0.92696   0.77085   0.43729   0.01267  Uiso   1.00
C81    C     0.98191   0.81965   0.50094   0.01267  Uiso   1.00
C82    C     0.99242   0.89353   0.53235   0.01267  Uiso   1.00
C83    C     0.51262   0.46305   0.65913   0.01267  Uiso   1.00
C84    C     0.87720   0.04714   0.54646   0.01267  Uiso   1.00
C85    C     0.33762   0.25483   0.78045   0.01267  Uiso   1.00
C86    C     0.93356   0.90554   0.52190   0.01267  Uiso   1.00
C87    C     0.87643   0.98404   0.54367   0.01267  Uiso   1.00
C88    C     0.93981   0.97243   0.55286   0.01267  Uiso   1.00
C89    C     0.81483   0.93141   0.53046   0.01267  Uiso   1.00
C90    C     0.48328   0.47005   0.81761   0.01267  Uiso   1.00
C91    C     0.81848   0.05774   0.53818   0.01267  Uiso   1.00
C92    C     0.75694   0.00472   0.52476   0.01267  Uiso   1.00
C93    C     0.69383   0.01729   0.51638   0.01267  Uiso   1.00
C94    C     0.51329   0.55857   0.77174   0.01267  Uiso   1.00
C95    C     0.55330   0.55382   0.61996   0.01267  Uiso   1.00
C96    C     0.49471   0.44213   0.70588   0.01267  Uiso   1.00
C97    C     0.59733   0.53162   0.59780   0.01267  Uiso   1.00
C98    C     0.53092   0.53076   0.66798   0.01267  Uiso   1.00
C99    C     0.49625   0.49058   0.76338   0.01267  Uiso   1.00
C100   C     0.95469   0.68026   0.45065   0.01267  Uiso   1.00
C101   C     0.26721   0.19244   0.73265   0.01267  Uiso   1.00
C102   C     0.25851   0.13607   0.67922   0.01267  Uiso   1.00
C103   C     0.91274   0.70112   0.41234   0.01267  Uiso   1.00
C104   C     0.02541   0.79787   0.53682   0.01267  Uiso   1.00
C105   C     0.19276   0.07903   0.63641   0.01267  Uiso   1.00
C106   C     0.20970   0.19290   0.74440   0.01267  Uiso   1.00
C107   C     0.01026   0.72715   0.51049   0.01267  Uiso   1.00
C108   C     0.93309   0.60170   0.42391   0.01267  Uiso   1.00
C109   C     0.27566   0.47034   0.42180   0.01267  Uiso   1.00
C110   C     0.29630   0.85450   0.86510   0.01267  Uiso   1.00
C111   C     0.35116   0.86455   0.92169   0.01267  Uiso   1.00
C112   C     0.42604   0.94248   0.05088   0.01267  Uiso   1.00
C113   C     0.47812   0.24439   0.05785   0.01267  Uiso   1.00
C114   C     0.40712   0.99393   0.97305   0.01267  Uiso   1.00
C115   C     0.39649   0.93508   0.98313   0.01267  Uiso   1.00
C116   C     0.56271   0.07304   0.22915   0.01267  Uiso   1.00
C117   C     0.49906   0.01809   0.18035   0.01267  Uiso   1.00
C118   C     0.46765   0.00758   0.10647   0.01267  Uiso   1.00
C119   C     0.34087   0.48738   0.53695   0.01267  Uiso   1.00
C120   C     0.45354   0.12280   0.95286   0.01267  Uiso   1.00
C121   C     0.21955   0.66238   0.74517   0.01267  Uiso   1.00
C122   C     0.47810   0.06644   0.09446   0.01267  Uiso   1.00
C123   C     0.45633   0.12357   0.01596   0.01267  Uiso   1.00
C124   C     0.44714   0.06019   0.02757   0.01267  Uiso   1.00
C125   C     0.46954   0.18517   0.06859   0.01267  Uiso   1.00
C126   C     0.18239   0.51672   0.52995   0.01267  Uiso   1.00
C127   C     0.46182   0.18152   0.94226   0.01267  Uiso   1.00
C128   C     0.47524   0.24306   0.99528   0.01267  Uiso   1.00
C129   C     0.48362   0.30617   0.98271   0.01267  Uiso   1.00
C130   C     0.22826   0.48671   0.44143   0.01267  Uiso   1.00
C131   C     0.38004   0.44670   0.44618   0.01267  Uiso   1.00
C132   C     0.29412   0.50529   0.55787   0.01267  Uiso   1.00
C133   C     0.40220   0.40267   0.46838   0.01267  Uiso   1.00
C134   C     0.33202   0.46908   0.46924   0.01267  Uiso   1.00
C135   C     0.23662   0.50375   0.50942   0.01267  Uiso   1.00
C136   C     0.54935   0.04531   0.31974   0.01267  Uiso   1.00
C137   C     0.26735   0.73279   0.80756   0.01267  Uiso   1.00
C138   C     0.32078   0.74149   0.86393   0.01267  Uiso   1.00
C139   C     0.58766   0.08726   0.29888   0.01267  Uiso   1.00
C140   C     0.46318   0.97459   0.20213   0.01267  Uiso   1.00
C141   C     0.36359   0.80724   0.92097   0.01267  Uiso   1.00
C142   C     0.25560   0.79030   0.80710   0.01267  Uiso   1.00
C143   C     0.48951   0.98974   0.27285   0.01267  Uiso   1.00
C144   C     0.57609   0.06691   0.39830   0.01267  Uiso   1.00
C145   C     0.42180   0.27566   0.47034   0.01267  Uiso   1.00
C146   C     0.86510   0.29630   0.85450   0.01267  Uiso   1.00
C147   C     0.92169   0.35116   0.86455   0.01267  Uiso   1.00
C148   C     0.05088   0.42604   0.94248   0.01267  Uiso   1.00
C149   C     0.05785   0.47812   0.24439   0.01267  Uiso   1.00
C150   C     0.97305   0.40712   0.99393   0.01267  Uiso   1.00
C151   C     0.98313   0.39649   0.93508   0.01267  Uiso   1.00
C152   C     0.22915   0.56271   0.07304   0.01267  Uiso   1.00
C153   C     0.18035   0.49906   0.01809   0.01267  Uiso   1.00
C154   C     0.10647   0.46765   0.00758   0.01267  Uiso   1.00
C155   C     0.53695   0.34087   0.48738   0.01267  Uiso   1.00
C156   C     0.95286   0.45354   0.12280   0.01267  Uiso   1.00
C157   C     0.74517   0.21955   0.66238   0.01267  Uiso   1.00
C158   C     0.09446   0.47810   0.06644   0.01267  Uiso   1.00
C159   C     0.01596   0.45633   0.12357   0.01267  Uiso   1.00
C160   C     0.02757   0.44714   0.06019   0.01267  Uiso   1.00
C161   C     0.06859   0.46954   0.18517   0.01267  Uiso   1.00
C162   C     0.52995   0.18239   0.51672   0.01267  Uiso   1.00
C163   C     0.94226   0.46182   0.18152   0.01267  Uiso   1.00
C164   C     0.99528   0.47524   0.24306   0.01267  Uiso   1.00
C165   C     0.98271   0.48362   0.30617   0.01267  Uiso   1.00
C166   C     0.44143   0.22826   0.48671   0.01267  Uiso   1.00
C167   C     0.44618   0.38004   0.44670   0.01267  Uiso   1.00
C168   C     0.55787   0.29412   0.50529   0.01267  Uiso   1.00
C169   C     0.46838   0.40220   0.40267   0.01267  Uiso   1.00
C170   C     0.46924   0.33202   0.46908   0.01267  Uiso   1.00
C171   C     0.50942   0.23662   0.50375   0.01267  Uiso   1.00
C172   C     0.31974   0.54935   0.04531   0.01267  Uiso   1.00
C173   C     0.80756   0.26735   0.73279   0.01267  Uiso   1.00
C174   C     0.86393   0.32078   0.74149   0.01267  Uiso   1.00
C175   C     0.29888   0.58766   0.08726   0.01267  Uiso   1.00
C176   C     0.20213   0.46318   0.97459   0.01267  Uiso   1.00
C177   C     0.92097   0.36359   0.80724   0.01267  Uiso   1.00
C178   C     0.80710   0.25560   0.79030   0.01267  Uiso   1.00
C179   C     0.27285   0.48951   0.98974   0.01267  Uiso   1.00
C180   C     0.39830   0.57609   0.06691   0.01267  Uiso   1.00
C181   C     0.47034   0.42180   0.27566   0.01267  Uiso   1.00
C182   C     0.85450   0.86510   0.29630   0.01267  Uiso   1.00
C183   C     0.86455   0.92169   0.35116   0.01267  Uiso   1.00
C184   C     0.94248   0.05088   0.42604   0.01267  Uiso   1.00
C185   C     0.24439   0.05785   0.47812   0.01267  Uiso   1.00
C186   C     0.99393   0.97305   0.40712   0.01267  Uiso   1.00
C187   C     0.93508   0.98313   0.39649   0.01267  Uiso   1.00
C188   C     0.07304   0.22915   0.56271   0.01267  Uiso   1.00
C189   C     0.01809   0.18035   0.49906   0.01267  Uiso   1.00
C190   C     0.00758   0.10647   0.46765   0.01267  Uiso   1.00
C191   C     0.48738   0.53695   0.34087   0.01267  Uiso   1.00
C192   C     0.12280   0.95286   0.45354   0.01267  Uiso   1.00
C193   C     0.66238   0.74517   0.21955   0.01267  Uiso   1.00
C194   C     0.06644   0.09446   0.47810   0.01267  Uiso   1.00
C195   C     0.12357   0.01596   0.45633   0.01267  Uiso   1.00
C196   C     0.06019   0.02757   0.44714   0.01267  Uiso   1.00
C197   C     0.18517   0.06859   0.46954   0.01267  Uiso   1.00
C198   C     0.51672   0.52995   0.18239   0.01267  Uiso   1.00
C199   C     0.18152   0.94226   0.46182   0.01267  Uiso   1.00
C200   C     0.24306   0.99528   0.47524   0.01267  Uiso   1.00
C201   C     0.30617   0.98271   0.48362   0.01267  Uiso   1.00
C202   C     0.48671   0.44143   0.22826   0.01267  Uiso   1.00
C203   C     0.44670   0.44618   0.38004   0.01267  Uiso   1.00
C204   C     0.50529   0.55787   0.29412   0.01267  Uiso   1.00
C205   C     0.40267   0.46838   0.40220   0.01267  Uiso   1.00
C206   C     0.46908   0.46924   0.33202   0.01267  Uiso   1.00
C207   C     0.50375   0.50942   0.23662   0.01267  Uiso   1.00
C208   C     0.04531   0.31974   0.54935   0.01267  Uiso   1.00
C209   C     0.73279   0.80756   0.26735   0.01267  Uiso   1.00
C210   C     0.74149   0.86393   0.32078   0.01267  Uiso   1.00
C211   C     0.08726   0.29888   0.58766   0.01267  Uiso   1.00
C212   C     0.97459   0.20213   0.46318   0.01267  Uiso   1.00
C213   C     0.80724   0.92097   0.36359   0.01267  Uiso   1.00
C214   C     0.79030   0.80710   0.25560   0.01267  Uiso   1.00
C215   C     0.98974   0.27285   0.48951   0.01267  Uiso   1.00
C216   C     0.06691   0.39830   0.57609   0.01267  Uiso   1.00
O1     O     0.87656   0.50528   0.51792   0.01267  Uiso   1.00
O2     O     0.49457   0.63743   0.96587   0.01267  Uiso   1.00
O3     O     0.82891   0.34096   0.30437   0.01267  Uiso   1.00
O4     O     0.77173   0.38943   0.25539   0.01267  Uiso   1.00
O5     O     0.53135   0.70363   0.07916   0.01267  Uiso   1.00
O6     O     0.79940   0.45300   0.40634   0.01267  Uiso   1.00
O7     O     0.94980   0.44834   0.43259   0.01267  Uiso   1.00
O8     O     0.45397   0.97853   0.58650   0.01267  Uiso   1.00
O9     O     0.37727   0.87782   0.55901   0.01267  Uiso   1.00
O10    O     0.51792   0.87656   0.50528   0.01267  Uiso   1.00
O11    O     0.96587   0.49457   0.63743   0.01267  Uiso   1.00
O12    O     0.30437   0.82891   0.34096   0.01267  Uiso   1.00
O13    O     0.25539   0.77173   0.38943   0.01267  Uiso   1.00
O14    O     0.07916   0.53135   0.70363   0.01267  Uiso   1.00
O15    O     0.40634   0.79940   0.45300   0.01267  Uiso   1.00
O16    O     0.43259   0.94980   0.44834   0.01267  Uiso   1.00
O17    O     0.58650   0.45397   0.97853   0.01267  Uiso   1.00
O18    O     0.55901   0.37727   0.87782   0.01267  Uiso   1.00
O19    O     0.50528   0.51792   0.87656   0.01267  Uiso   1.00
O20    O     0.63743   0.96587   0.49457   0.01267  Uiso   1.00
O21    O     0.34096   0.30437   0.82891   0.01267  Uiso   1.00
O22    O     0.38943   0.25539   0.77173   0.01267  Uiso   1.00
O23    O     0.70363   0.07916   0.53135   0.01267  Uiso   1.00
O24    O     0.45300   0.40634   0.79940   0.01267  Uiso   1.00
O25    O     0.44834   0.43259   0.94980   0.01267  Uiso   1.00
O26    O     0.97853   0.58650   0.45397   0.01267  Uiso   1.00
O27    O     0.87782   0.55901   0.37727   0.01267  Uiso   1.00
O28    O     0.12344   0.49472   0.48208   0.01267  Uiso   1.00
O29    O     0.50543   0.36257   0.03413   0.01267  Uiso   1.00
O30    O     0.17109   0.65904   0.69563   0.01267  Uiso   1.00
O31    O     0.22827   0.61057   0.74461   0.01267  Uiso   1.00
O32    O     0.46865   0.29637   0.92084   0.01267  Uiso   1.00
O33    O     0.20060   0.54700   0.59366   0.01267  Uiso   1.00
O34    O     0.05020   0.55166   0.56741   0.01267  Uiso   1.00
O35    O     0.54603   0.02147   0.41350   0.01267  Uiso   1.00
O36    O     0.62273   0.12218   0.44099   0.01267  Uiso   1.00
O37    O     0.48208   0.12344   0.49472   0.01267  Uiso   1.00
O38    O     0.03413   0.50543   0.36257   0.01267  Uiso   1.00
O39    O     0.69563   0.17109   0.65904   0.01267  Uiso   1.00
O40    O     0.74461   0.22827   0.61057   0.01267  Uiso   1.00
O41    O     0.92084   0.46865   0.29637   0.01267  Uiso   1.00
O42    O     0.59366   0.20060   0.54700   0.01267  Uiso   1.00
O43    O     0.56741   0.05020   0.55166   0.01267  Uiso   1.00
O44    O     0.41350   0.54603   0.02147   0.01267  Uiso   1.00
O45    O     0.44099   0.62273   0.12218   0.01267  Uiso   1.00
O46    O     0.49472   0.48208   0.12344   0.01267  Uiso   1.00
O47    O     0.36257   0.03413   0.50543   0.01267  Uiso   1.00
O48    O     0.65904   0.69563   0.17109   0.01267  Uiso   1.00
O49    O     0.61057   0.74461   0.22827   0.01267  Uiso   1.00
O50    O     0.29637   0.92084   0.46865   0.01267  Uiso   1.00
O51    O     0.54700   0.59366   0.20060   0.01267  Uiso   1.00
O52    O     0.55166   0.56741   0.05020   0.01267  Uiso   1.00
O53    O     0.02147   0.41350   0.54603   0.01267  Uiso   1.00
O54    O     0.12218   0.44099   0.62273   0.01267  Uiso   1.00
