data_WAVWEW_clean
_audit_creation_date              2014-07-02
_audit_creation_method            'Materials Studio'
_symmetry_space_group_name_H-M    'P1'
_symmetry_Int_Tables_number       1
_symmetry_cell_setting            triclinic
loop_
_symmetry_equiv_pos_as_xyz
  x,y,z
_cell_length_a                    6.7830
_cell_length_b                    18.9740
_cell_length_c                    9.3940
_cell_angle_alpha                 90.0000
_cell_angle_beta                  90.0000
_cell_angle_gamma                 90.0000
loop_
_atom_site_label
_atom_site_type_symbol
_atom_site_fract_x
_atom_site_fract_y
_atom_site_fract_z
_atom_site_U_iso_or_equiv
_atom_site_adp_type
_atom_site_occupancy
Ba1    Ba    0.75000   0.75000   0.97294   0.01267  Uiso   1.00
Ba2    Ba    0.25000   0.25000   0.52706   0.01267  Uiso   1.00
Ba3    Ba    0.25000   0.25000   0.02706   0.01267  Uiso   1.00
Ba4    Ba    0.75000   0.75000   0.47294   0.01267  Uiso   1.00
Co1    Co    0.50000   0.50000   0.00000   0.01267  Uiso   1.00
Co2    Co    0.00000   0.00000   0.00000   0.01267  Uiso   1.00
Co3    Co    0.00000   0.50000   0.50000   0.01267  Uiso   1.00
Co4    Co    0.50000   0.00000   0.50000   0.01267  Uiso   1.00
H1     H     0.64540   0.58450   0.40010   0.01267  Uiso   1.00
H2     H     0.43620   0.56970   0.33800   0.01267  Uiso   1.00
H3     H     0.85460   0.91550   0.40010   0.01267  Uiso   1.00
H4     H     0.06380   0.93030   0.33800   0.01267  Uiso   1.00
H5     H     0.14540   0.41550   0.09990   0.01267  Uiso   1.00
H6     H     0.93620   0.43030   0.16200   0.01267  Uiso   1.00
H7     H     0.35460   0.08450   0.09990   0.01267  Uiso   1.00
H8     H     0.56380   0.06970   0.16200   0.01267  Uiso   1.00
H9     H     0.35460   0.41550   0.59990   0.01267  Uiso   1.00
H10    H     0.56380   0.43030   0.66200   0.01267  Uiso   1.00
H11    H     0.14540   0.08450   0.59990   0.01267  Uiso   1.00
H12    H     0.93620   0.06970   0.66200   0.01267  Uiso   1.00
H13    H     0.85460   0.58450   0.90010   0.01267  Uiso   1.00
H14    H     0.06380   0.56970   0.83800   0.01267  Uiso   1.00
H15    H     0.64540   0.91550   0.90010   0.01267  Uiso   1.00
H16    H     0.43620   0.93030   0.83800   0.01267  Uiso   1.00
C1     C     0.61870   0.61570   0.19450   0.01267  Uiso   1.00
C2     C     0.57600   0.56650   0.31740   0.01267  Uiso   1.00
C3     C     0.62670   0.48970   0.30320   0.01267  Uiso   1.00
C4     C     0.88130   0.88430   0.19450   0.01267  Uiso   1.00
C5     C     0.92400   0.93350   0.31740   0.01267  Uiso   1.00
C6     C     0.87330   0.01030   0.30320   0.01267  Uiso   1.00
C7     C     0.11870   0.38430   0.30550   0.01267  Uiso   1.00
C8     C     0.07600   0.43350   0.18260   0.01267  Uiso   1.00
C9     C     0.12670   0.51030   0.19680   0.01267  Uiso   1.00
C10    C     0.38130   0.11570   0.30550   0.01267  Uiso   1.00
C11    C     0.42400   0.06650   0.18260   0.01267  Uiso   1.00
C12    C     0.37330   0.98970   0.19680   0.01267  Uiso   1.00
C13    C     0.38130   0.38430   0.80550   0.01267  Uiso   1.00
C14    C     0.42400   0.43350   0.68260   0.01267  Uiso   1.00
C15    C     0.37330   0.51030   0.69680   0.01267  Uiso   1.00
C16    C     0.11870   0.11570   0.80550   0.01267  Uiso   1.00
C17    C     0.07600   0.06650   0.68260   0.01267  Uiso   1.00
C18    C     0.12670   0.98970   0.69680   0.01267  Uiso   1.00
C19    C     0.88130   0.61570   0.69450   0.01267  Uiso   1.00
C20    C     0.92400   0.56650   0.81740   0.01267  Uiso   1.00
C21    C     0.87330   0.48970   0.80320   0.01267  Uiso   1.00
C22    C     0.61870   0.88430   0.69450   0.01267  Uiso   1.00
C23    C     0.57600   0.93350   0.81740   0.01267  Uiso   1.00
C24    C     0.62670   0.01030   0.80320   0.01267  Uiso   1.00
O1     O     0.61570   0.59368   0.06620   0.01267  Uiso   1.00
O2     O     0.65080   0.67884   0.22330   0.01267  Uiso   1.00
O3     O     0.57140   0.45585   0.19380   0.01267  Uiso   1.00
O4     O     0.71970   0.46084   0.40220   0.01267  Uiso   1.00
O5     O     0.88430   0.90632   0.06620   0.01267  Uiso   1.00
O6     O     0.84920   0.82116   0.22330   0.01267  Uiso   1.00
O7     O     0.92860   0.04415   0.19380   0.01267  Uiso   1.00
O8     O     0.78030   0.03916   0.40220   0.01267  Uiso   1.00
O9     O     0.11570   0.40632   0.43380   0.01267  Uiso   1.00
O10    O     0.15080   0.32116   0.27670   0.01267  Uiso   1.00
O11    O     0.07140   0.54415   0.30620   0.01267  Uiso   1.00
O12    O     0.21970   0.53916   0.09780   0.01267  Uiso   1.00
O13    O     0.38430   0.09368   0.43380   0.01267  Uiso   1.00
O14    O     0.34920   0.17884   0.27670   0.01267  Uiso   1.00
O15    O     0.42860   0.95585   0.30620   0.01267  Uiso   1.00
O16    O     0.28030   0.96084   0.09780   0.01267  Uiso   1.00
O17    O     0.38430   0.40632   0.93380   0.01267  Uiso   1.00
O18    O     0.34920   0.32116   0.77670   0.01267  Uiso   1.00
O19    O     0.42860   0.54415   0.80620   0.01267  Uiso   1.00
O20    O     0.28030   0.53916   0.59780   0.01267  Uiso   1.00
O21    O     0.11570   0.09368   0.93380   0.01267  Uiso   1.00
O22    O     0.15080   0.17884   0.77670   0.01267  Uiso   1.00
O23    O     0.07140   0.95585   0.80620   0.01267  Uiso   1.00
O24    O     0.21970   0.96084   0.59780   0.01267  Uiso   1.00
O25    O     0.88430   0.59368   0.56620   0.01267  Uiso   1.00
O26    O     0.84920   0.67884   0.72330   0.01267  Uiso   1.00
O27    O     0.92860   0.45585   0.69380   0.01267  Uiso   1.00
O28    O     0.78030   0.46084   0.90220   0.01267  Uiso   1.00
O29    O     0.61570   0.90632   0.56620   0.01267  Uiso   1.00
O30    O     0.65080   0.82116   0.72330   0.01267  Uiso   1.00
O31    O     0.57140   0.04415   0.69380   0.01267  Uiso   1.00
O32    O     0.71970   0.03916   0.90220   0.01267  Uiso   1.00
