data_WAWGOQ_clean
_audit_creation_date              2014-07-02
_audit_creation_method            'Materials Studio'
_symmetry_space_group_name_H-M    'P1'
_symmetry_Int_Tables_number       1
_symmetry_cell_setting            triclinic
loop_
_symmetry_equiv_pos_as_xyz
  x,y,z
_cell_length_a                    16.9381
_cell_length_b                    16.9381
_cell_length_c                    32.5980
_cell_angle_alpha                 87.7734
_cell_angle_beta                  87.7734
_cell_angle_gamma                 70.3282
loop_
_atom_site_label
_atom_site_type_symbol
_atom_site_fract_x
_atom_site_fract_y
_atom_site_fract_z
_atom_site_U_iso_or_equiv
_atom_site_adp_type
_atom_site_occupancy
Zn1    Zn    0.31359   0.85593   0.44289   0.01267  Uiso   1.00
Zn2    Zn    0.85126   0.79706   0.19473   0.01267  Uiso   1.00
Zn3    Zn    0.85593   0.31359   0.94289   0.01267  Uiso   1.00
Zn4    Zn    0.79706   0.85126   0.69473   0.01267  Uiso   1.00
H1     H     0.29280   0.78320   0.29290   0.01267  Uiso   1.00
H2     H     0.43440   0.78420   0.29640   0.01267  Uiso   1.00
H3     H     0.62550   0.82370   0.41740   0.01267  Uiso   1.00
H4     H     0.60390   0.84630   0.49130   0.01267  Uiso   1.00
H5     H     0.34620   0.88680   0.59530   0.01267  Uiso   1.00
H6     H     0.20310   0.88570   0.59260   0.01267  Uiso   1.00
H7     H     0.01900   0.83900   0.47560   0.01267  Uiso   1.00
H8     H     0.04400   0.80880   0.40160   0.01267  Uiso   1.00
H9     H     0.07800   0.91180   0.32160   0.01267  Uiso   1.00
H10    H     0.99640   0.87960   0.27310   0.01267  Uiso   1.00
H11    H     0.12620   0.63860   0.28600   0.01267  Uiso   1.00
H12    H     0.20590   0.66770   0.33590   0.01267  Uiso   1.00
H13    H     0.99860   0.67240   0.20460   0.01267  Uiso   1.00
H14    H     0.50500   0.90620   0.31230   0.01267  Uiso   1.00
H15    H     0.61420   0.88540   0.26550   0.01267  Uiso   1.00
H16    H     0.74290   0.67310   0.32220   0.01267  Uiso   1.00
H17    H     0.62980   0.69180   0.36870   0.01267  Uiso   1.00
H18    H     0.70770   0.87810   0.23620   0.01267  Uiso   1.00
H19    H     0.43910   0.99470   0.56040   0.01267  Uiso   1.00
H20    H     0.51700   0.00980   0.61690   0.01267  Uiso   1.00
H21    H     0.64750   0.76550   0.61330   0.01267  Uiso   1.00
H22    H     0.56880   0.75140   0.55970   0.01267  Uiso   1.00
H23    H     0.02430   0.98910   0.53890   0.01267  Uiso   1.00
H24    H     0.91760   0.99600   0.58530   0.01267  Uiso   1.00
H25    H     0.01970   0.75450   0.61120   0.01267  Uiso   1.00
H26    H     0.12640   0.74260   0.56180   0.01267  Uiso   1.00
H27    H     0.78320   0.29280   0.79290   0.01267  Uiso   1.00
H28    H     0.78420   0.43440   0.79640   0.01267  Uiso   1.00
H29    H     0.82370   0.62550   0.91740   0.01267  Uiso   1.00
H30    H     0.84630   0.60390   0.99130   0.01267  Uiso   1.00
H31    H     0.88680   0.34620   0.09530   0.01267  Uiso   1.00
H32    H     0.88570   0.20310   0.09260   0.01267  Uiso   1.00
H33    H     0.83900   0.01900   0.97560   0.01267  Uiso   1.00
H34    H     0.80880   0.04400   0.90160   0.01267  Uiso   1.00
H35    H     0.91180   0.07800   0.82160   0.01267  Uiso   1.00
H36    H     0.87960   0.99640   0.77310   0.01267  Uiso   1.00
H37    H     0.63860   0.12620   0.78600   0.01267  Uiso   1.00
H38    H     0.66770   0.20590   0.83590   0.01267  Uiso   1.00
H39    H     0.67240   0.99860   0.70460   0.01267  Uiso   1.00
H40    H     0.90620   0.50500   0.81230   0.01267  Uiso   1.00
H41    H     0.88540   0.61420   0.76550   0.01267  Uiso   1.00
H42    H     0.67310   0.74290   0.82220   0.01267  Uiso   1.00
H43    H     0.69180   0.62980   0.86870   0.01267  Uiso   1.00
H44    H     0.87810   0.70770   0.73620   0.01267  Uiso   1.00
H45    H     0.99470   0.43910   0.06040   0.01267  Uiso   1.00
H46    H     0.00980   0.51700   0.11690   0.01267  Uiso   1.00
H47    H     0.76550   0.64750   0.11330   0.01267  Uiso   1.00
H48    H     0.75140   0.56880   0.05970   0.01267  Uiso   1.00
H49    H     0.98910   0.02430   0.03890   0.01267  Uiso   1.00
H50    H     0.99600   0.91760   0.08530   0.01267  Uiso   1.00
H51    H     0.75450   0.01970   0.11120   0.01267  Uiso   1.00
H52    H     0.74260   0.12640   0.06180   0.01267  Uiso   1.00
C1     C     0.16136   0.82396   0.40680   0.01267  Uiso   1.00
C2     C     0.19901   0.81001   0.36784   0.01267  Uiso   1.00
C3     C     0.27920   0.80680   0.35672   0.01267  Uiso   1.00
C4     C     0.31800   0.79200   0.31635   0.01267  Uiso   1.00
C5     C     0.39560   0.79280   0.31820   0.01267  Uiso   1.00
C6     C     0.40960   0.80920   0.36017   0.01267  Uiso   1.00
C7     C     0.48418   0.81198   0.37437   0.01267  Uiso   1.00
C8     C     0.49996   0.82276   0.41644   0.01267  Uiso   1.00
C9     C     0.57655   0.82835   0.43258   0.01267  Uiso   1.00
C10    C     0.56480   0.84140   0.47321   0.01267  Uiso   1.00
C11    C     0.48053   0.84613   0.48306   0.01267  Uiso   1.00
C12    C     0.44143   0.86143   0.52207   0.01267  Uiso   1.00
C13    C     0.35977   0.86677   0.53181   0.01267  Uiso   1.00
C14    C     0.32040   0.87960   0.57177   0.01267  Uiso   1.00
C15    C     0.24170   0.87950   0.57078   0.01267  Uiso   1.00
C16    C     0.23003   0.86763   0.52818   0.01267  Uiso   1.00
C17    C     0.15586   0.85966   0.51408   0.01267  Uiso   1.00
C18    C     0.14164   0.84544   0.47362   0.01267  Uiso   1.00
C19    C     0.06714   0.83554   0.45996   0.01267  Uiso   1.00
C20    C     0.08106   0.82006   0.41886   0.01267  Uiso   1.00
C21    C     0.14593   0.79493   0.33456   0.01267  Uiso   1.00
C22    C     0.08750   0.85610   0.31532   0.01267  Uiso   1.00
C23    C     0.03980   0.83680   0.28526   0.01267  Uiso   1.00
C24    C     0.05625   0.75665   0.27384   0.01267  Uiso   1.00
C25    C     0.11630   0.69390   0.29310   0.01267  Uiso   1.00
C26    C     0.16350   0.71090   0.32330   0.01267  Uiso   1.00
C27    C     0.00100   0.74180   0.24136   0.01267  Uiso   1.00
C28    C     0.55370   0.80130   0.34513   0.01267  Uiso   1.00
C29    C     0.55190   0.85810   0.31460   0.01267  Uiso   1.00
C30    C     0.61840   0.84600   0.28674   0.01267  Uiso   1.00
C31    C     0.68876   0.77916   0.28953   0.01267  Uiso   1.00
C32    C     0.69480   0.72000   0.31992   0.01267  Uiso   1.00
C33    C     0.62640   0.73180   0.34782   0.01267  Uiso   1.00
C34    C     0.76410   0.76370   0.25995   0.01267  Uiso   1.00
C35    C     0.49692   0.86952   0.55622   0.01267  Uiso   1.00
C36    C     0.48050   0.94850   0.57161   0.01267  Uiso   1.00
C37    C     0.52855   0.95775   0.60514   0.01267  Uiso   1.00
C38    C     0.59280   0.88820   0.62007   0.01267  Uiso   1.00
C39    C     0.60560   0.81260   0.60312   0.01267  Uiso   1.00
C40    C     0.55790   0.80370   0.57094   0.01267  Uiso   1.00
C41    C     0.64380   0.90080   0.65337   0.01267  Uiso   1.00
C42    C     0.08516   0.86756   0.54452   0.01267  Uiso   1.00
C43    C     0.02370   0.94030   0.55283   0.01267  Uiso   1.00
C44    C     0.95990   0.94490   0.58115   0.01267  Uiso   1.00
C45    C     0.95837   0.87597   0.60302   0.01267  Uiso   1.00
C46    C     0.02030   0.80190   0.59598   0.01267  Uiso   1.00
C47    C     0.08510   0.79410   0.56658   0.01267  Uiso   1.00
C48    C     0.89220   0.87780   0.63455   0.01267  Uiso   1.00
C49    C     0.82396   0.16136   0.90680   0.01267  Uiso   1.00
C50    C     0.81001   0.19901   0.86784   0.01267  Uiso   1.00
C51    C     0.80680   0.27920   0.85672   0.01267  Uiso   1.00
C52    C     0.79200   0.31800   0.81635   0.01267  Uiso   1.00
C53    C     0.79280   0.39560   0.81820   0.01267  Uiso   1.00
C54    C     0.80920   0.40960   0.86017   0.01267  Uiso   1.00
C55    C     0.81198   0.48418   0.87437   0.01267  Uiso   1.00
C56    C     0.82276   0.49996   0.91644   0.01267  Uiso   1.00
C57    C     0.82835   0.57655   0.93258   0.01267  Uiso   1.00
C58    C     0.84140   0.56480   0.97321   0.01267  Uiso   1.00
C59    C     0.84613   0.48053   0.98306   0.01267  Uiso   1.00
C60    C     0.86143   0.44143   0.02207   0.01267  Uiso   1.00
C61    C     0.86677   0.35977   0.03181   0.01267  Uiso   1.00
C62    C     0.87960   0.32040   0.07177   0.01267  Uiso   1.00
C63    C     0.87950   0.24170   0.07078   0.01267  Uiso   1.00
C64    C     0.86763   0.23003   0.02818   0.01267  Uiso   1.00
C65    C     0.85966   0.15586   0.01408   0.01267  Uiso   1.00
C66    C     0.84544   0.14164   0.97362   0.01267  Uiso   1.00
C67    C     0.83554   0.06714   0.95996   0.01267  Uiso   1.00
C68    C     0.82006   0.08106   0.91886   0.01267  Uiso   1.00
C69    C     0.79493   0.14593   0.83456   0.01267  Uiso   1.00
C70    C     0.85610   0.08750   0.81532   0.01267  Uiso   1.00
C71    C     0.83680   0.03980   0.78526   0.01267  Uiso   1.00
C72    C     0.75665   0.05625   0.77384   0.01267  Uiso   1.00
C73    C     0.69390   0.11630   0.79310   0.01267  Uiso   1.00
C74    C     0.71090   0.16350   0.82330   0.01267  Uiso   1.00
C75    C     0.74180   0.00100   0.74136   0.01267  Uiso   1.00
C76    C     0.80130   0.55370   0.84513   0.01267  Uiso   1.00
C77    C     0.85810   0.55190   0.81460   0.01267  Uiso   1.00
C78    C     0.84600   0.61840   0.78674   0.01267  Uiso   1.00
C79    C     0.77916   0.68876   0.78953   0.01267  Uiso   1.00
C80    C     0.72000   0.69480   0.81992   0.01267  Uiso   1.00
C81    C     0.73180   0.62640   0.84782   0.01267  Uiso   1.00
C82    C     0.76370   0.76410   0.75995   0.01267  Uiso   1.00
C83    C     0.86952   0.49692   0.05622   0.01267  Uiso   1.00
C84    C     0.94850   0.48050   0.07161   0.01267  Uiso   1.00
C85    C     0.95775   0.52855   0.10514   0.01267  Uiso   1.00
C86    C     0.88820   0.59280   0.12007   0.01267  Uiso   1.00
C87    C     0.81260   0.60560   0.10312   0.01267  Uiso   1.00
C88    C     0.80370   0.55790   0.07094   0.01267  Uiso   1.00
C89    C     0.90080   0.64380   0.15337   0.01267  Uiso   1.00
C90    C     0.86756   0.08516   0.04452   0.01267  Uiso   1.00
C91    C     0.94030   0.02370   0.05283   0.01267  Uiso   1.00
C92    C     0.94490   0.95990   0.08115   0.01267  Uiso   1.00
C93    C     0.87597   0.95837   0.10302   0.01267  Uiso   1.00
C94    C     0.80190   0.02030   0.09598   0.01267  Uiso   1.00
C95    C     0.79410   0.08510   0.06658   0.01267  Uiso   1.00
C96    C     0.87780   0.89220   0.13455   0.01267  Uiso   1.00
N1     N     0.33656   0.81896   0.38293   0.01267  Uiso   1.00
N2     N     0.44031   0.83531   0.44826   0.01267  Uiso   1.00
N3     N     0.30127   0.86087   0.50547   0.01267  Uiso   1.00
N4     N     0.20024   0.83704   0.44140   0.01267  Uiso   1.00
N5     N     0.81896   0.33656   0.88293   0.01267  Uiso   1.00
N6     N     0.83531   0.44031   0.94826   0.01267  Uiso   1.00
N7     N     0.86087   0.30127   0.00547   0.01267  Uiso   1.00
N8     N     0.83704   0.20024   0.94140   0.01267  Uiso   1.00
O1     O     0.02017   0.66377   0.23243   0.01267  Uiso   1.00
O2     O     0.94520   0.80100   0.22627   0.01267  Uiso   1.00
O3     O     0.82601   0.70121   0.26108   0.01267  Uiso   1.00
O4     O     0.75372   0.82712   0.23240   0.01267  Uiso   1.00
O5     O     0.70775   0.84215   0.66137   0.01267  Uiso   1.00
O6     O     0.61970   0.96990   0.67102   0.01267  Uiso   1.00
O7     O     0.90117   0.82097   0.66098   0.01267  Uiso   1.00
O8     O     0.82278   0.93978   0.63240   0.01267  Uiso   1.00
O9     O     0.66377   0.02017   0.73243   0.01267  Uiso   1.00
O10    O     0.80100   0.94520   0.72627   0.01267  Uiso   1.00
O11    O     0.70121   0.82601   0.76108   0.01267  Uiso   1.00
O12    O     0.82712   0.75372   0.73240   0.01267  Uiso   1.00
O13    O     0.84215   0.70775   0.16137   0.01267  Uiso   1.00
O14    O     0.96990   0.61970   0.17102   0.01267  Uiso   1.00
O15    O     0.82097   0.90117   0.16098   0.01267  Uiso   1.00
O16    O     0.93978   0.82278   0.13240   0.01267  Uiso   1.00
Zn5    Zn    0.14407   0.68641   0.05711   0.01267  Uiso   1.00
Zn6    Zn    0.20294   0.14874   0.30527   0.01267  Uiso   1.00
Zn7    Zn    0.68641   0.14407   0.55711   0.01267  Uiso   1.00
Zn8    Zn    0.14874   0.20294   0.80527   0.01267  Uiso   1.00
H53    H     0.21680   0.70720   0.20710   0.01267  Uiso   1.00
H54    H     0.21580   0.56560   0.20360   0.01267  Uiso   1.00
H55    H     0.17630   0.37450   0.08260   0.01267  Uiso   1.00
H56    H     0.15370   0.39610   0.00870   0.01267  Uiso   1.00
H57    H     0.11320   0.65380   0.90470   0.01267  Uiso   1.00
H58    H     0.11430   0.79690   0.90740   0.01267  Uiso   1.00
H59    H     0.16100   0.98100   0.02440   0.01267  Uiso   1.00
H60    H     0.19120   0.95600   0.09840   0.01267  Uiso   1.00
H61    H     0.08820   0.92200   0.17840   0.01267  Uiso   1.00
H62    H     0.12040   0.00360   0.22690   0.01267  Uiso   1.00
H63    H     0.36140   0.87380   0.21400   0.01267  Uiso   1.00
H64    H     0.33230   0.79410   0.16410   0.01267  Uiso   1.00
H65    H     0.32760   0.00140   0.29540   0.01267  Uiso   1.00
H66    H     0.09380   0.49500   0.18770   0.01267  Uiso   1.00
H67    H     0.11460   0.38580   0.23450   0.01267  Uiso   1.00
H68    H     0.32690   0.25710   0.17780   0.01267  Uiso   1.00
H69    H     0.30820   0.37020   0.13130   0.01267  Uiso   1.00
H70    H     0.12190   0.29230   0.26380   0.01267  Uiso   1.00
H71    H     0.00530   0.56090   0.93960   0.01267  Uiso   1.00
H72    H     0.99020   0.48300   0.88310   0.01267  Uiso   1.00
H73    H     0.23450   0.35250   0.88670   0.01267  Uiso   1.00
H74    H     0.24860   0.43120   0.94030   0.01267  Uiso   1.00
H75    H     0.01090   0.97570   0.96110   0.01267  Uiso   1.00
H76    H     0.00400   0.08240   0.91470   0.01267  Uiso   1.00
H77    H     0.24550   0.98030   0.88880   0.01267  Uiso   1.00
H78    H     0.25740   0.87360   0.93820   0.01267  Uiso   1.00
H79    H     0.70720   0.21680   0.70710   0.01267  Uiso   1.00
H80    H     0.56560   0.21580   0.70360   0.01267  Uiso   1.00
H81    H     0.37450   0.17630   0.58260   0.01267  Uiso   1.00
H82    H     0.39610   0.15370   0.50870   0.01267  Uiso   1.00
H83    H     0.65380   0.11320   0.40470   0.01267  Uiso   1.00
H84    H     0.79690   0.11430   0.40740   0.01267  Uiso   1.00
H85    H     0.98100   0.16100   0.52440   0.01267  Uiso   1.00
H86    H     0.95600   0.19120   0.59840   0.01267  Uiso   1.00
H87    H     0.92200   0.08820   0.67840   0.01267  Uiso   1.00
H88    H     0.00360   0.12040   0.72690   0.01267  Uiso   1.00
H89    H     0.87380   0.36140   0.71400   0.01267  Uiso   1.00
H90    H     0.79410   0.33230   0.66410   0.01267  Uiso   1.00
H91    H     0.00140   0.32760   0.79540   0.01267  Uiso   1.00
H92    H     0.49500   0.09380   0.68770   0.01267  Uiso   1.00
H93    H     0.38580   0.11460   0.73450   0.01267  Uiso   1.00
H94    H     0.25710   0.32690   0.67780   0.01267  Uiso   1.00
H95    H     0.37020   0.30820   0.63130   0.01267  Uiso   1.00
H96    H     0.29230   0.12190   0.76380   0.01267  Uiso   1.00
H97    H     0.56090   0.00530   0.43960   0.01267  Uiso   1.00
H98    H     0.48300   0.99020   0.38310   0.01267  Uiso   1.00
H99    H     0.35250   0.23450   0.38670   0.01267  Uiso   1.00
H100   H     0.43120   0.24860   0.44030   0.01267  Uiso   1.00
H101   H     0.97570   0.01090   0.46110   0.01267  Uiso   1.00
H102   H     0.08240   0.00400   0.41470   0.01267  Uiso   1.00
H103   H     0.98030   0.24550   0.38880   0.01267  Uiso   1.00
H104   H     0.87360   0.25740   0.43820   0.01267  Uiso   1.00
C97    C     0.17604   0.83864   0.09320   0.01267  Uiso   1.00
C98    C     0.18999   0.80099   0.13216   0.01267  Uiso   1.00
C99    C     0.19320   0.72080   0.14328   0.01267  Uiso   1.00
C100   C     0.20800   0.68200   0.18365   0.01267  Uiso   1.00
C101   C     0.20720   0.60440   0.18180   0.01267  Uiso   1.00
C102   C     0.19080   0.59040   0.13983   0.01267  Uiso   1.00
C103   C     0.18802   0.51582   0.12563   0.01267  Uiso   1.00
C104   C     0.17724   0.50004   0.08356   0.01267  Uiso   1.00
C105   C     0.17165   0.42345   0.06742   0.01267  Uiso   1.00
C106   C     0.15860   0.43520   0.02679   0.01267  Uiso   1.00
C107   C     0.15387   0.51947   0.01694   0.01267  Uiso   1.00
C108   C     0.13857   0.55857   0.97793   0.01267  Uiso   1.00
C109   C     0.13323   0.64023   0.96819   0.01267  Uiso   1.00
C110   C     0.12040   0.67960   0.92823   0.01267  Uiso   1.00
C111   C     0.12050   0.75830   0.92922   0.01267  Uiso   1.00
C112   C     0.13237   0.76997   0.97182   0.01267  Uiso   1.00
C113   C     0.14034   0.84414   0.98592   0.01267  Uiso   1.00
C114   C     0.15456   0.85836   0.02638   0.01267  Uiso   1.00
C115   C     0.16446   0.93286   0.04004   0.01267  Uiso   1.00
C116   C     0.17994   0.91894   0.08114   0.01267  Uiso   1.00
C117   C     0.20507   0.85407   0.16544   0.01267  Uiso   1.00
C118   C     0.14390   0.91250   0.18468   0.01267  Uiso   1.00
C119   C     0.16320   0.96020   0.21474   0.01267  Uiso   1.00
C120   C     0.24335   0.94375   0.22616   0.01267  Uiso   1.00
C121   C     0.30610   0.88370   0.20690   0.01267  Uiso   1.00
C122   C     0.28910   0.83650   0.17670   0.01267  Uiso   1.00
C123   C     0.25820   0.99900   0.25864   0.01267  Uiso   1.00
C124   C     0.19870   0.44630   0.15487   0.01267  Uiso   1.00
C125   C     0.14190   0.44810   0.18540   0.01267  Uiso   1.00
C126   C     0.15400   0.38160   0.21326   0.01267  Uiso   1.00
C127   C     0.22084   0.31124   0.21047   0.01267  Uiso   1.00
C128   C     0.28000   0.30520   0.18008   0.01267  Uiso   1.00
C129   C     0.26820   0.37360   0.15218   0.01267  Uiso   1.00
C130   C     0.23630   0.23590   0.24005   0.01267  Uiso   1.00
C131   C     0.13048   0.50308   0.94378   0.01267  Uiso   1.00
C132   C     0.05150   0.51950   0.92839   0.01267  Uiso   1.00
C133   C     0.04225   0.47145   0.89486   0.01267  Uiso   1.00
C134   C     0.11180   0.40720   0.87993   0.01267  Uiso   1.00
C135   C     0.18740   0.39440   0.89688   0.01267  Uiso   1.00
C136   C     0.19630   0.44210   0.92906   0.01267  Uiso   1.00
C137   C     0.09920   0.35620   0.84663   0.01267  Uiso   1.00
C138   C     0.13244   0.91484   0.95548   0.01267  Uiso   1.00
C139   C     0.05970   0.97630   0.94717   0.01267  Uiso   1.00
C140   C     0.05510   0.04010   0.91885   0.01267  Uiso   1.00
C141   C     0.12403   0.04163   0.89698   0.01267  Uiso   1.00
C142   C     0.19810   0.97970   0.90402   0.01267  Uiso   1.00
C143   C     0.20590   0.91490   0.93342   0.01267  Uiso   1.00
C144   C     0.12220   0.10780   0.86545   0.01267  Uiso   1.00
C145   C     0.83864   0.17604   0.59320   0.01267  Uiso   1.00
C146   C     0.80099   0.18999   0.63216   0.01267  Uiso   1.00
C147   C     0.72080   0.19320   0.64328   0.01267  Uiso   1.00
C148   C     0.68200   0.20800   0.68365   0.01267  Uiso   1.00
C149   C     0.60440   0.20720   0.68180   0.01267  Uiso   1.00
C150   C     0.59040   0.19080   0.63983   0.01267  Uiso   1.00
C151   C     0.51582   0.18802   0.62563   0.01267  Uiso   1.00
C152   C     0.50004   0.17724   0.58356   0.01267  Uiso   1.00
C153   C     0.42345   0.17165   0.56742   0.01267  Uiso   1.00
C154   C     0.43520   0.15860   0.52679   0.01267  Uiso   1.00
C155   C     0.51947   0.15387   0.51694   0.01267  Uiso   1.00
C156   C     0.55857   0.13857   0.47793   0.01267  Uiso   1.00
C157   C     0.64023   0.13323   0.46819   0.01267  Uiso   1.00
C158   C     0.67960   0.12040   0.42823   0.01267  Uiso   1.00
C159   C     0.75830   0.12050   0.42922   0.01267  Uiso   1.00
C160   C     0.76997   0.13237   0.47182   0.01267  Uiso   1.00
C161   C     0.84414   0.14034   0.48592   0.01267  Uiso   1.00
C162   C     0.85836   0.15456   0.52638   0.01267  Uiso   1.00
C163   C     0.93286   0.16446   0.54004   0.01267  Uiso   1.00
C164   C     0.91894   0.17994   0.58114   0.01267  Uiso   1.00
C165   C     0.85407   0.20507   0.66544   0.01267  Uiso   1.00
C166   C     0.91250   0.14390   0.68468   0.01267  Uiso   1.00
C167   C     0.96020   0.16320   0.71474   0.01267  Uiso   1.00
C168   C     0.94375   0.24335   0.72616   0.01267  Uiso   1.00
C169   C     0.88370   0.30610   0.70690   0.01267  Uiso   1.00
C170   C     0.83650   0.28910   0.67670   0.01267  Uiso   1.00
C171   C     0.99900   0.25820   0.75864   0.01267  Uiso   1.00
C172   C     0.44630   0.19870   0.65487   0.01267  Uiso   1.00
C173   C     0.44810   0.14190   0.68540   0.01267  Uiso   1.00
C174   C     0.38160   0.15400   0.71326   0.01267  Uiso   1.00
C175   C     0.31124   0.22084   0.71047   0.01267  Uiso   1.00
C176   C     0.30520   0.28000   0.68008   0.01267  Uiso   1.00
C177   C     0.37360   0.26820   0.65218   0.01267  Uiso   1.00
C178   C     0.23590   0.23630   0.74005   0.01267  Uiso   1.00
C179   C     0.50308   0.13048   0.44378   0.01267  Uiso   1.00
C180   C     0.51950   0.05150   0.42839   0.01267  Uiso   1.00
C181   C     0.47145   0.04225   0.39486   0.01267  Uiso   1.00
C182   C     0.40720   0.11180   0.37993   0.01267  Uiso   1.00
C183   C     0.39440   0.18740   0.39688   0.01267  Uiso   1.00
C184   C     0.44210   0.19630   0.42906   0.01267  Uiso   1.00
C185   C     0.35620   0.09920   0.34663   0.01267  Uiso   1.00
C186   C     0.91484   0.13244   0.45548   0.01267  Uiso   1.00
C187   C     0.97630   0.05970   0.44717   0.01267  Uiso   1.00
C188   C     0.04010   0.05510   0.41885   0.01267  Uiso   1.00
C189   C     0.04163   0.12403   0.39698   0.01267  Uiso   1.00
C190   C     0.97970   0.19810   0.40402   0.01267  Uiso   1.00
C191   C     0.91490   0.20590   0.43342   0.01267  Uiso   1.00
C192   C     0.10780   0.12220   0.36545   0.01267  Uiso   1.00
N9     N     0.18104   0.66344   0.11707   0.01267  Uiso   1.00
N10    N     0.16469   0.55969   0.05174   0.01267  Uiso   1.00
N11    N     0.13913   0.69873   0.99453   0.01267  Uiso   1.00
N12    N     0.16296   0.79976   0.05860   0.01267  Uiso   1.00
N13    N     0.66344   0.18104   0.61707   0.01267  Uiso   1.00
N14    N     0.55969   0.16469   0.55174   0.01267  Uiso   1.00
N15    N     0.69873   0.13913   0.49453   0.01267  Uiso   1.00
N16    N     0.79976   0.16296   0.55860   0.01267  Uiso   1.00
O17    O     0.33623   0.97983   0.26757   0.01267  Uiso   1.00
O18    O     0.19900   0.05480   0.27373   0.01267  Uiso   1.00
O19    O     0.29879   0.17399   0.23892   0.01267  Uiso   1.00
O20    O     0.17288   0.24628   0.26760   0.01267  Uiso   1.00
O21    O     0.15785   0.29225   0.83863   0.01267  Uiso   1.00
O22    O     0.03010   0.38030   0.82898   0.01267  Uiso   1.00
O23    O     0.17903   0.09883   0.83902   0.01267  Uiso   1.00
O24    O     0.06022   0.17722   0.86760   0.01267  Uiso   1.00
O25    O     0.97983   0.33623   0.76757   0.01267  Uiso   1.00
O26    O     0.05480   0.19900   0.77373   0.01267  Uiso   1.00
O27    O     0.17399   0.29879   0.73892   0.01267  Uiso   1.00
O28    O     0.24628   0.17288   0.76760   0.01267  Uiso   1.00
O29    O     0.29225   0.15785   0.33863   0.01267  Uiso   1.00
O30    O     0.38030   0.03010   0.32898   0.01267  Uiso   1.00
O31    O     0.09883   0.17903   0.33902   0.01267  Uiso   1.00
O32    O     0.17722   0.06022   0.36760   0.01267  Uiso   1.00
