data_image0
_cell_length_a       7.7158
_cell_length_b       16.218
_cell_length_c       11.266
_cell_angle_alpha    90
_cell_angle_beta     90.72
_cell_angle_gamma    90

_symmetry_space_group_name_H-M    "P 1"
_symmetry_int_tables_number       1

loop_
  _symmetry_equiv_pos_as_xyz
  'x, y, z'

loop_
  _atom_site_label
  _atom_site_occupancy
  _atom_site_fract_x
  _atom_site_fract_y
  _atom_site_fract_z
  _atom_site_thermal_displace_type
  _atom_site_B_iso_or_equiv
  _atom_site_type_symbol
  C1       1.0000 0.60170  0.55080  0.29150  Biso   1.000  C
  C2       1.0000 0.55190  0.07290  0.20780  Biso   1.000  C
  C3       1.0000 0.74660  0.13740  0.03360  Biso   1.000  C
  C4       1.0000 0.94110  0.21610  0.20270  Biso   1.000  C
  C5       1.0000 0.75200  0.14980  0.37030  Biso   1.000  C
  C6       1.0000 0.59700  0.23630  0.19930  Biso   1.000  C
  Co1      1.0000 0.74800  0.14366  0.20326  Biso   1.000  Co
  N1       1.0000 0.51020  0.49520  0.28870  Biso   1.000  N
  N2       1.0000 0.43340  0.03010  0.21020  Biso   1.000  N
  N3       1.0000 0.74730  0.13250  0.93410  Biso   1.000  N
  N4       1.0000 0.05680  0.26010  0.20580  Biso   1.000  N
  N5       1.0000 0.75320  0.15460  0.47250  Biso   1.000  N
  N6       1.0000 0.50490  0.29160  0.20030  Biso   1.000  N
  Sr1      1.0000 0.24772  0.40085  0.19784  Biso   1.000  Sr
  C7       1.0000 0.89830  0.05080  0.20850  Biso   1.000  C
  C8       1.0000 0.94810  0.57290  0.29220  Biso   1.000  C
  C9       1.0000 0.75340  0.63740  0.46640  Biso   1.000  C
  C10      1.0000 0.55890  0.71610  0.29730  Biso   1.000  C
  C11      1.0000 0.74800  0.64980  0.12970  Biso   1.000  C
  C12      1.0000 0.90300  0.73630  0.30070  Biso   1.000  C
  Co2      1.0000 0.75200  0.64366  0.29674  Biso   1.000  Co
  N7       1.0000 0.98980  0.99520  0.21130  Biso   1.000  N
  N8       1.0000 0.06660  0.53010  0.28980  Biso   1.000  N
  N9       1.0000 0.75270  0.63250  0.56590  Biso   1.000  N
  N10      1.0000 0.44320  0.76010  0.29420  Biso   1.000  N
  N11      1.0000 0.74680  0.65460  0.02750  Biso   1.000  N
  N12      1.0000 0.99510  0.79160  0.29970  Biso   1.000  N
  Sr2      1.0000 0.25228  0.90085  0.30216  Biso   1.000  Sr
  C13      1.0000 0.39830  0.44920  0.70850  Biso   1.000  C
  C14      1.0000 0.44810  0.92710  0.79220  Biso   1.000  C
  C15      1.0000 0.25340  0.86260  0.96640  Biso   1.000  C
  C16      1.0000 0.05890  0.78390  0.79730  Biso   1.000  C
  C17      1.0000 0.24800  0.85020  0.62970  Biso   1.000  C
  C18      1.0000 0.40300  0.76370  0.80070  Biso   1.000  C
  Co3      1.0000 0.25200  0.85634  0.79674  Biso   1.000  Co
  N13      1.0000 0.48980  0.50480  0.71130  Biso   1.000  N
  N14      1.0000 0.56660  0.96990  0.78980  Biso   1.000  N
  N15      1.0000 0.25270  0.86750  0.06590  Biso   1.000  N
  N16      1.0000 0.94320  0.73990  0.79420  Biso   1.000  N
  N17      1.0000 0.24680  0.84540  0.52750  Biso   1.000  N
  N18      1.0000 0.49510  0.70840  0.79970  Biso   1.000  N
  Sr3      1.0000 0.75228  0.59915  0.80216  Biso   1.000  Sr
  C19      1.0000 0.10170  0.94920  0.79150  Biso   1.000  C
  C20      1.0000 0.05190  0.42710  0.70780  Biso   1.000  C
  C21      1.0000 0.24660  0.36260  0.53360  Biso   1.000  C
  C22      1.0000 0.44110  0.28390  0.70270  Biso   1.000  C
  C23      1.0000 0.25200  0.35020  0.87030  Biso   1.000  C
  C24      1.0000 0.09700  0.26370  0.69930  Biso   1.000  C
  Co4      1.0000 0.24800  0.35634  0.70326  Biso   1.000  Co
  N19      1.0000 0.01020  0.00480  0.78870  Biso   1.000  N
  N20      1.0000 0.93340  0.46990  0.71020  Biso   1.000  N
  N21      1.0000 0.24730  0.36750  0.43410  Biso   1.000  N
  N22      1.0000 0.55680  0.23990  0.70580  Biso   1.000  N
  N23      1.0000 0.25320  0.34540  0.97250  Biso   1.000  N
  N24      1.0000 0.00490  0.20840  0.70030  Biso   1.000  N
  Sr4      1.0000 0.74772  0.09915  0.69784  Biso   1.000  Sr
