data_image0
_cell_length_a       7.877
_cell_length_b       15.693
_cell_length_c       11.2
_cell_angle_alpha    90
_cell_angle_beta     91.77
_cell_angle_gamma    90

_symmetry_space_group_name_H-M    "P 1"
_symmetry_int_tables_number       1

loop_
  _symmetry_equiv_pos_as_xyz
  'x, y, z'

loop_
  _atom_site_label
  _atom_site_occupancy
  _atom_site_fract_x
  _atom_site_fract_y
  _atom_site_fract_z
  _atom_site_thermal_displace_type
  _atom_site_B_iso_or_equiv
  _atom_site_type_symbol
  C1       1.0000 0.60170  0.24175  0.19930  Biso   1.000  C
  C2       1.0000 0.75790  0.15132  0.36940  Biso   1.000  C
  C3       1.0000 0.55200  0.07570  0.20550  Biso   1.000  C
  C4       1.0000 0.74200  0.14054  0.03040  Biso   1.000  C
  C5       1.0000 0.94040  0.21920  0.19780  Biso   1.000  C
  C6       1.0000 0.60300  0.55035  0.29910  Biso   1.000  C
  Co1      1.0000 0.74849  0.14579  0.19996  Biso   1.000  Co
  N1       1.0000 0.50830  0.29750  0.20420  Biso   1.000  N
  N2       1.0000 0.76210  0.15672  0.47140  Biso   1.000  N
  N3       1.0000 0.05740  0.26242  0.19720  Biso   1.000  N
  N4       1.0000 0.74400  0.13645  0.92850  Biso   1.000  N
  N5       1.0000 0.42880  0.03646  0.21170  Biso   1.000  N
  N6       1.0000 0.50870  0.49461  0.30290  Biso   1.000  N
  Sr1      1.0000 0.24904  0.40452  0.19587  Biso   1.000  Sr
  C7       1.0000 0.89830  0.74175  0.30070  Biso   1.000  C
  C8       1.0000 0.74210  0.65132  0.13060  Biso   1.000  C
  C9       1.0000 0.94800  0.57570  0.29450  Biso   1.000  C
  C10      1.0000 0.75800  0.64054  0.46960  Biso   1.000  C
  C11      1.0000 0.55960  0.71920  0.30220  Biso   1.000  C
  C12      1.0000 0.89700  0.05035  0.20090  Biso   1.000  C
  Co2      1.0000 0.75151  0.64579  0.30004  Biso   1.000  Co
  N7       1.0000 0.99170  0.79750  0.29580  Biso   1.000  N
  N8       1.0000 0.73790  0.65672  0.02860  Biso   1.000  N
  N9       1.0000 0.44260  0.76242  0.30280  Biso   1.000  N
  N10      1.0000 0.75600  0.63645  0.57150  Biso   1.000  N
  N11      1.0000 0.07120  0.53646  0.28830  Biso   1.000  N
  N12      1.0000 0.99130  0.99461  0.19710  Biso   1.000  N
  Sr2      1.0000 0.25096  0.90452  0.30413  Biso   1.000  Sr
  C13      1.0000 0.39830  0.75825  0.80070  Biso   1.000  C
  C14      1.0000 0.24210  0.84868  0.63060  Biso   1.000  C
  C15      1.0000 0.44800  0.92430  0.79450  Biso   1.000  C
  C16      1.0000 0.25800  0.85946  0.96960  Biso   1.000  C
  C17      1.0000 0.05960  0.78080  0.80220  Biso   1.000  C
  C18      1.0000 0.39700  0.44965  0.70090  Biso   1.000  C
  Co3      1.0000 0.25151  0.85421  0.80004  Biso   1.000  Co
  N13      1.0000 0.49170  0.70250  0.79580  Biso   1.000  N
  N14      1.0000 0.23790  0.84328  0.52860  Biso   1.000  N
  N15      1.0000 0.94260  0.73758  0.80280  Biso   1.000  N
  N16      1.0000 0.25600  0.86355  0.07150  Biso   1.000  N
  N17      1.0000 0.57120  0.96354  0.78830  Biso   1.000  N
  N18      1.0000 0.49130  0.50539  0.69710  Biso   1.000  N
  Sr3      1.0000 0.75096  0.59548  0.80413  Biso   1.000  Sr
  C19      1.0000 0.10170  0.25825  0.69930  Biso   1.000  C
  C20      1.0000 0.25790  0.34868  0.86940  Biso   1.000  C
  C21      1.0000 0.05200  0.42430  0.70550  Biso   1.000  C
  C22      1.0000 0.24200  0.35946  0.53040  Biso   1.000  C
  C23      1.0000 0.44040  0.28080  0.69780  Biso   1.000  C
  C24      1.0000 0.10300  0.94965  0.79910  Biso   1.000  C
  Co4      1.0000 0.24849  0.35421  0.69996  Biso   1.000  Co
  N19      1.0000 0.00830  0.20250  0.70420  Biso   1.000  N
  N20      1.0000 0.26210  0.34328  0.97140  Biso   1.000  N
  N21      1.0000 0.55740  0.23758  0.69720  Biso   1.000  N
  N22      1.0000 0.24400  0.36355  0.42850  Biso   1.000  N
  N23      1.0000 0.92880  0.46354  0.71170  Biso   1.000  N
  N24      1.0000 0.00870  0.00539  0.80290  Biso   1.000  N
  Sr4      1.0000 0.74904  0.09548  0.69587  Biso   1.000  Sr
