data_image0
_cell_length_a       6.799
_cell_length_b       16.946
_cell_length_c       12.749
_cell_angle_alpha    90
_cell_angle_beta     90
_cell_angle_gamma    90

_symmetry_space_group_name_H-M    "P 1"
_symmetry_int_tables_number       1

loop_
  _symmetry_equiv_pos_as_xyz
  'x, y, z'

loop_
  _atom_site_label
  _atom_site_occupancy
  _atom_site_fract_x
  _atom_site_fract_y
  _atom_site_fract_z
  _atom_site_thermal_displace_type
  _atom_site_B_iso_or_equiv
  _atom_site_type_symbol
  O1       1.0000 0.15600  0.83300  0.15800  Biso   1.000  O
  C1       1.0000 0.80400  0.96400  0.02600  Biso   1.000  C
  O2       1.0000 0.65600  0.33300  0.65800  Biso   1.000  O
  C2       1.0000 0.30400  0.46400  0.52600  Biso   1.000  C
  O3       1.0000 0.84400  0.66700  0.15800  Biso   1.000  O
  C3       1.0000 0.19600  0.53600  0.02600  Biso   1.000  C
  O4       1.0000 0.34400  0.16700  0.65800  Biso   1.000  O
  C4       1.0000 0.69600  0.03600  0.52600  Biso   1.000  C
  O5       1.0000 0.84400  0.33300  0.84200  Biso   1.000  O
  C5       1.0000 0.19600  0.46400  0.97400  Biso   1.000  C
  O6       1.0000 0.34400  0.83300  0.34200  Biso   1.000  O
  C6       1.0000 0.69600  0.96400  0.47400  Biso   1.000  C
  O7       1.0000 0.15600  0.16700  0.84200  Biso   1.000  O
  C7       1.0000 0.80400  0.03600  0.97400  Biso   1.000  C
  O8       1.0000 0.65600  0.66700  0.34200  Biso   1.000  O
  C8       1.0000 0.30400  0.53600  0.47400  Biso   1.000  C
  O9       1.0000 0.84400  0.16700  0.84200  Biso   1.000  O
  C9       1.0000 0.19600  0.03600  0.97400  Biso   1.000  C
  O10      1.0000 0.34400  0.66700  0.34200  Biso   1.000  O
  C10      1.0000 0.69600  0.53600  0.47400  Biso   1.000  C
  O11      1.0000 0.15600  0.33300  0.84200  Biso   1.000  O
  C11      1.0000 0.80400  0.46400  0.97400  Biso   1.000  C
  O12      1.0000 0.65600  0.83300  0.34200  Biso   1.000  O
  C12      1.0000 0.30400  0.96400  0.47400  Biso   1.000  C
  O13      1.0000 0.15600  0.66700  0.15800  Biso   1.000  O
  C13      1.0000 0.80400  0.53600  0.02600  Biso   1.000  C
  O14      1.0000 0.65600  0.16700  0.65800  Biso   1.000  O
  C14      1.0000 0.30400  0.03600  0.52600  Biso   1.000  C
  O15      1.0000 0.84400  0.83300  0.15800  Biso   1.000  O
  C15      1.0000 0.19600  0.96400  0.02600  Biso   1.000  C
  O16      1.0000 0.34400  0.33300  0.65800  Biso   1.000  O
  C16      1.0000 0.69600  0.46400  0.52600  Biso   1.000  C
  V1       1.0000 0.25000  0.75000  0.25000  Biso   1.000  V
  V2       1.0000 0.75000  0.75000  0.25000  Biso   1.000  V
  V3       1.0000 0.75000  0.25000  0.75000  Biso   1.000  V
  V4       1.0000 0.25000  0.25000  0.75000  Biso   1.000  V
  O17      1.0000 0.00000  0.75000  0.30700  Biso   1.000  O
  O18      1.0000 0.50000  0.25000  0.80700  Biso   1.000  O
  O19      1.0000 0.00000  0.25000  0.69300  Biso   1.000  O
  O20      1.0000 0.50000  0.75000  0.19300  Biso   1.000  O
  C17      1.0000 0.00000  0.94000  0.04300  Biso   1.000  C
  C18      1.0000 0.00000  0.87100  0.11700  Biso   1.000  C
  C19      1.0000 0.50000  0.44000  0.54300  Biso   1.000  C
  C20      1.0000 0.50000  0.37100  0.61700  Biso   1.000  C
  C21      1.0000 0.00000  0.56000  0.04300  Biso   1.000  C
  C22      1.0000 0.00000  0.62900  0.11700  Biso   1.000  C
  C23      1.0000 0.50000  0.06000  0.54300  Biso   1.000  C
  C24      1.0000 0.50000  0.12900  0.61700  Biso   1.000  C
  C25      1.0000 0.00000  0.44000  0.95700  Biso   1.000  C
  C26      1.0000 0.00000  0.37100  0.88300  Biso   1.000  C
  C27      1.0000 0.50000  0.94000  0.45700  Biso   1.000  C
  C28      1.0000 0.50000  0.87100  0.38300  Biso   1.000  C
  C29      1.0000 0.00000  0.06000  0.95700  Biso   1.000  C
  C30      1.0000 0.00000  0.12900  0.88300  Biso   1.000  C
  C31      1.0000 0.50000  0.56000  0.45700  Biso   1.000  C
  C32      1.0000 0.50000  0.62900  0.38300  Biso   1.000  C
