data_WAYMEQ_clean_h
_audit_creation_date              2015-05-20
_audit_creation_method            'Materials Studio'
_symmetry_space_group_name_H-M    'P1'
_symmetry_Int_Tables_number       1
_symmetry_cell_setting            triclinic
loop_
_symmetry_equiv_pos_as_xyz
  x,y,z
_cell_length_a                    16.7807
_cell_length_b                    6.6125
_cell_length_c                    12.7143
_cell_angle_alpha                 90.0000
_cell_angle_beta                  90.0000
_cell_angle_gamma                 90.0000
loop_
_atom_site_label
_atom_site_type_symbol
_atom_site_fract_x
_atom_site_fract_y
_atom_site_fract_z
_atom_site_U_iso_or_equiv
_atom_site_adp_type
_atom_site_occupancy
C1     C     0.29530   0.19800   0.98650   0.01267  Uiso   1.00
C2     C     0.21810   0.19820   0.04760   0.01267  Uiso   1.00
O3     O     0.42380   0.84860   0.84780   0.01267  Uiso   1.00
O4     O     0.58820   0.33770   0.66520   0.01267  Uiso   1.00
H5     H     0.32449   0.34723   0.96344   0.01267  Uiso   1.00
H6     H     0.18901   0.34758   0.07062   0.01267  Uiso   1.00
H7     H     0.50000   0.50000   0.88655   0.01267  Uiso   1.00
H8     H     0.50000   0.00000   0.61405   0.01267  Uiso   1.00
C9     C     0.79530   0.69800   0.48650   0.01267  Uiso   1.00
C10    C     0.71810   0.69820   0.54760   0.01267  Uiso   1.00
O11    O     0.92380   0.34860   0.34780   0.01267  Uiso   1.00
O12    O     0.08820   0.83770   0.16520   0.01267  Uiso   1.00
H13    H     0.82449   0.84723   0.46344   0.01267  Uiso   1.00
H14    H     0.68901   0.84758   0.57062   0.01267  Uiso   1.00
H15    H     0.00000   0.00000   0.38655   0.01267  Uiso   1.00
H16    H     0.00000   0.50000   0.11405   0.01267  Uiso   1.00
C17    C     0.70470   0.80200   0.98650   0.01267  Uiso   1.00
C18    C     0.78190   0.80180   0.04760   0.01267  Uiso   1.00
O19    O     0.57620   0.15140   0.84780   0.01267  Uiso   1.00
O20    O     0.41180   0.66230   0.66520   0.01267  Uiso   1.00
H21    H     0.67551   0.65277   0.96344   0.01267  Uiso   1.00
H22    H     0.81099   0.65242   0.07062   0.01267  Uiso   1.00
C25    C     0.20470   0.30200   0.48650   0.01267  Uiso   1.00
C26    C     0.28190   0.30180   0.54760   0.01267  Uiso   1.00
O27    O     0.07620   0.65140   0.34780   0.01267  Uiso   1.00
O28    O     0.91180   0.16230   0.16520   0.01267  Uiso   1.00
H29    H     0.17551   0.15277   0.46344   0.01267  Uiso   1.00
H30    H     0.31099   0.15242   0.57062   0.01267  Uiso   1.00
C33    C     0.29530   0.80200   0.98650   0.01267  Uiso   1.00
C34    C     0.21810   0.80180   0.04760   0.01267  Uiso   1.00
O35    O     0.42380   0.15140   0.84780   0.01267  Uiso   1.00
O36    O     0.58820   0.66230   0.66520   0.01267  Uiso   1.00
H37    H     0.32449   0.65277   0.96344   0.01267  Uiso   1.00
H38    H     0.18901   0.65242   0.07062   0.01267  Uiso   1.00
C41    C     0.79530   0.30200   0.48650   0.01267  Uiso   1.00
C42    C     0.71810   0.30180   0.54760   0.01267  Uiso   1.00
O43    O     0.92380   0.65140   0.34780   0.01267  Uiso   1.00
O44    O     0.08820   0.16230   0.16520   0.01267  Uiso   1.00
H45    H     0.82449   0.15277   0.46344   0.01267  Uiso   1.00
H46    H     0.68901   0.15242   0.57062   0.01267  Uiso   1.00
C49    C     0.70470   0.19800   0.98650   0.01267  Uiso   1.00
C50    C     0.78190   0.19820   0.04760   0.01267  Uiso   1.00
O51    O     0.57620   0.84860   0.84780   0.01267  Uiso   1.00
O52    O     0.41180   0.33770   0.66520   0.01267  Uiso   1.00
H53    H     0.67551   0.34723   0.96344   0.01267  Uiso   1.00
H54    H     0.81099   0.34758   0.07062   0.01267  Uiso   1.00
C57    C     0.20470   0.69800   0.48650   0.01267  Uiso   1.00
C58    C     0.28190   0.69820   0.54760   0.01267  Uiso   1.00
O59    O     0.07620   0.34860   0.34780   0.01267  Uiso   1.00
O60    O     0.91180   0.83770   0.16520   0.01267  Uiso   1.00
H61    H     0.17551   0.84723   0.46344   0.01267  Uiso   1.00
H62    H     0.31099   0.84758   0.57062   0.01267  Uiso   1.00
Al65   Al    0.50000   0.75000   0.75000   0.01267  Uiso   1.00
Al66   Al   -0.00000   0.25000   0.25000   0.01267  Uiso   1.00
Al67   Al    0.50000   0.25000   0.75000   0.01267  Uiso   1.00
Al68   Al   -0.00000   0.75000   0.25000   0.01267  Uiso   1.00
C69    C     0.19460   0.00000   0.06620   0.01267  Uiso   1.00
C70    C     0.31860  -0.00000   0.96800   0.01267  Uiso   1.00
C71    C     0.38600  -0.00000   0.89180   0.01267  Uiso   1.00
C72    C     0.69460   0.50000   0.56620   0.01267  Uiso   1.00
C73    C     0.81860   0.50000   0.46800   0.01267  Uiso   1.00
C74    C     0.88600   0.50000   0.39180   0.01267  Uiso   1.00
C75    C     0.80540  -0.00000   0.06620   0.01267  Uiso   1.00
C76    C     0.68140  -0.00000   0.96800   0.01267  Uiso   1.00
C77    C     0.61400  -0.00000   0.89180   0.01267  Uiso   1.00
C78    C     0.30540   0.50000   0.56620   0.01267  Uiso   1.00
C79    C     0.18140   0.50000   0.46800   0.01267  Uiso   1.00
C80    C     0.11400   0.50000   0.39180   0.01267  Uiso   1.00
C81    C     0.62110   0.50000   0.63120   0.01267  Uiso   1.00
C82    C     0.12110   0.00000   0.13120   0.01267  Uiso   1.00
C83    C     0.37890   0.50000   0.63120   0.01267  Uiso   1.00
C84    C     0.87890   0.00000   0.13120   0.01267  Uiso   1.00
O85    O     0.50000   0.50000   0.80790   0.01267  Uiso   1.00
O86    O     0.00000  -0.00000   0.30790   0.01267  Uiso   1.00
O87    O     0.50000  -0.00000   0.69270   0.01267  Uiso   1.00
O88    O     0.00000   0.50000   0.19270   0.01267  Uiso   1.00
