data_image0
_cell_length_a       7.2094
_cell_length_b       22.652
_cell_length_c       10.6553
_cell_angle_alpha    90
_cell_angle_beta     90.554
_cell_angle_gamma    90

_symmetry_space_group_name_H-M    "P 1"
_symmetry_int_tables_number       1

loop_
  _symmetry_equiv_pos_as_xyz
  'x, y, z'

loop_
  _atom_site_label
  _atom_site_occupancy
  _atom_site_fract_x
  _atom_site_fract_y
  _atom_site_fract_z
  _atom_site_thermal_displace_type
  _atom_site_B_iso_or_equiv
  _atom_site_type_symbol
  Sm1      1.0000 0.26141  0.25076  0.85258  Biso   1.000  Sm
  Sb1      1.0000 0.45956  0.98823  0.12384  Biso   1.000  Sb
  Sb2      1.0000 0.56900  0.48338  0.60413  Biso   1.000  Sb
  N1       1.0000 0.19890  0.04779  0.12010  Biso   1.000  N
  N2       1.0000 0.22100  0.92110  0.15420  Biso   1.000  N
  N3       1.0000 0.80520  0.41621  0.63690  Biso   1.000  N
  N4       1.0000 0.83160  0.54247  0.60270  Biso   1.000  N
  O1       1.0000 0.38160  0.00311  0.32110  Biso   1.000  O
  O2       1.0000 0.26450  0.06937  0.45300  Biso   1.000  O
  O3       1.0000 0.52330  0.08573  0.02170  Biso   1.000  O
  O4       1.0000 0.38800  0.16009  0.92060  Biso   1.000  O
  O5       1.0000 0.57650  0.88709  0.18180  Biso   1.000  O
  O6       1.0000 0.50320  0.80759  0.29450  Biso   1.000  O
  O7       1.0000 0.35710  0.97058  0.94060  Biso   1.000  O
  O8       1.0000 0.20480  0.90840  0.81390  Biso   1.000  O
  O9       1.0000 0.44970  0.38274  0.66260  Biso   1.000  O
  O10      1.0000 0.51940  0.30662  0.78720  Biso   1.000  O
  O11      1.0000 0.67340  0.46581  0.42130  Biso   1.000  O
  O12      1.0000 0.82180  0.40410  0.29640  Biso   1.000  O
  O13      1.0000 0.64690  0.50063  0.80240  Biso   1.000  O
  O14      1.0000 0.76420  0.56742  0.93240  Biso   1.000  O
  O15      1.0000 0.50720  0.57926  0.50250  Biso   1.000  O
  O16      1.0000 0.63770  0.65490  0.40240  Biso   1.000  O
  C1       1.0000 0.21030  0.08470  0.23620  Biso   1.000  C
  H1       1.0000 0.28970  0.11950  0.21980  Biso   1.000  H
  H2       1.0000 0.08470  0.09920  0.25670  Biso   1.000  H
  C2       1.0000 0.28850  0.05120  0.34800  Biso   1.000  C
  C3       1.0000 0.19430  0.08730  0.00880  Biso   1.000  C
  H3       1.0000 0.15140  0.06460  0.93470  Biso   1.000  H
  H4       1.0000 0.10430  0.11950  0.02340  Biso   1.000  H
  C4       1.0000 0.38180  0.11360  0.98220  Biso   1.000  C
  C5       1.0000 0.03090  0.00920  0.11700  Biso   1.000  C
  H5       1.0000 0.00460  0.99750  0.02910  Biso   1.000  H
  H6       1.0000 0.92330  0.03210  0.14730  Biso   1.000  H
  C6       1.0000 0.05120  0.95530  0.19430  Biso   1.000  C
  H7       1.0000 0.06340  0.96630  0.28390  Biso   1.000  H
  H8       1.0000 0.93950  0.93030  0.18430  Biso   1.000  H
  C7       1.0000 0.26830  0.87750  0.25310  Biso   1.000  C
  H9       1.0000 0.25440  0.89610  0.33660  Biso   1.000  H
  H10      1.0000 0.18100  0.84380  0.24790  Biso   1.000  H
  C8       1.0000 0.46290  0.85520  0.23980  Biso   1.000  C
  C9       1.0000 0.19240  0.88960  0.03230  Biso   1.000  C
  H11      1.0000 0.26320  0.85220  0.03450  Biso   1.000  H
  H12      1.0000 0.05940  0.87960  0.02310  Biso   1.000  H
  C10      1.0000 0.25140  0.92480  0.91860  Biso   1.000  C
  C11      1.0000 0.75900  0.37270  0.73570  Biso   1.000  C
  H13      1.0000 0.78090  0.39080  0.81910  Biso   1.000  H
  H14      1.0000 0.84220  0.33820  0.72830  Biso   1.000  H
  C12      1.0000 0.56050  0.35230  0.72640  Biso   1.000  C
  C13      1.0000 0.83250  0.38460  0.51500  Biso   1.000  C
  H15      1.0000 0.76030  0.34740  0.51610  Biso   1.000  H
  H16      1.0000 0.96520  0.37400  0.50720  Biso   1.000  H
  C14      1.0000 0.77460  0.42020  0.40190  Biso   1.000  C
  C15      1.0000 0.97630  0.44890  0.67680  Biso   1.000  C
  H17      1.0000 0.08620  0.42320  0.66650  Biso   1.000  H
  H18      1.0000 0.96750  0.45960  0.76660  Biso   1.000  H
  C16      1.0000 0.99910  0.50480  0.59800  Biso   1.000  C
  H19      1.0000 0.10740  0.52740  0.62960  Biso   1.000  H
  H20      1.0000 0.02340  0.49360  0.50980  Biso   1.000  H
  C17      1.0000 0.82350  0.58010  0.71800  Biso   1.000  C
  H21      1.0000 0.74670  0.61540  0.70010  Biso   1.000  H
  H22      1.0000 0.95030  0.59370  0.73990  Biso   1.000  H
  C18      1.0000 0.74340  0.54740  0.82830  Biso   1.000  C
  C19      1.0000 0.83600  0.58180  0.49170  Biso   1.000  C
  H23      1.0000 0.87810  0.55910  0.41790  Biso   1.000  H
  H24      1.0000 0.92610  0.61400  0.50700  Biso   1.000  H
  C20      1.0000 0.64780  0.60800  0.46380  Biso   1.000  C
  Sm2      1.0000 0.76141  0.74924  0.35258  Biso   1.000  Sm
  Sb3      1.0000 0.95956  0.01177  0.62384  Biso   1.000  Sb
  Sb4      1.0000 0.06900  0.51662  0.10413  Biso   1.000  Sb
  N5       1.0000 0.69890  0.95221  0.62010  Biso   1.000  N
  N6       1.0000 0.72100  0.07890  0.65420  Biso   1.000  N
  N7       1.0000 0.30520  0.58379  0.13690  Biso   1.000  N
  N8       1.0000 0.33160  0.45753  0.10270  Biso   1.000  N
  O17      1.0000 0.88160  0.99689  0.82110  Biso   1.000  O
  O18      1.0000 0.76450  0.93063  0.95300  Biso   1.000  O
  O19      1.0000 0.02330  0.91427  0.52170  Biso   1.000  O
  O20      1.0000 0.88800  0.83991  0.42060  Biso   1.000  O
  O21      1.0000 0.07650  0.11291  0.68180  Biso   1.000  O
  O22      1.0000 0.00320  0.19241  0.79450  Biso   1.000  O
  O23      1.0000 0.85710  0.02942  0.44060  Biso   1.000  O
  O24      1.0000 0.70480  0.09160  0.31390  Biso   1.000  O
  O25      1.0000 0.94970  0.61726  0.16260  Biso   1.000  O
  O26      1.0000 0.01940  0.69338  0.28720  Biso   1.000  O
  O27      1.0000 0.17340  0.53419  0.92130  Biso   1.000  O
  O28      1.0000 0.32180  0.59590  0.79640  Biso   1.000  O
  O29      1.0000 0.14690  0.49937  0.30240  Biso   1.000  O
  O30      1.0000 0.26420  0.43258  0.43240  Biso   1.000  O
  O31      1.0000 0.00720  0.42074  0.00250  Biso   1.000  O
  O32      1.0000 0.13770  0.34510  0.90240  Biso   1.000  O
  C21      1.0000 0.71030  0.91530  0.73620  Biso   1.000  C
  H25      1.0000 0.78970  0.88050  0.71980  Biso   1.000  H
  H26      1.0000 0.58470  0.90080  0.75670  Biso   1.000  H
  C22      1.0000 0.78850  0.94880  0.84800  Biso   1.000  C
  C23      1.0000 0.69430  0.91270  0.50880  Biso   1.000  C
  H27      1.0000 0.65140  0.93540  0.43470  Biso   1.000  H
  H28      1.0000 0.60430  0.88050  0.52340  Biso   1.000  H
  C24      1.0000 0.88180  0.88640  0.48220  Biso   1.000  C
  C25      1.0000 0.53090  0.99080  0.61700  Biso   1.000  C
  H29      1.0000 0.50460  0.00250  0.52910  Biso   1.000  H
  H30      1.0000 0.42330  0.96790  0.64730  Biso   1.000  H
  C26      1.0000 0.55120  0.04470  0.69430  Biso   1.000  C
  H31      1.0000 0.56340  0.03370  0.78390  Biso   1.000  H
  H32      1.0000 0.43950  0.06970  0.68430  Biso   1.000  H
  C27      1.0000 0.76830  0.12250  0.75310  Biso   1.000  C
  H33      1.0000 0.75440  0.10390  0.83660  Biso   1.000  H
  H34      1.0000 0.68100  0.15620  0.74790  Biso   1.000  H
  C28      1.0000 0.96290  0.14480  0.73980  Biso   1.000  C
  C29      1.0000 0.69240  0.11040  0.53230  Biso   1.000  C
  H35      1.0000 0.76320  0.14780  0.53450  Biso   1.000  H
  H36      1.0000 0.55940  0.12040  0.52310  Biso   1.000  H
  C30      1.0000 0.75140  0.07520  0.41860  Biso   1.000  C
  C31      1.0000 0.25900  0.62730  0.23570  Biso   1.000  C
  H37      1.0000 0.28090  0.60920  0.31910  Biso   1.000  H
  H38      1.0000 0.34220  0.66180  0.22830  Biso   1.000  H
  C32      1.0000 0.06050  0.64770  0.22640  Biso   1.000  C
  C33      1.0000 0.33250  0.61540  0.01500  Biso   1.000  C
  H39      1.0000 0.26030  0.65260  0.01610  Biso   1.000  H
  H40      1.0000 0.46520  0.62600  0.00720  Biso   1.000  H
  C34      1.0000 0.27460  0.57980  0.90190  Biso   1.000  C
  C35      1.0000 0.47630  0.55110  0.17680  Biso   1.000  C
  H41      1.0000 0.58620  0.57680  0.16650  Biso   1.000  H
  H42      1.0000 0.46750  0.54040  0.26660  Biso   1.000  H
  C36      1.0000 0.49910  0.49520  0.09800  Biso   1.000  C
  H43      1.0000 0.60740  0.47260  0.12960  Biso   1.000  H
  H44      1.0000 0.52340  0.50640  0.00980  Biso   1.000  H
  C37      1.0000 0.32350  0.41990  0.21800  Biso   1.000  C
  H45      1.0000 0.24670  0.38460  0.20010  Biso   1.000  H
  H46      1.0000 0.45030  0.40630  0.23990  Biso   1.000  H
  C38      1.0000 0.24340  0.45260  0.32830  Biso   1.000  C
  C39      1.0000 0.33600  0.41820  0.99170  Biso   1.000  C
  H47      1.0000 0.37810  0.44090  0.91790  Biso   1.000  H
  H48      1.0000 0.42610  0.38600  0.00700  Biso   1.000  H
  C40      1.0000 0.14780  0.39200  0.96380  Biso   1.000  C
