data_image0
_cell_length_a       49.59
_cell_length_b       49.59
_cell_length_c       9.9168
_cell_angle_alpha    90
_cell_angle_beta     90
_cell_angle_gamma    120

_symmetry_space_group_name_H-M    "P 1"
_symmetry_int_tables_number       1

loop_
  _symmetry_equiv_pos_as_xyz
  'x, y, z'

loop_
  _atom_site_label
  _atom_site_occupancy
  _atom_site_fract_x
  _atom_site_fract_y
  _atom_site_fract_z
  _atom_site_thermal_displace_type
  _atom_site_B_iso_or_equiv
  _atom_site_type_symbol
  In1      1.0000 0.20666  0.79351  0.49976  Biso   1.000  In
  In2      1.0000 0.16499  0.58257  0.50060  Biso   1.000  In
  Ni1      1.0000 0.06598  0.82059  0.17760  Biso   1.000  Ni
  Ni2      1.0000 0.06543  0.82072  0.82260  Biso   1.000  Ni
  O1       1.0000 0.18720  0.81550  0.63890  Biso   1.000  O
  O2       1.0000 0.21090  0.79070  0.75160  Biso   1.000  O
  O3       1.0000 0.20980  0.78990  0.25410  Biso   1.000  O
  O4       1.0000 0.15510  0.57620  0.72500  Biso   1.000  O
  O5       1.0000 0.18610  0.81430  0.36080  Biso   1.000  O
  O6       1.0000 0.12270  0.58760  0.49810  Biso   1.000  O
  O7       1.0000 0.41170  0.87770  0.49450  Biso   1.000  O
  O8       1.0000 0.19700  0.74390  0.49670  Biso   1.000  O
  O9       1.0000 0.24550  0.84480  0.50100  Biso   1.000  O
  O10      1.0000 0.15580  0.75530  0.49760  Biso   1.000  O
  O11      1.0000 0.25690  0.80510  0.49860  Biso   1.000  O
  O12      1.0000 0.37780  0.96630  0.49580  Biso   1.000  O
  O13      1.0000 0.36830  0.83290  0.49830  Biso   1.000  O
  O14      1.0000 0.33210  0.94880  0.50770  Biso   1.000  O
  O15      1.0000 0.21160  0.60450  0.66100  Biso   1.000  O
  O16      1.0000 0.05940  0.83560  0.01100  Biso   1.000  O
  O17      1.0000 0.10490  0.82430  0.90800  Biso   1.000  O
  O18      1.0000 0.10500  0.82450  0.08700  Biso   1.000  O
  C1       1.0000 0.18800  0.59300  0.72000  Biso   1.000  C
  C2       1.0000 0.13520  0.64760  0.50100  Biso   1.000  C
  C3       1.0000 0.34120  0.90830  0.49600  Biso   1.000  C
  C4       1.0000 0.14460  0.69980  0.49900  Biso   1.000  C
  C5       1.0000 0.19750  0.80040  0.25500  Biso   1.000  C
  C6       1.0000 0.19690  0.80180  0.74200  Biso   1.000  C
  C7       1.0000 0.30060  0.85630  0.49900  Biso   1.000  C
  C8       1.0000 0.09070  0.65710  0.50100  Biso   1.000  C
  C9       1.0000 0.35990  0.89440  0.50400  Biso   1.000  C
  C10      1.0000 0.35420  0.86450  0.50200  Biso   1.000  C
  C11      1.0000 0.10240  0.63780  0.49900  Biso   1.000  C
  C12      1.0000 0.35410  0.94590  0.49760  Biso   1.000  C
  C13      1.0000 0.32410  0.84420  0.50350  Biso   1.000  C
  C14      1.0000 0.15610  0.67800  0.49820  Biso   1.000  C
  C15      1.0000 0.12790  0.61260  0.49500  Biso   1.000  C
  C16      1.0000 0.16900  0.73450  0.49900  Biso   1.000  C
  C17      1.0000 0.38660  0.87130  0.49800  Biso   1.000  C
  C18      1.0000 0.26420  0.83210  0.49760  Biso   1.000  C
  C19      1.0000 0.31330  0.88970  0.49400  Biso   1.000  C
  C20      1.0000 0.11150  0.68610  0.50200  Biso   1.000  C
  C21      1.0000 0.19390  0.80680  0.99600  Biso   1.000  C
  C22      1.0000 0.18850  0.81670  0.86700  Biso   1.000  C
  C23      1.0000 0.18670  0.81400  0.12800  Biso   1.000  C
  C24      1.0000 0.15500  0.80740  0.10900  Biso   1.000  C
  C25      1.0000 0.19020  0.84460  0.11400  Biso   1.000  C
  C26      1.0000 0.15790  0.81380  0.87300  Biso   1.000  C
  C27      1.0000 0.19040  0.84680  0.87800  Biso   1.000  C
  C28      1.0000 0.12640  0.83380  0.99100  Biso   1.000  C
  C29      1.0000 0.14620  0.82000  0.99600  Biso   1.000  C
  C30      1.0000 0.18500  0.85970  0.00000  Biso   1.000  C
  In3      1.0000 0.20649  0.41315  0.49976  Biso   1.000  In
  In4      1.0000 0.41743  0.58242  0.50060  Biso   1.000  In
  Ni3      1.0000 0.17941  0.24539  0.17760  Biso   1.000  Ni
  Ni4      1.0000 0.17928  0.24471  0.82260  Biso   1.000  Ni
  O19      1.0000 0.18450  0.37170  0.63890  Biso   1.000  O
  O20      1.0000 0.20930  0.42020  0.75160  Biso   1.000  O
  O21      1.0000 0.21010  0.41990  0.25410  Biso   1.000  O
  O22      1.0000 0.42380  0.57890  0.72500  Biso   1.000  O
  O23      1.0000 0.18570  0.37180  0.36080  Biso   1.000  O
  O24      1.0000 0.41240  0.53510  0.49810  Biso   1.000  O
  O25      1.0000 0.12230  0.53400  0.49450  Biso   1.000  O
  O26      1.0000 0.25610  0.45310  0.49670  Biso   1.000  O
  O27      1.0000 0.15520  0.40070  0.50100  Biso   1.000  O
  O28      1.0000 0.24470  0.40050  0.49760  Biso   1.000  O
  O29      1.0000 0.19490  0.45180  0.49860  Biso   1.000  O
  O30      1.0000 0.03370  0.41150  0.49580  Biso   1.000  O
  O31      1.0000 0.16710  0.53540  0.49830  Biso   1.000  O
  O32      1.0000 0.05120  0.38330  0.50770  Biso   1.000  O
  O33      1.0000 0.39550  0.60710  0.66100  Biso   1.000  O
  O34      1.0000 0.16440  0.22380  0.01100  Biso   1.000  O
  O35      1.0000 0.17570  0.28060  0.90800  Biso   1.000  O
  O36      1.0000 0.17550  0.28050  0.08700  Biso   1.000  O
  C31      1.0000 0.40700  0.59500  0.72000  Biso   1.000  C
  C32      1.0000 0.35240  0.48760  0.50100  Biso   1.000  C
  C33      1.0000 0.09170  0.43290  0.49600  Biso   1.000  C
  C34      1.0000 0.30020  0.44480  0.49900  Biso   1.000  C
  C35      1.0000 0.19960  0.39710  0.25500  Biso   1.000  C
  C36      1.0000 0.19820  0.39510  0.74200  Biso   1.000  C
  C37      1.0000 0.14370  0.44430  0.49900  Biso   1.000  C
  C38      1.0000 0.34290  0.43360  0.50100  Biso   1.000  C
  C39      1.0000 0.10560  0.46550  0.50400  Biso   1.000  C
  C40      1.0000 0.13550  0.48970  0.50200  Biso   1.000  C
  C41      1.0000 0.36220  0.46460  0.49900  Biso   1.000  C
  C42      1.0000 0.05410  0.40820  0.49760  Biso   1.000  C
  C43      1.0000 0.15580  0.47990  0.50350  Biso   1.000  C
  C44      1.0000 0.32200  0.47810  0.49820  Biso   1.000  C
  C45      1.0000 0.38740  0.51530  0.49500  Biso   1.000  C
  C46      1.0000 0.26550  0.43450  0.49900  Biso   1.000  C
  C47      1.0000 0.12870  0.51530  0.49800  Biso   1.000  C
  C48      1.0000 0.16790  0.43210  0.49760  Biso   1.000  C
  C49      1.0000 0.11030  0.42360  0.49400  Biso   1.000  C
  C50      1.0000 0.31390  0.42540  0.50200  Biso   1.000  C
  C51      1.0000 0.19320  0.38710  0.99600  Biso   1.000  C
  C52      1.0000 0.18330  0.37180  0.86700  Biso   1.000  C
  C53      1.0000 0.18600  0.37270  0.12800  Biso   1.000  C
  C54      1.0000 0.19260  0.34760  0.10900  Biso   1.000  C
  C55      1.0000 0.15540  0.34560  0.11400  Biso   1.000  C
  C56      1.0000 0.18620  0.34410  0.87300  Biso   1.000  C
  C57      1.0000 0.15320  0.34360  0.87800  Biso   1.000  C
  C58      1.0000 0.16620  0.29260  0.99100  Biso   1.000  C
  C59      1.0000 0.18000  0.32620  0.99600  Biso   1.000  C
  C60      1.0000 0.14030  0.32530  0.00000  Biso   1.000  C
  In5      1.0000 0.58685  0.79334  0.49976  Biso   1.000  In
  In6      1.0000 0.41758  0.83501  0.50060  Biso   1.000  In
  Ni5      1.0000 0.75461  0.93402  0.17760  Biso   1.000  Ni
  Ni6      1.0000 0.75529  0.93457  0.82260  Biso   1.000  Ni
  O37      1.0000 0.62830  0.81280  0.63890  Biso   1.000  O
  O38      1.0000 0.57980  0.78910  0.75160  Biso   1.000  O
  O39      1.0000 0.58010  0.79020  0.25410  Biso   1.000  O
  O40      1.0000 0.42110  0.84490  0.72500  Biso   1.000  O
  O41      1.0000 0.62820  0.81390  0.36080  Biso   1.000  O
  O42      1.0000 0.46490  0.87730  0.49810  Biso   1.000  O
  O43      1.0000 0.46600  0.58830  0.49450  Biso   1.000  O
  O44      1.0000 0.54690  0.80300  0.49670  Biso   1.000  O
  O45      1.0000 0.59930  0.75450  0.50100  Biso   1.000  O
  O46      1.0000 0.59950  0.84420  0.49760  Biso   1.000  O
  O47      1.0000 0.54820  0.74310  0.49860  Biso   1.000  O
  O48      1.0000 0.58850  0.62220  0.49580  Biso   1.000  O
  O49      1.0000 0.46460  0.63170  0.49830  Biso   1.000  O
  O50      1.0000 0.61670  0.66790  0.50770  Biso   1.000  O
  O51      1.0000 0.39290  0.78840  0.66100  Biso   1.000  O
  O52      1.0000 0.77620  0.94060  0.01100  Biso   1.000  O
  O53      1.0000 0.71940  0.89510  0.90800  Biso   1.000  O
  O54      1.0000 0.71950  0.89500  0.08700  Biso   1.000  O
  C61      1.0000 0.40500  0.81200  0.72000  Biso   1.000  C
  C62      1.0000 0.51240  0.86480  0.50100  Biso   1.000  C
  C63      1.0000 0.56710  0.65880  0.49600  Biso   1.000  C
  C64      1.0000 0.55520  0.85540  0.49900  Biso   1.000  C
  C65      1.0000 0.60290  0.80250  0.25500  Biso   1.000  C
  C66      1.0000 0.60490  0.80310  0.74200  Biso   1.000  C
  C67      1.0000 0.55570  0.69940  0.49900  Biso   1.000  C
  C68      1.0000 0.56640  0.90930  0.50100  Biso   1.000  C
  C69      1.0000 0.53450  0.64010  0.50400  Biso   1.000  C
  C70      1.0000 0.51030  0.64580  0.50200  Biso   1.000  C
  C71      1.0000 0.53540  0.89760  0.49900  Biso   1.000  C
  C72      1.0000 0.59180  0.64590  0.49760  Biso   1.000  C
  C73      1.0000 0.52010  0.67590  0.50350  Biso   1.000  C
  C74      1.0000 0.52190  0.84390  0.49820  Biso   1.000  C
  C75      1.0000 0.48470  0.87210  0.49500  Biso   1.000  C
  C76      1.0000 0.56550  0.83100  0.49900  Biso   1.000  C
  C77      1.0000 0.48470  0.61340  0.49800  Biso   1.000  C
  C78      1.0000 0.56790  0.73580  0.49760  Biso   1.000  C
  C79      1.0000 0.57640  0.68670  0.49400  Biso   1.000  C
  C80      1.0000 0.57460  0.88850  0.50200  Biso   1.000  C
  C81      1.0000 0.61290  0.80610  0.99600  Biso   1.000  C
  C82      1.0000 0.62820  0.81150  0.86700  Biso   1.000  C
  C83      1.0000 0.62730  0.81330  0.12800  Biso   1.000  C
  C84      1.0000 0.65240  0.84500  0.10900  Biso   1.000  C
  C85      1.0000 0.65440  0.80980  0.11400  Biso   1.000  C
  C86      1.0000 0.65590  0.84210  0.87300  Biso   1.000  C
  C87      1.0000 0.65640  0.80960  0.87800  Biso   1.000  C
  C88      1.0000 0.70740  0.87360  0.99100  Biso   1.000  C
  C89      1.0000 0.67380  0.85380  0.99600  Biso   1.000  C
  C90      1.0000 0.67470  0.81500  0.00000  Biso   1.000  C
  In7      1.0000 0.99995  0.35912  0.49990  Biso   1.000  In
  O55      1.0000 0.00070  0.36630  0.73720  Biso   1.000  O
  O56      1.0000 0.99990  0.32440  0.64560  Biso   1.000  O
  O57      1.0000 0.00040  0.36500  0.26060  Biso   1.000  O
  O58      1.0000 0.96620  0.37920  0.50230  Biso   1.000  O
  O59      1.0000 0.94800  0.32960  0.50200  Biso   1.000  O
  O60      1.0000 0.99910  0.32300  0.35550  Biso   1.000  O
  O61      1.0000 0.96240  0.22720  0.90100  Biso   1.000  O
  O62      1.0000 0.96280  0.22830  0.09700  Biso   1.000  O
  O63      1.0000 0.03620  0.26410  0.09700  Biso   1.000  O
  O64      1.0000 0.03680  0.26390  0.90400  Biso   1.000  O
  C91      1.0000 0.99980  0.33980  0.74500  Biso   1.000  C
  C92      1.0000 0.94730  0.35260  0.50270  Biso   1.000  C
  C93      1.0000 0.99850  0.33880  0.25900  Biso   1.000  C
  C94      1.0000 0.99950  0.34240  0.00000  Biso   1.000  C
  C95      1.0000 0.02390  0.34140  0.90300  Biso   1.000  C
  C96      1.0000 0.99410  0.32400  0.89100  Biso   1.000  C
  C97      1.0000 0.01680  0.30610  0.86300  Biso   1.000  C
  C98      1.0000 0.98650  0.29070  0.87800  Biso   1.000  C
  C99      1.0000 0.02160  0.34310  0.09000  Biso   1.000  C
  C100     1.0000 0.99280  0.32580  0.10700  Biso   1.000  C
  C101     1.0000 0.98390  0.29130  0.12600  Biso   1.000  C
  C102     1.0000 0.01890  0.31020  0.12400  Biso   1.000  C
  C103     1.0000 0.03800  0.27980  0.00200  Biso   1.000  C
  C104     1.0000 0.95990  0.23710  0.98600  Biso   1.000  C
  C105     1.0000 0.03020  0.30540  0.99800  Biso   1.000  C
  C106     1.0000 0.96620  0.27180  0.00400  Biso   1.000  C
  In8      1.0000 0.64088  0.64083  0.49990  Biso   1.000  In
  O65      1.0000 0.63370  0.63440  0.73720  Biso   1.000  O
  O66      1.0000 0.67560  0.67550  0.64560  Biso   1.000  O
  O67      1.0000 0.63500  0.63540  0.26060  Biso   1.000  O
  O68      1.0000 0.62080  0.58700  0.50230  Biso   1.000  O
  O69      1.0000 0.67040  0.61840  0.50200  Biso   1.000  O
  O70      1.0000 0.67700  0.67610  0.35550  Biso   1.000  O
  O71      1.0000 0.77280  0.73520  0.90100  Biso   1.000  O
  O72      1.0000 0.77170  0.73450  0.09700  Biso   1.000  O
  O73      1.0000 0.73590  0.77210  0.09700  Biso   1.000  O
  O74      1.0000 0.73610  0.77290  0.90400  Biso   1.000  O
  C107     1.0000 0.66020  0.66000  0.74500  Biso   1.000  C
  C108     1.0000 0.64740  0.59470  0.50270  Biso   1.000  C
  C109     1.0000 0.66120  0.65970  0.25900  Biso   1.000  C
  C110     1.0000 0.65760  0.65710  0.00000  Biso   1.000  C
  C111     1.0000 0.65860  0.68250  0.90300  Biso   1.000  C
  C112     1.0000 0.67600  0.67010  0.89100  Biso   1.000  C
  C113     1.0000 0.69390  0.71070  0.86300  Biso   1.000  C
  C114     1.0000 0.70930  0.69580  0.87800  Biso   1.000  C
  C115     1.0000 0.65690  0.67850  0.09000  Biso   1.000  C
  C116     1.0000 0.67420  0.66700  0.10700  Biso   1.000  C
  C117     1.0000 0.70870  0.69260  0.12600  Biso   1.000  C
  C118     1.0000 0.68980  0.70870  0.12400  Biso   1.000  C
  C119     1.0000 0.72020  0.75820  0.00200  Biso   1.000  C
  C120     1.0000 0.76290  0.72280  0.98600  Biso   1.000  C
  C121     1.0000 0.69460  0.72480  0.99800  Biso   1.000  C
  C122     1.0000 0.72820  0.69440  0.00400  Biso   1.000  C
  In9      1.0000 0.35917  0.00005  0.49990  Biso   1.000  In
  O75      1.0000 0.36560  0.99930  0.73720  Biso   1.000  O
  O76      1.0000 0.32450  0.00010  0.64560  Biso   1.000  O
  O77      1.0000 0.36460  0.99960  0.26060  Biso   1.000  O
  O78      1.0000 0.41300  0.03380  0.50230  Biso   1.000  O
  O79      1.0000 0.38160  0.05200  0.50200  Biso   1.000  O
  O80      1.0000 0.32390  0.00090  0.35550  Biso   1.000  O
  O81      1.0000 0.26480  0.03760  0.90100  Biso   1.000  O
  O82      1.0000 0.26550  0.03720  0.09700  Biso   1.000  O
  O83      1.0000 0.22790  0.96380  0.09700  Biso   1.000  O
  O84      1.0000 0.22710  0.96320  0.90400  Biso   1.000  O
  C123     1.0000 0.34000  0.00020  0.74500  Biso   1.000  C
  C124     1.0000 0.40530  0.05270  0.50270  Biso   1.000  C
  C125     1.0000 0.34030  0.00150  0.25900  Biso   1.000  C
  C126     1.0000 0.34290  0.00050  0.00000  Biso   1.000  C
  C127     1.0000 0.31750  0.97610  0.90300  Biso   1.000  C
  C128     1.0000 0.32990  0.00590  0.89100  Biso   1.000  C
  C129     1.0000 0.28930  0.98320  0.86300  Biso   1.000  C
  C130     1.0000 0.30420  0.01350  0.87800  Biso   1.000  C
  C131     1.0000 0.32150  0.97840  0.09000  Biso   1.000  C
  C132     1.0000 0.33300  0.00720  0.10700  Biso   1.000  C
  C133     1.0000 0.30740  0.01610  0.12600  Biso   1.000  C
  C134     1.0000 0.29130  0.98110  0.12400  Biso   1.000  C
  C135     1.0000 0.24180  0.96200  0.00200  Biso   1.000  C
  C136     1.0000 0.27720  0.04010  0.98600  Biso   1.000  C
  C137     1.0000 0.27520  0.96980  0.99800  Biso   1.000  C
  C138     1.0000 0.30560  0.03380  0.00400  Biso   1.000  C
  In10     1.0000 0.00005  0.64088  0.50010  Biso   1.000  In
  O85      1.0000 0.99930  0.63370  0.26280  Biso   1.000  O
  O86      1.0000 0.00010  0.67560  0.35440  Biso   1.000  O
  O87      1.0000 0.99960  0.63500  0.73940  Biso   1.000  O
  O88      1.0000 0.03380  0.62080  0.49770  Biso   1.000  O
  O89      1.0000 0.05200  0.67040  0.49800  Biso   1.000  O
  O90      1.0000 0.00090  0.67700  0.64450  Biso   1.000  O
  O91      1.0000 0.03760  0.77280  0.09900  Biso   1.000  O
  O92      1.0000 0.03720  0.77170  0.90300  Biso   1.000  O
  O93      1.0000 0.96380  0.73590  0.90300  Biso   1.000  O
  O94      1.0000 0.96320  0.73610  0.09600  Biso   1.000  O
  C139     1.0000 0.00020  0.66020  0.25500  Biso   1.000  C
  C140     1.0000 0.05270  0.64740  0.49730  Biso   1.000  C
  C141     1.0000 0.00150  0.66120  0.74100  Biso   1.000  C
  C142     1.0000 0.00050  0.65760  0.00000  Biso   1.000  C
  C143     1.0000 0.97610  0.65860  0.09700  Biso   1.000  C
  C144     1.0000 0.00590  0.67600  0.10900  Biso   1.000  C
  C145     1.0000 0.98320  0.69390  0.13700  Biso   1.000  C
  C146     1.0000 0.01350  0.70930  0.12200  Biso   1.000  C
  C147     1.0000 0.97840  0.65690  0.91000  Biso   1.000  C
  C148     1.0000 0.00720  0.67420  0.89300  Biso   1.000  C
  C149     1.0000 0.01610  0.70870  0.87400  Biso   1.000  C
  C150     1.0000 0.98110  0.68980  0.87600  Biso   1.000  C
  C151     1.0000 0.96200  0.72020  0.99800  Biso   1.000  C
  C152     1.0000 0.04010  0.76290  0.01400  Biso   1.000  C
  C153     1.0000 0.96980  0.69460  0.00200  Biso   1.000  C
  C154     1.0000 0.03380  0.72820  0.99600  Biso   1.000  C
  In11     1.0000 0.35912  0.35917  0.50010  Biso   1.000  In
  O95      1.0000 0.36630  0.36560  0.26280  Biso   1.000  O
  O96      1.0000 0.32440  0.32450  0.35440  Biso   1.000  O
  O97      1.0000 0.36500  0.36460  0.73940  Biso   1.000  O
  O98      1.0000 0.37920  0.41300  0.49770  Biso   1.000  O
  O99      1.0000 0.32960  0.38160  0.49800  Biso   1.000  O
  O100     1.0000 0.32300  0.32390  0.64450  Biso   1.000  O
  O101     1.0000 0.22720  0.26480  0.09900  Biso   1.000  O
  O102     1.0000 0.22830  0.26550  0.90300  Biso   1.000  O
  O103     1.0000 0.26410  0.22790  0.90300  Biso   1.000  O
  O104     1.0000 0.26390  0.22710  0.09600  Biso   1.000  O
  C155     1.0000 0.33980  0.34000  0.25500  Biso   1.000  C
  C156     1.0000 0.35260  0.40530  0.49730  Biso   1.000  C
  C157     1.0000 0.33880  0.34030  0.74100  Biso   1.000  C
  C158     1.0000 0.34240  0.34290  0.00000  Biso   1.000  C
  C159     1.0000 0.34140  0.31750  0.09700  Biso   1.000  C
  C160     1.0000 0.32400  0.32990  0.10900  Biso   1.000  C
  C161     1.0000 0.30610  0.28930  0.13700  Biso   1.000  C
  C162     1.0000 0.29070  0.30420  0.12200  Biso   1.000  C
  C163     1.0000 0.34310  0.32150  0.91000  Biso   1.000  C
  C164     1.0000 0.32580  0.33300  0.89300  Biso   1.000  C
  C165     1.0000 0.29130  0.30740  0.87400  Biso   1.000  C
  C166     1.0000 0.31020  0.29130  0.87600  Biso   1.000  C
  C167     1.0000 0.27980  0.24180  0.99800  Biso   1.000  C
  C168     1.0000 0.23710  0.27720  0.01400  Biso   1.000  C
  C169     1.0000 0.30540  0.27520  0.00200  Biso   1.000  C
  C170     1.0000 0.27180  0.30560  0.99600  Biso   1.000  C
  In12     1.0000 0.64083  0.99995  0.50010  Biso   1.000  In
  O105     1.0000 0.63440  0.00070  0.26280  Biso   1.000  O
  O106     1.0000 0.67550  0.99990  0.35440  Biso   1.000  O
  O107     1.0000 0.63540  0.00040  0.73940  Biso   1.000  O
  O108     1.0000 0.58700  0.96620  0.49770  Biso   1.000  O
  O109     1.0000 0.61840  0.94800  0.49800  Biso   1.000  O
  O110     1.0000 0.67610  0.99910  0.64450  Biso   1.000  O
  O111     1.0000 0.73520  0.96240  0.09900  Biso   1.000  O
  O112     1.0000 0.73450  0.96280  0.90300  Biso   1.000  O
  O113     1.0000 0.77210  0.03620  0.90300  Biso   1.000  O
  O114     1.0000 0.77290  0.03680  0.09600  Biso   1.000  O
  C171     1.0000 0.66000  0.99980  0.25500  Biso   1.000  C
  C172     1.0000 0.59470  0.94730  0.49730  Biso   1.000  C
  C173     1.0000 0.65970  0.99850  0.74100  Biso   1.000  C
  C174     1.0000 0.65710  0.99950  0.00000  Biso   1.000  C
  C175     1.0000 0.68250  0.02390  0.09700  Biso   1.000  C
  C176     1.0000 0.67010  0.99410  0.10900  Biso   1.000  C
  C177     1.0000 0.71070  0.01680  0.13700  Biso   1.000  C
  C178     1.0000 0.69580  0.98650  0.12200  Biso   1.000  C
  C179     1.0000 0.67850  0.02160  0.91000  Biso   1.000  C
  C180     1.0000 0.66700  0.99280  0.89300  Biso   1.000  C
  C181     1.0000 0.69260  0.98390  0.87400  Biso   1.000  C
  C182     1.0000 0.70870  0.01890  0.87600  Biso   1.000  C
  C183     1.0000 0.75820  0.03800  0.99800  Biso   1.000  C
  C184     1.0000 0.72280  0.95990  0.01400  Biso   1.000  C
  C185     1.0000 0.72480  0.03020  0.00200  Biso   1.000  C
  C186     1.0000 0.69440  0.96620  0.99600  Biso   1.000  C
  In13     1.0000 0.79334  0.20649  0.50024  Biso   1.000  In
  In14     1.0000 0.83501  0.41743  0.49940  Biso   1.000  In
  Ni7      1.0000 0.93402  0.17941  0.82240  Biso   1.000  Ni
  Ni8      1.0000 0.93457  0.17928  0.17740  Biso   1.000  Ni
  O115     1.0000 0.81280  0.18450  0.36110  Biso   1.000  O
  O116     1.0000 0.78910  0.20930  0.24840  Biso   1.000  O
  O117     1.0000 0.79020  0.21010  0.74590  Biso   1.000  O
  O118     1.0000 0.84490  0.42380  0.27500  Biso   1.000  O
  O119     1.0000 0.81390  0.18570  0.63920  Biso   1.000  O
  O120     1.0000 0.87730  0.41240  0.50190  Biso   1.000  O
  O121     1.0000 0.58830  0.12230  0.50550  Biso   1.000  O
  O122     1.0000 0.80300  0.25610  0.50330  Biso   1.000  O
  O123     1.0000 0.75450  0.15520  0.49900  Biso   1.000  O
  O124     1.0000 0.84420  0.24470  0.50240  Biso   1.000  O
  O125     1.0000 0.74310  0.19490  0.50140  Biso   1.000  O
  O126     1.0000 0.62220  0.03370  0.50420  Biso   1.000  O
  O127     1.0000 0.63170  0.16710  0.50170  Biso   1.000  O
  O128     1.0000 0.66790  0.05120  0.49230  Biso   1.000  O
  O129     1.0000 0.78840  0.39550  0.33900  Biso   1.000  O
  O130     1.0000 0.94060  0.16440  0.98900  Biso   1.000  O
  O131     1.0000 0.89510  0.17570  0.09200  Biso   1.000  O
  O132     1.0000 0.89500  0.17550  0.91300  Biso   1.000  O
  C187     1.0000 0.81200  0.40700  0.28000  Biso   1.000  C
  C188     1.0000 0.86480  0.35240  0.49900  Biso   1.000  C
  C189     1.0000 0.65880  0.09170  0.50400  Biso   1.000  C
  C190     1.0000 0.85540  0.30020  0.50100  Biso   1.000  C
  C191     1.0000 0.80250  0.19960  0.74500  Biso   1.000  C
  C192     1.0000 0.80310  0.19820  0.25800  Biso   1.000  C
  C193     1.0000 0.69940  0.14370  0.50100  Biso   1.000  C
  C194     1.0000 0.90930  0.34290  0.49900  Biso   1.000  C
  C195     1.0000 0.64010  0.10560  0.49600  Biso   1.000  C
  C196     1.0000 0.64580  0.13550  0.49800  Biso   1.000  C
  C197     1.0000 0.89760  0.36220  0.50100  Biso   1.000  C
  C198     1.0000 0.64590  0.05410  0.50240  Biso   1.000  C
  C199     1.0000 0.67590  0.15580  0.49650  Biso   1.000  C
  C200     1.0000 0.84390  0.32200  0.50180  Biso   1.000  C
  C201     1.0000 0.87210  0.38740  0.50500  Biso   1.000  C
  C202     1.0000 0.83100  0.26550  0.50100  Biso   1.000  C
  C203     1.0000 0.61340  0.12870  0.50200  Biso   1.000  C
  C204     1.0000 0.73580  0.16790  0.50240  Biso   1.000  C
  C205     1.0000 0.68670  0.11030  0.50600  Biso   1.000  C
  C206     1.0000 0.88850  0.31390  0.49800  Biso   1.000  C
  C207     1.0000 0.80610  0.19320  0.00400  Biso   1.000  C
  C208     1.0000 0.81150  0.18330  0.13300  Biso   1.000  C
  C209     1.0000 0.81330  0.18600  0.87200  Biso   1.000  C
  C210     1.0000 0.84500  0.19260  0.89100  Biso   1.000  C
  C211     1.0000 0.80980  0.15540  0.88600  Biso   1.000  C
  C212     1.0000 0.84210  0.18620  0.12700  Biso   1.000  C
  C213     1.0000 0.80960  0.15320  0.12200  Biso   1.000  C
  C214     1.0000 0.87360  0.16620  0.00900  Biso   1.000  C
  C215     1.0000 0.85380  0.18000  0.00400  Biso   1.000  C
  C216     1.0000 0.81500  0.14030  0.00000  Biso   1.000  C
  In15     1.0000 0.79351  0.58685  0.50024  Biso   1.000  In
  In16     1.0000 0.58257  0.41758  0.49940  Biso   1.000  In
  Ni9      1.0000 0.82059  0.75461  0.82240  Biso   1.000  Ni
  Ni10     1.0000 0.82072  0.75529  0.17740  Biso   1.000  Ni
  O133     1.0000 0.81550  0.62830  0.36110  Biso   1.000  O
  O134     1.0000 0.79070  0.57980  0.24840  Biso   1.000  O
  O135     1.0000 0.78990  0.58010  0.74590  Biso   1.000  O
  O136     1.0000 0.57620  0.42110  0.27500  Biso   1.000  O
  O137     1.0000 0.81430  0.62820  0.63920  Biso   1.000  O
  O138     1.0000 0.58760  0.46490  0.50190  Biso   1.000  O
  O139     1.0000 0.87770  0.46600  0.50550  Biso   1.000  O
  O140     1.0000 0.74390  0.54690  0.50330  Biso   1.000  O
  O141     1.0000 0.84480  0.59930  0.49900  Biso   1.000  O
  O142     1.0000 0.75530  0.59950  0.50240  Biso   1.000  O
  O143     1.0000 0.80510  0.54820  0.50140  Biso   1.000  O
  O144     1.0000 0.96630  0.58850  0.50420  Biso   1.000  O
  O145     1.0000 0.83290  0.46460  0.50170  Biso   1.000  O
  O146     1.0000 0.94880  0.61670  0.49230  Biso   1.000  O
  O147     1.0000 0.60450  0.39290  0.33900  Biso   1.000  O
  O148     1.0000 0.83560  0.77620  0.98900  Biso   1.000  O
  O149     1.0000 0.82430  0.71940  0.09200  Biso   1.000  O
  O150     1.0000 0.82450  0.71950  0.91300  Biso   1.000  O
  C217     1.0000 0.59300  0.40500  0.28000  Biso   1.000  C
  C218     1.0000 0.64760  0.51240  0.49900  Biso   1.000  C
  C219     1.0000 0.90830  0.56710  0.50400  Biso   1.000  C
  C220     1.0000 0.69980  0.55520  0.50100  Biso   1.000  C
  C221     1.0000 0.80040  0.60290  0.74500  Biso   1.000  C
  C222     1.0000 0.80180  0.60490  0.25800  Biso   1.000  C
  C223     1.0000 0.85630  0.55570  0.50100  Biso   1.000  C
  C224     1.0000 0.65710  0.56640  0.49900  Biso   1.000  C
  C225     1.0000 0.89440  0.53450  0.49600  Biso   1.000  C
  C226     1.0000 0.86450  0.51030  0.49800  Biso   1.000  C
  C227     1.0000 0.63780  0.53540  0.50100  Biso   1.000  C
  C228     1.0000 0.94590  0.59180  0.50240  Biso   1.000  C
  C229     1.0000 0.84420  0.52010  0.49650  Biso   1.000  C
  C230     1.0000 0.67800  0.52190  0.50180  Biso   1.000  C
  C231     1.0000 0.61260  0.48470  0.50500  Biso   1.000  C
  C232     1.0000 0.73450  0.56550  0.50100  Biso   1.000  C
  C233     1.0000 0.87130  0.48470  0.50200  Biso   1.000  C
  C234     1.0000 0.83210  0.56790  0.50240  Biso   1.000  C
  C235     1.0000 0.88970  0.57640  0.50600  Biso   1.000  C
  C236     1.0000 0.68610  0.57460  0.49800  Biso   1.000  C
  C237     1.0000 0.80680  0.61290  0.00400  Biso   1.000  C
  C238     1.0000 0.81670  0.62820  0.13300  Biso   1.000  C
  C239     1.0000 0.81400  0.62730  0.87200  Biso   1.000  C
  C240     1.0000 0.80740  0.65240  0.89100  Biso   1.000  C
  C241     1.0000 0.84460  0.65440  0.88600  Biso   1.000  C
  C242     1.0000 0.81380  0.65590  0.12700  Biso   1.000  C
  C243     1.0000 0.84680  0.65640  0.12200  Biso   1.000  C
  C244     1.0000 0.83380  0.70740  0.00900  Biso   1.000  C
  C245     1.0000 0.82000  0.67380  0.00400  Biso   1.000  C
  C246     1.0000 0.85970  0.67470  0.00000  Biso   1.000  C
  In17     1.0000 0.41315  0.20666  0.50024  Biso   1.000  In
  In18     1.0000 0.58242  0.16499  0.49940  Biso   1.000  In
  Ni11     1.0000 0.24539  0.06598  0.82240  Biso   1.000  Ni
  Ni12     1.0000 0.24471  0.06543  0.17740  Biso   1.000  Ni
  O151     1.0000 0.37170  0.18720  0.36110  Biso   1.000  O
  O152     1.0000 0.42020  0.21090  0.24840  Biso   1.000  O
  O153     1.0000 0.41990  0.20980  0.74590  Biso   1.000  O
  O154     1.0000 0.57890  0.15510  0.27500  Biso   1.000  O
  O155     1.0000 0.37180  0.18610  0.63920  Biso   1.000  O
  O156     1.0000 0.53510  0.12270  0.50190  Biso   1.000  O
  O157     1.0000 0.53400  0.41170  0.50550  Biso   1.000  O
  O158     1.0000 0.45310  0.19700  0.50330  Biso   1.000  O
  O159     1.0000 0.40070  0.24550  0.49900  Biso   1.000  O
  O160     1.0000 0.40050  0.15580  0.50240  Biso   1.000  O
  O161     1.0000 0.45180  0.25690  0.50140  Biso   1.000  O
  O162     1.0000 0.41150  0.37780  0.50420  Biso   1.000  O
  O163     1.0000 0.53540  0.36830  0.50170  Biso   1.000  O
  O164     1.0000 0.38330  0.33210  0.49230  Biso   1.000  O
  O165     1.0000 0.60710  0.21160  0.33900  Biso   1.000  O
  O166     1.0000 0.22380  0.05940  0.98900  Biso   1.000  O
  O167     1.0000 0.28060  0.10490  0.09200  Biso   1.000  O
  O168     1.0000 0.28050  0.10500  0.91300  Biso   1.000  O
  C247     1.0000 0.59500  0.18800  0.28000  Biso   1.000  C
  C248     1.0000 0.48760  0.13520  0.49900  Biso   1.000  C
  C249     1.0000 0.43290  0.34120  0.50400  Biso   1.000  C
  C250     1.0000 0.44480  0.14460  0.50100  Biso   1.000  C
  C251     1.0000 0.39710  0.19750  0.74500  Biso   1.000  C
  C252     1.0000 0.39510  0.19690  0.25800  Biso   1.000  C
  C253     1.0000 0.44430  0.30060  0.50100  Biso   1.000  C
  C254     1.0000 0.43360  0.09070  0.49900  Biso   1.000  C
  C255     1.0000 0.46550  0.35990  0.49600  Biso   1.000  C
  C256     1.0000 0.48970  0.35420  0.49800  Biso   1.000  C
  C257     1.0000 0.46460  0.10240  0.50100  Biso   1.000  C
  C258     1.0000 0.40820  0.35410  0.50240  Biso   1.000  C
  C259     1.0000 0.47990  0.32410  0.49650  Biso   1.000  C
  C260     1.0000 0.47810  0.15610  0.50180  Biso   1.000  C
  C261     1.0000 0.51530  0.12790  0.50500  Biso   1.000  C
  C262     1.0000 0.43450  0.16900  0.50100  Biso   1.000  C
  C263     1.0000 0.51530  0.38660  0.50200  Biso   1.000  C
  C264     1.0000 0.43210  0.26420  0.50240  Biso   1.000  C
  C265     1.0000 0.42360  0.31330  0.50600  Biso   1.000  C
  C266     1.0000 0.42540  0.11150  0.49800  Biso   1.000  C
  C267     1.0000 0.38710  0.19390  0.00400  Biso   1.000  C
  C268     1.0000 0.37180  0.18850  0.13300  Biso   1.000  C
  C269     1.0000 0.37270  0.18670  0.87200  Biso   1.000  C
  C270     1.0000 0.34760  0.15500  0.89100  Biso   1.000  C
  C271     1.0000 0.34560  0.19020  0.88600  Biso   1.000  C
  C272     1.0000 0.34410  0.15790  0.12700  Biso   1.000  C
  C273     1.0000 0.34360  0.19040  0.12200  Biso   1.000  C
  C274     1.0000 0.29260  0.12640  0.00900  Biso   1.000  C
  C275     1.0000 0.32620  0.14620  0.00400  Biso   1.000  C
  C276     1.0000 0.32530  0.18500  0.00000  Biso   1.000  C
