data_WEBKOD_clean
_audit_creation_date              2014-07-02
_audit_creation_method            'Materials Studio'
_symmetry_space_group_name_H-M    'P1'
_symmetry_Int_Tables_number       1
_symmetry_cell_setting            triclinic
loop_
_symmetry_equiv_pos_as_xyz
  x,y,z
_cell_length_a                    12.0495
_cell_length_b                    12.2773
_cell_length_c                    19.1028
_cell_angle_alpha                 91.6690
_cell_angle_beta                  96.8500
_cell_angle_gamma                 117.9450
loop_
_atom_site_label
_atom_site_type_symbol
_atom_site_fract_x
_atom_site_fract_y
_atom_site_fract_z
_atom_site_U_iso_or_equiv
_atom_site_adp_type
_atom_site_occupancy
Cd1    Cd    0.76911   0.50233   0.77854   0.01267  Uiso   1.00
Cd2    Cd    0.58859   0.66969   0.69812   0.01267  Uiso   1.00
Cd3    Cd    0.42655   0.32177   0.80199   0.01267  Uiso   1.00
Cd4    Cd    0.23089   0.49767   0.22146   0.01267  Uiso   1.00
Cd5    Cd    0.41141   0.33031   0.30188   0.01267  Uiso   1.00
Cd6    Cd    0.57345   0.67823   0.19801   0.01267  Uiso   1.00
H1     H     0.71310   0.54280   0.97320   0.01267  Uiso   1.00
H2     H     0.70180   0.57540   0.09500   0.01267  Uiso   1.00
H3     H     0.08530   0.33050   0.77740   0.01267  Uiso   1.00
H4     H     0.21390   0.64730   0.68320   0.01267  Uiso   1.00
H5     H     0.72210   0.14440   0.68860   0.01267  Uiso   1.00
H6     H     0.45740   0.98150   0.81440   0.01267  Uiso   1.00
H7     H     0.45370   0.79370   0.78620   0.01267  Uiso   1.00
H8     H     0.71460   0.95930   0.66030   0.01267  Uiso   1.00
H9     H     0.89570   0.33470   0.78050   0.01267  Uiso   1.00
H10    H     0.02810   0.65170   0.69220   0.01267  Uiso   1.00
H11    H     0.96680   0.00440   0.67070   0.01267  Uiso   1.00
H12    H     0.09790   0.85890   0.82750   0.01267  Uiso   1.00
H13    H     0.15660   0.18250   0.69500   0.01267  Uiso   1.00
H14    H     0.28200   0.04820   0.85020   0.01267  Uiso   1.00
H15    H     0.30490   0.24230   0.55900   0.01267  Uiso   1.00
H16    H     0.68220   0.47450   0.55760   0.01267  Uiso   1.00
H17    H     0.63600   0.44280   0.43340   0.01267  Uiso   1.00
H18    H     0.27160   0.22870   0.43720   0.01267  Uiso   1.00
H19    H     0.54500   0.75510   0.92770   0.01267  Uiso   1.00
H20    H     0.53210   0.77840   0.04720   0.01267  Uiso   1.00
H21    H     0.28690   0.45720   0.02680   0.01267  Uiso   1.00
H22    H     0.29820   0.42460   0.90500   0.01267  Uiso   1.00
H23    H     0.91470   0.66950   0.22260   0.01267  Uiso   1.00
H24    H     0.78610   0.35270   0.31680   0.01267  Uiso   1.00
H25    H     0.27790   0.85560   0.31140   0.01267  Uiso   1.00
H26    H     0.54260   0.01850   0.18560   0.01267  Uiso   1.00
H27    H     0.54630   0.20630   0.21380   0.01267  Uiso   1.00
H28    H     0.28540   0.04070   0.33970   0.01267  Uiso   1.00
H29    H     0.10430   0.66530   0.21950   0.01267  Uiso   1.00
H30    H     0.97190   0.34830   0.30780   0.01267  Uiso   1.00
H31    H     0.03320   0.99560   0.32930   0.01267  Uiso   1.00
H32    H     0.90210   0.14110   0.17250   0.01267  Uiso   1.00
H33    H     0.84340   0.81750   0.30500   0.01267  Uiso   1.00
H34    H     0.71800   0.95180   0.14980   0.01267  Uiso   1.00
H35    H     0.69510   0.75770   0.44100   0.01267  Uiso   1.00
H36    H     0.31780   0.52550   0.44240   0.01267  Uiso   1.00
H37    H     0.36400   0.55720   0.56660   0.01267  Uiso   1.00
H38    H     0.72840   0.77130   0.56280   0.01267  Uiso   1.00
H39    H     0.45500   0.24490   0.07230   0.01267  Uiso   1.00
H40    H     0.46790   0.22160   0.95280   0.01267  Uiso   1.00
C1     C     0.17700   0.49440   0.73440   0.01267  Uiso   1.00
C2     C     0.30100   0.49540   0.73750   0.01267  Uiso   1.00
C3     C     0.67300   0.58870   0.98750   0.01267  Uiso   1.00
C4     C     0.61790   0.63820   0.93700   0.01267  Uiso   1.00
C5     C     0.61840   0.60850   0.86020   0.01267  Uiso   1.00
C6     C     0.88220   0.79020   0.73530   0.01267  Uiso   1.00
C7     C     0.51680   0.38880   0.65330   0.01267  Uiso   1.00
C8     C     0.66680   0.60940   0.06050   0.01267  Uiso   1.00
C9     C     0.07600   0.39820   0.76040   0.01267  Uiso   1.00
C10    C     0.00780   0.91070   0.74790   0.01267  Uiso   1.00
C11    C     0.59530   0.20310   0.77550   0.01267  Uiso   1.00
C12    C     0.15150   0.58440   0.70590   0.01267  Uiso   1.00
C13    C     0.59160   0.08390   0.75740   0.01267  Uiso   1.00
C14    C     0.66680   0.07320   0.70940   0.01267  Uiso   1.00
C15    C     0.51230   0.97880   0.78330   0.01267  Uiso   1.00
C16    C     0.50870   0.86510   0.76550   0.01267  Uiso   1.00
C17    C     0.66130   0.96240   0.69230   0.01267  Uiso   1.00
C18    C     0.96170   0.40090   0.76170   0.01267  Uiso   1.00
C19    C     0.03910   0.58510   0.70960   0.01267  Uiso   1.00
C20    C     0.02980   0.01010   0.70790   0.01267  Uiso   1.00
C21    C     0.10670   0.92550   0.80050   0.01267  Uiso   1.00
C22    C     0.14390   0.11620   0.72310   0.01267  Uiso   1.00
C23    C     0.21750   0.03790   0.81280   0.01267  Uiso   1.00
C24    C     0.49660   0.36550   0.57310   0.01267  Uiso   1.00
C25    C     0.37440   0.28720   0.53440   0.01267  Uiso   1.00
C26    C     0.59770   0.42330   0.53450   0.01267  Uiso   1.00
C27    C     0.56880   0.40220   0.46020   0.01267  Uiso   1.00
C28    C     0.35550   0.27550   0.46200   0.01267  Uiso   1.00
C29    C     0.57310   0.71320   0.96040   0.01267  Uiso   1.00
C30    C     0.56810   0.72890   0.03250   0.01267  Uiso   1.00
C31    C     0.82300   0.50560   0.26560   0.01267  Uiso   1.00
C32    C     0.69900   0.50460   0.26250   0.01267  Uiso   1.00
C33    C     0.32700   0.41130   0.01250   0.01267  Uiso   1.00
C34    C     0.38210   0.36180   0.06300   0.01267  Uiso   1.00
C35    C     0.38160   0.39150   0.13980   0.01267  Uiso   1.00
C36    C     0.11780   0.20980   0.26470   0.01267  Uiso   1.00
C37    C     0.48320   0.61120   0.34670   0.01267  Uiso   1.00
C38    C     0.33320   0.39060   0.93950   0.01267  Uiso   1.00
C39    C     0.92400   0.60180   0.23960   0.01267  Uiso   1.00
C40    C     0.99220   0.08930   0.25210   0.01267  Uiso   1.00
C41    C     0.40470   0.79690   0.22450   0.01267  Uiso   1.00
C42    C     0.84850   0.41560   0.29410   0.01267  Uiso   1.00
C43    C     0.40840   0.91610   0.24260   0.01267  Uiso   1.00
C44    C     0.33320   0.92680   0.29060   0.01267  Uiso   1.00
C45    C     0.48770   0.02120   0.21670   0.01267  Uiso   1.00
C46    C     0.49130   0.13490   0.23450   0.01267  Uiso   1.00
C47    C     0.33870   0.03760   0.30770   0.01267  Uiso   1.00
C48    C     0.03830   0.59910   0.23830   0.01267  Uiso   1.00
C49    C     0.96090   0.41490   0.29040   0.01267  Uiso   1.00
C50    C     0.97020   0.98990   0.29210   0.01267  Uiso   1.00
C51    C     0.89330   0.07450   0.19950   0.01267  Uiso   1.00
C52    C     0.85610   0.88380   0.27690   0.01267  Uiso   1.00
C53    C     0.78250   0.96210   0.18720   0.01267  Uiso   1.00
C54    C     0.50340   0.63450   0.42690   0.01267  Uiso   1.00
C55    C     0.62560   0.71280   0.46560   0.01267  Uiso   1.00
C56    C     0.40230   0.57670   0.46550   0.01267  Uiso   1.00
C57    C     0.43120   0.59780   0.53980   0.01267  Uiso   1.00
C58    C     0.64450   0.72450   0.53800   0.01267  Uiso   1.00
C59    C     0.42690   0.28680   0.03960   0.01267  Uiso   1.00
C60    C     0.43190   0.27110   0.96750   0.01267  Uiso   1.00
N1     N     0.58230   0.85410   0.71910   0.01267  Uiso   1.00
N2     N     0.94040   0.49140   0.73790   0.01267  Uiso   1.00
N3     N     0.23740   0.13450   0.77310   0.01267  Uiso   1.00
N4     N     0.45300   0.32890   0.42520   0.01267  Uiso   1.00
N5     N     0.61160   0.67760   0.08160   0.01267  Uiso   1.00
N6     N     0.41770   0.14590   0.28090   0.01267  Uiso   1.00
N7     N     0.05960   0.50860   0.26210   0.01267  Uiso   1.00
N8     N     0.76260   0.86550   0.22690   0.01267  Uiso   1.00
N9     N     0.54700   0.67110   0.57480   0.01267  Uiso   1.00
N10    N     0.38840   0.32240   0.91840   0.01267  Uiso   1.00
O1     O     0.61700   0.68640   0.82000   0.01267  Uiso   1.00
O2     O     0.61330   0.48910   0.68030   0.01267  Uiso   1.00
O3     O     0.37430   0.56310   0.69380   0.01267  Uiso   1.00
O4     O     0.61860   0.50830   0.84220   0.01267  Uiso   1.00
O5     O     0.52550   0.20530   0.81810   0.01267  Uiso   1.00
O6     O     0.32430   0.43590   0.78110   0.01267  Uiso   1.00
O7     O     0.79730   0.78790   0.69340   0.01267  Uiso   1.00
O8     O     0.43990   0.31390   0.68410   0.01267  Uiso   1.00
O9     O     0.87810   0.70670   0.77390   0.01267  Uiso   1.00
O10    O     0.67350   0.29450   0.74750   0.01267  Uiso   1.00
O11    O     0.38300   0.31360   0.18000   0.01267  Uiso   1.00
O12    O     0.38670   0.51090   0.31970   0.01267  Uiso   1.00
O13    O     0.62570   0.43690   0.30620   0.01267  Uiso   1.00
O14    O     0.38140   0.49170   0.15780   0.01267  Uiso   1.00
O15    O     0.47450   0.79470   0.18190   0.01267  Uiso   1.00
O16    O     0.67570   0.56410   0.21890   0.01267  Uiso   1.00
O17    O     0.20270   0.21210   0.30660   0.01267  Uiso   1.00
O18    O     0.56010   0.68610   0.31590   0.01267  Uiso   1.00
O19    O     0.12190   0.29330   0.22610   0.01267  Uiso   1.00
O20    O     0.32650   0.70550   0.25250   0.01267  Uiso   1.00
