data_WEBKIX_charged
_audit_creation_date              2014-07-02
_audit_creation_method            'Materials Studio'
_symmetry_space_group_name_H-M    'P1'
_symmetry_Int_Tables_number       1
_symmetry_cell_setting            triclinic
loop_
_symmetry_equiv_pos_as_xyz
  x,y,z
_cell_length_a                    19.0412
_cell_length_b                    21.5681
_cell_length_c                    23.6540
_cell_angle_alpha                 90.0000
_cell_angle_beta                  90.0000
_cell_angle_gamma                 95.4400
loop_
_atom_site_label
_atom_site_type_symbol
_atom_site_fract_x
_atom_site_fract_y
_atom_site_fract_z
_atom_site_U_iso_or_equiv
_atom_site_adp_type
_atom_site_occupancy
Cd1    Cd    0.73207   0.83150   0.87881   0.01267  Uiso   1.00
Cd2    Cd    0.79276   0.75325   0.00726   0.01267  Uiso   1.00
Cd3    Cd    0.83628   0.65697   0.88051   0.01267  Uiso   1.00
Cd4    Cd    0.33643   0.65883   0.88193   0.01267  Uiso   1.00
Cd5    Cd    0.29150   0.74128   0.74782   0.01267  Uiso   1.00
Cd6    Cd    0.23226   0.83312   0.86713   0.01267  Uiso   1.00
Cd7    Cd    0.76793   0.66850   0.37881   0.01267  Uiso   1.00
Cd8    Cd    0.70724   0.74675   0.50726   0.01267  Uiso   1.00
Cd9    Cd    0.66372   0.84303   0.38051   0.01267  Uiso   1.00
Cd10   Cd    0.16357   0.84117   0.38193   0.01267  Uiso   1.00
Cd11   Cd    0.20850   0.75872   0.24782   0.01267  Uiso   1.00
Cd12   Cd    0.26774   0.66688   0.36713   0.01267  Uiso   1.00
Cd13   Cd    0.26793   0.16850   0.12119   0.01267  Uiso   1.00
Cd14   Cd    0.20724   0.24675   0.99274   0.01267  Uiso   1.00
Cd15   Cd    0.16372   0.34303   0.11949   0.01267  Uiso   1.00
Cd16   Cd    0.66357   0.34117   0.11807   0.01267  Uiso   1.00
Cd17   Cd    0.70850   0.25872   0.25218   0.01267  Uiso   1.00
Cd18   Cd    0.76774   0.16688   0.13287   0.01267  Uiso   1.00
Cd19   Cd    0.23207   0.33150   0.62119   0.01267  Uiso   1.00
Cd20   Cd    0.29276   0.25325   0.49274   0.01267  Uiso   1.00
Cd21   Cd    0.33628   0.15697   0.61949   0.01267  Uiso   1.00
Cd22   Cd    0.83643   0.15883   0.61807   0.01267  Uiso   1.00
Cd23   Cd    0.79150   0.24128   0.75218   0.01267  Uiso   1.00
Cd24   Cd    0.73226   0.33312   0.63287   0.01267  Uiso   1.00
H1     H     0.68360   0.08750   0.03420   0.01267  Uiso   1.00
H2     H     0.68140   0.99460   0.98260   0.01267  Uiso   1.00
H3     H     0.83300   0.93950   0.08590   0.01267  Uiso   1.00
H4     H     0.82820   0.03130   0.13640   0.01267  Uiso   1.00
H5     H     0.77200   0.39170   0.01900   0.01267  Uiso   1.00
H6     H     0.82650   0.48370   0.98150   0.01267  Uiso   1.00
H7     H     0.68650   0.57850   0.06710   0.01267  Uiso   1.00
H8     H     0.63660   0.48500   0.10300   0.01267  Uiso   1.00
H9     H     0.80330   0.67080   0.59810   0.01267  Uiso   1.00
H10    H     0.82440   0.66540   0.69420   0.01267  Uiso   1.00
H11    H     0.72560   0.82070   0.71440   0.01267  Uiso   1.00
H12    H     0.70960   0.82450   0.61560   0.01267  Uiso   1.00
H13    H     0.11230   0.78110   0.95520   0.01267  Uiso   1.00
H14    H     0.99240   0.76310   0.96540   0.01267  Uiso   1.00
H15    H     0.96730   0.86970   0.82740   0.01267  Uiso   1.00
H16    H     0.08890   0.87730   0.81540   0.01267  Uiso   1.00
H17    H     0.47950   0.60520   0.83740   0.01267  Uiso   1.00
H18    H     0.60150   0.61890   0.84690   0.01267  Uiso   1.00
H19    H     0.57740   0.73230   0.97840   0.01267  Uiso   1.00
H20    H     0.45510   0.71240   0.97000   0.01267  Uiso   1.00
H21    H     0.60930   0.77360   0.79580   0.01267  Uiso   1.00
H22    H     0.48870   0.75530   0.78780   0.01267  Uiso   1.00
H23    H     0.46910   0.87810   0.91490   0.01267  Uiso   1.00
H24    H     0.59170   0.88640   0.92500   0.01267  Uiso   1.00
H25    H     0.83400   0.89370   0.77830   0.01267  Uiso   1.00
H26    H     0.86150   0.98340   0.72710   0.01267  Uiso   1.00
H27    H     0.70300   0.05820   0.80820   0.01267  Uiso   1.00
H28    H     0.67860   0.96440   0.85540   0.01267  Uiso   1.00
H29    H     0.73160   0.58620   0.78800   0.01267  Uiso   1.00
H30    H     0.70760   0.49030   0.74260   0.01267  Uiso   1.00
H31    H     0.86200   0.42270   0.83460   0.01267  Uiso   1.00
H32    H     0.88290   0.51910   0.87690   0.01267  Uiso   1.00
H33    H     0.21710   0.84180   0.14080   0.01267  Uiso   1.00
H34    H     0.22820   0.83740   0.04280   0.01267  Uiso   1.00
H35    H     0.32810   0.68290   0.06240   0.01267  Uiso   1.00
H36    H     0.30900   0.68780   0.15780   0.01267  Uiso   1.00
H37    H     0.95230   0.70250   0.78860   0.01267  Uiso   1.00
H38    H     0.07350   0.71960   0.77500   0.01267  Uiso   1.00
H39    H     0.10220   0.62340   0.91970   0.01267  Uiso   1.00
H40    H     0.97930   0.60880   0.92830   0.01267  Uiso   1.00
H41    H     0.81640   0.41250   0.53420   0.01267  Uiso   1.00
H42    H     0.81860   0.50540   0.48260   0.01267  Uiso   1.00
H43    H     0.66700   0.56050   0.58590   0.01267  Uiso   1.00
H44    H     0.67180   0.46870   0.63640   0.01267  Uiso   1.00
H45    H     0.72800   0.10830   0.51900   0.01267  Uiso   1.00
H46    H     0.67350   0.01630   0.48150   0.01267  Uiso   1.00
H47    H     0.81350   0.92150   0.56710   0.01267  Uiso   1.00
H48    H     0.86340   0.01500   0.60300   0.01267  Uiso   1.00
H49    H     0.69670   0.82920   0.09810   0.01267  Uiso   1.00
H50    H     0.67560   0.83460   0.19420   0.01267  Uiso   1.00
H51    H     0.77440   0.67930   0.21440   0.01267  Uiso   1.00
H52    H     0.79040   0.67550   0.11560   0.01267  Uiso   1.00
H53    H     0.38770   0.71890   0.45520   0.01267  Uiso   1.00
H54    H     0.50760   0.73690   0.46540   0.01267  Uiso   1.00
H55    H     0.53270   0.63030   0.32740   0.01267  Uiso   1.00
H56    H     0.41110   0.62270   0.31540   0.01267  Uiso   1.00
H57    H     0.02050   0.89480   0.33740   0.01267  Uiso   1.00
H58    H     0.89850   0.88110   0.34690   0.01267  Uiso   1.00
H59    H     0.92260   0.76770   0.47840   0.01267  Uiso   1.00
H60    H     0.04490   0.78760   0.47000   0.01267  Uiso   1.00
H61    H     0.89070   0.72640   0.29580   0.01267  Uiso   1.00
H62    H     0.01130   0.74470   0.28780   0.01267  Uiso   1.00
H63    H     0.03090   0.62190   0.41490   0.01267  Uiso   1.00
H64    H     0.90830   0.61360   0.42500   0.01267  Uiso   1.00
H65    H     0.66600   0.60630   0.27830   0.01267  Uiso   1.00
H66    H     0.63850   0.51660   0.22710   0.01267  Uiso   1.00
H67    H     0.79700   0.44180   0.30820   0.01267  Uiso   1.00
H68    H     0.82140   0.53560   0.35540   0.01267  Uiso   1.00
H69    H     0.76840   0.91380   0.28800   0.01267  Uiso   1.00
H70    H     0.79240   0.00970   0.24260   0.01267  Uiso   1.00
H71    H     0.63800   0.07730   0.33460   0.01267  Uiso   1.00
H72    H     0.61710   0.98090   0.37690   0.01267  Uiso   1.00
H73    H     0.28290   0.65820   0.64080   0.01267  Uiso   1.00
H74    H     0.27180   0.66260   0.54280   0.01267  Uiso   1.00
H75    H     0.17190   0.81710   0.56240   0.01267  Uiso   1.00
H76    H     0.19100   0.81220   0.65780   0.01267  Uiso   1.00
H77    H     0.54770   0.79750   0.28860   0.01267  Uiso   1.00
H78    H     0.42650   0.78040   0.27500   0.01267  Uiso   1.00
H79    H     0.39780   0.87660   0.41970   0.01267  Uiso   1.00
H80    H     0.52070   0.89120   0.42830   0.01267  Uiso   1.00
H81    H     0.31640   0.91250   0.96580   0.01267  Uiso   1.00
H82    H     0.31860   0.00540   0.01740   0.01267  Uiso   1.00
H83    H     0.16700   0.06050   0.91410   0.01267  Uiso   1.00
H84    H     0.17180   0.96870   0.86360   0.01267  Uiso   1.00
H85    H     0.22800   0.60830   0.98100   0.01267  Uiso   1.00
H86    H     0.17350   0.51630   0.01850   0.01267  Uiso   1.00
H87    H     0.31350   0.42150   0.93290   0.01267  Uiso   1.00
H88    H     0.36340   0.51500   0.89700   0.01267  Uiso   1.00
H89    H     0.19670   0.32920   0.40190   0.01267  Uiso   1.00
H90    H     0.17560   0.33460   0.30580   0.01267  Uiso   1.00
H91    H     0.27440   0.17930   0.28560   0.01267  Uiso   1.00
H92    H     0.29040   0.17550   0.38440   0.01267  Uiso   1.00
H93    H     0.88770   0.21890   0.04480   0.01267  Uiso   1.00
H94    H     0.00760   0.23690   0.03460   0.01267  Uiso   1.00
H95    H     0.03270   0.13030   0.17260   0.01267  Uiso   1.00
H96    H     0.91110   0.12270   0.18460   0.01267  Uiso   1.00
H97    H     0.52050   0.39480   0.16260   0.01267  Uiso   1.00
H98    H     0.39850   0.38110   0.15310   0.01267  Uiso   1.00
H99    H     0.42260   0.26770   0.02160   0.01267  Uiso   1.00
H100   H     0.54490   0.28760   0.03000   0.01267  Uiso   1.00
H101   H     0.39070   0.22640   0.20420   0.01267  Uiso   1.00
H102   H     0.51130   0.24470   0.21220   0.01267  Uiso   1.00
H103   H     0.53090   0.12190   0.08510   0.01267  Uiso   1.00
H104   H     0.40830   0.11360   0.07500   0.01267  Uiso   1.00
H105   H     0.16600   0.10630   0.22170   0.01267  Uiso   1.00
H106   H     0.13850   0.01660   0.27290   0.01267  Uiso   1.00
H107   H     0.29700   0.94180   0.19180   0.01267  Uiso   1.00
H108   H     0.32140   0.03560   0.14460   0.01267  Uiso   1.00
H109   H     0.26840   0.41380   0.21200   0.01267  Uiso   1.00
H110   H     0.29240   0.50970   0.25740   0.01267  Uiso   1.00
H111   H     0.13800   0.57730   0.16540   0.01267  Uiso   1.00
H112   H     0.11710   0.48090   0.12310   0.01267  Uiso   1.00
H113   H     0.78290   0.15820   0.85920   0.01267  Uiso   1.00
H114   H     0.77180   0.16260   0.95720   0.01267  Uiso   1.00
H115   H     0.67190   0.31710   0.93760   0.01267  Uiso   1.00
H116   H     0.69100   0.31220   0.84220   0.01267  Uiso   1.00
H117   H     0.04770   0.29750   0.21140   0.01267  Uiso   1.00
H118   H     0.92650   0.28040   0.22500   0.01267  Uiso   1.00
H119   H     0.89780   0.37660   0.08030   0.01267  Uiso   1.00
H120   H     0.02070   0.39120   0.07170   0.01267  Uiso   1.00
H121   H     0.18360   0.58750   0.46580   0.01267  Uiso   1.00
H122   H     0.18140   0.49460   0.51740   0.01267  Uiso   1.00
H123   H     0.33300   0.43950   0.41410   0.01267  Uiso   1.00
H124   H     0.32820   0.53130   0.36360   0.01267  Uiso   1.00
H125   H     0.27200   0.89170   0.48100   0.01267  Uiso   1.00
H126   H     0.32650   0.98370   0.51850   0.01267  Uiso   1.00
H127   H     0.18650   0.07850   0.43290   0.01267  Uiso   1.00
H128   H     0.13660   0.98500   0.39700   0.01267  Uiso   1.00
H129   H     0.30330   0.17080   0.90190   0.01267  Uiso   1.00
H130   H     0.32440   0.16540   0.80580   0.01267  Uiso   1.00
H131   H     0.22560   0.32070   0.78560   0.01267  Uiso   1.00
H132   H     0.20960   0.32450   0.88440   0.01267  Uiso   1.00
H133   H     0.61230   0.28110   0.54480   0.01267  Uiso   1.00
H134   H     0.49240   0.26310   0.53460   0.01267  Uiso   1.00
H135   H     0.46730   0.36970   0.67260   0.01267  Uiso   1.00
H136   H     0.58890   0.37730   0.68460   0.01267  Uiso   1.00
H137   H     0.97950   0.10520   0.66260   0.01267  Uiso   1.00
H138   H     0.10150   0.11890   0.65310   0.01267  Uiso   1.00
H139   H     0.07740   0.23230   0.52160   0.01267  Uiso   1.00
H140   H     0.95510   0.21240   0.53000   0.01267  Uiso   1.00
H141   H     0.10930   0.27360   0.70420   0.01267  Uiso   1.00
H142   H     0.98870   0.25530   0.71220   0.01267  Uiso   1.00
H143   H     0.96910   0.37810   0.58510   0.01267  Uiso   1.00
H144   H     0.09170   0.38640   0.57500   0.01267  Uiso   1.00
H145   H     0.33400   0.39370   0.72170   0.01267  Uiso   1.00
H146   H     0.36150   0.48340   0.77290   0.01267  Uiso   1.00
H147   H     0.20300   0.55820   0.69180   0.01267  Uiso   1.00
H148   H     0.17860   0.46440   0.64460   0.01267  Uiso   1.00
H149   H     0.23160   0.08620   0.71200   0.01267  Uiso   1.00
H150   H     0.20760   0.99030   0.75740   0.01267  Uiso   1.00
H151   H     0.36200   0.92270   0.66540   0.01267  Uiso   1.00
H152   H     0.38290   0.01910   0.62310   0.01267  Uiso   1.00
H153   H     0.71710   0.34180   0.35920   0.01267  Uiso   1.00
H154   H     0.72820   0.33740   0.45720   0.01267  Uiso   1.00
H155   H     0.82810   0.18290   0.43760   0.01267  Uiso   1.00
H156   H     0.80900   0.18780   0.34220   0.01267  Uiso   1.00
H157   H     0.45230   0.20250   0.71140   0.01267  Uiso   1.00
H158   H     0.57350   0.21960   0.72500   0.01267  Uiso   1.00
H159   H     0.60220   0.12340   0.58030   0.01267  Uiso   1.00
H160   H     0.47930   0.10880   0.57170   0.01267  Uiso   1.00
C1     C     0.71430   0.05730   0.04470   0.01267  Uiso   1.00
C2     C     0.71270   0.00180   0.01370   0.01267  Uiso   1.00
C3     C     0.75750   0.95750   0.02910   0.01267  Uiso   1.00
C4     C     0.80160   0.96890   0.07470   0.01267  Uiso   1.00
C5     C     0.79920   0.02430   0.10390   0.01267  Uiso   1.00
C6     C     0.75770   0.89740   0.99520   0.01267  Uiso   1.00
C7     C     0.75540   0.43030   0.02930   0.01267  Uiso   1.00
C8     C     0.78760   0.48490   0.00640   0.01267  Uiso   1.00
C9     C     0.76280   0.54100   0.02000   0.01267  Uiso   1.00
C10    C     0.70510   0.54070   0.05700   0.01267  Uiso   1.00
C11    C     0.67600   0.48490   0.07840   0.01267  Uiso   1.00
C12    C     0.79630   0.60280   0.99740   0.01267  Uiso   1.00
C13    C     0.78760   0.70220   0.62180   0.01267  Uiso   1.00
C14    C     0.79930   0.69790   0.67940   0.01267  Uiso   1.00
C15    C     0.77440   0.74050   0.71450   0.01267  Uiso   1.00
C16    C     0.74170   0.78920   0.69090   0.01267  Uiso   1.00
C17    C     0.73260   0.79150   0.63180   0.01267  Uiso   1.00
C18    C     0.78090   0.73750   0.77710   0.01267  Uiso   1.00
C19    C     0.08250   0.79760   0.92800   0.01267  Uiso   1.00
C20    C     0.01130   0.78780   0.93470   0.01267  Uiso   1.00
C21    C     0.96640   0.81320   0.89760   0.01267  Uiso   1.00
C22    C     0.99610   0.84940   0.85290   0.01267  Uiso   1.00
C23    C     0.06880   0.85490   0.84700   0.01267  Uiso   1.00
C24    C     0.88880   0.80250   0.90270   0.01267  Uiso   1.00
C25    C     0.49940   0.63110   0.86690   0.01267  Uiso   1.00
C26    C     0.57250   0.63970   0.87190   0.01267  Uiso   1.00
C27    C     0.60210   0.67830   0.91320   0.01267  Uiso   1.00
C28    C     0.55810   0.70550   0.94930   0.01267  Uiso   1.00
C29    C     0.48490   0.69420   0.94370   0.01267  Uiso   1.00
C30    C     0.68040   0.69250   0.91640   0.01267  Uiso   1.00
C31    C     0.58010   0.79330   0.82140   0.01267  Uiso   1.00
C32    C     0.50880   0.78310   0.81590   0.01267  Uiso   1.00
C33    C     0.46610   0.81340   0.85170   0.01267  Uiso   1.00
C34    C     0.49710   0.85450   0.89150   0.01267  Uiso   1.00
C35    C     0.57020   0.86030   0.89630   0.01267  Uiso   1.00
C36    C     0.38700   0.80230   0.84780   0.01267  Uiso   1.00
C37    C     0.80640   0.92760   0.78410   0.01267  Uiso   1.00
C38    C     0.82420   0.98120   0.75380   0.01267  Uiso   1.00
C39    C     0.78670   0.03140   0.76330   0.01267  Uiso   1.00
C40    C     0.73080   0.02460   0.80140   0.01267  Uiso   1.00
C41    C     0.71640   0.96860   0.82910   0.01267  Uiso   1.00
C42    C     0.80350   0.09340   0.73340   0.01267  Uiso   1.00
C43    C     0.75850   0.55270   0.79710   0.01267  Uiso   1.00
C44    C     0.74410   0.49570   0.77000   0.01267  Uiso   1.00
C45    C     0.78310   0.44720   0.78310   0.01267  Uiso   1.00
C46    C     0.83520   0.45580   0.82410   0.01267  Uiso   1.00
C47    C     0.84690   0.51310   0.84910   0.01267  Uiso   1.00
C48    C     0.76990   0.38590   0.75250   0.01267  Uiso   1.00
C49    C     0.23810   0.80790   0.12430   0.01267  Uiso   1.00
C50    C     0.24540   0.80610   0.06580   0.01267  Uiso   1.00
C51    C     0.27830   0.75760   0.04130   0.01267  Uiso   1.00
C52    C     0.30300   0.71530   0.07720   0.01267  Uiso   1.00
C53    C     0.29230   0.71880   0.13420   0.01267  Uiso   1.00
C54    C     0.28290   0.75270   0.97800   0.01267  Uiso   1.00
C55    C     0.98320   0.68700   0.81560   0.01267  Uiso   1.00
C56    C     0.05550   0.69750   0.80750   0.01267  Uiso   1.00
C57    C     0.10140   0.67590   0.84630   0.01267  Uiso   1.00
C58    C     0.07270   0.64070   0.89270   0.01267  Uiso   1.00
C59    C     0.99920   0.63240   0.89740   0.01267  Uiso   1.00
C60    C     0.18020   0.68970   0.84220   0.01267  Uiso   1.00
C61    C     0.78570   0.44270   0.54470   0.01267  Uiso   1.00
C62    C     0.78730   0.49820   0.51370   0.01267  Uiso   1.00
C63    C     0.74250   0.54250   0.52910   0.01267  Uiso   1.00
C64    C     0.69840   0.53110   0.57470   0.01267  Uiso   1.00
C65    C     0.70080   0.47570   0.60390   0.01267  Uiso   1.00
C66    C     0.74230   0.60260   0.49520   0.01267  Uiso   1.00
C67    C     0.74460   0.06970   0.52930   0.01267  Uiso   1.00
C68    C     0.71240   0.01510   0.50640   0.01267  Uiso   1.00
C69    C     0.73720   0.95900   0.52000   0.01267  Uiso   1.00
C70    C     0.79490   0.95930   0.55700   0.01267  Uiso   1.00
C71    C     0.82400   0.01510   0.57840   0.01267  Uiso   1.00
C72    C     0.70370   0.89720   0.49740   0.01267  Uiso   1.00
C73    C     0.71240   0.79780   0.12180   0.01267  Uiso   1.00
C74    C     0.70070   0.80210   0.17940   0.01267  Uiso   1.00
C75    C     0.72560   0.75950   0.21450   0.01267  Uiso   1.00
C76    C     0.75830   0.71080   0.19090   0.01267  Uiso   1.00
C77    C     0.76740   0.70850   0.13180   0.01267  Uiso   1.00
C78    C     0.71910   0.76250   0.27710   0.01267  Uiso   1.00
C79    C     0.41750   0.70240   0.42800   0.01267  Uiso   1.00
C80    C     0.48870   0.71220   0.43470   0.01267  Uiso   1.00
C81    C     0.53360   0.68680   0.39760   0.01267  Uiso   1.00
C82    C     0.50390   0.65060   0.35290   0.01267  Uiso   1.00
C83    C     0.43120   0.64510   0.34700   0.01267  Uiso   1.00
C84    C     0.61120   0.69750   0.40270   0.01267  Uiso   1.00
C85    C     0.00060   0.86890   0.36690   0.01267  Uiso   1.00
C86    C     0.92750   0.86030   0.37190   0.01267  Uiso   1.00
C87    C     0.89790   0.82170   0.41320   0.01267  Uiso   1.00
C88    C     0.94190   0.79450   0.44930   0.01267  Uiso   1.00
C89    C     0.01510   0.80580   0.44370   0.01267  Uiso   1.00
C90    C     0.81960   0.80750   0.41640   0.01267  Uiso   1.00
C91    C     0.91990   0.70670   0.32140   0.01267  Uiso   1.00
C92    C     0.99120   0.71690   0.31590   0.01267  Uiso   1.00
C93    C     0.03390   0.68660   0.35170   0.01267  Uiso   1.00
C94    C     0.00290   0.64550   0.39150   0.01267  Uiso   1.00
C95    C     0.92980   0.63970   0.39630   0.01267  Uiso   1.00
C96    C     0.11300   0.69770   0.34780   0.01267  Uiso   1.00
C97    C     0.69360   0.57240   0.28410   0.01267  Uiso   1.00
C98    C     0.67580   0.51880   0.25380   0.01267  Uiso   1.00
C99    C     0.71330   0.46860   0.26330   0.01267  Uiso   1.00
C100   C     0.76920   0.47540   0.30140   0.01267  Uiso   1.00
C101   C     0.78360   0.53140   0.32910   0.01267  Uiso   1.00
C102   C     0.69650   0.40660   0.23340   0.01267  Uiso   1.00
C103   C     0.74150   0.94730   0.29710   0.01267  Uiso   1.00
C104   C     0.75590   0.00430   0.27000   0.01267  Uiso   1.00
C105   C     0.71690   0.05280   0.28310   0.01267  Uiso   1.00
C106   C     0.66480   0.04420   0.32410   0.01267  Uiso   1.00
C107   C     0.65310   0.98690   0.34910   0.01267  Uiso   1.00
C108   C     0.73010   0.11410   0.25250   0.01267  Uiso   1.00
C109   C     0.26190   0.69210   0.62430   0.01267  Uiso   1.00
C110   C     0.25460   0.69390   0.56580   0.01267  Uiso   1.00
C111   C     0.22170   0.74240   0.54130   0.01267  Uiso   1.00
C112   C     0.19700   0.78470   0.57720   0.01267  Uiso   1.00
C113   C     0.20770   0.78120   0.63420   0.01267  Uiso   1.00
C114   C     0.21710   0.74730   0.47800   0.01267  Uiso   1.00
C115   C     0.51680   0.81300   0.31560   0.01267  Uiso   1.00
C116   C     0.44450   0.80250   0.30750   0.01267  Uiso   1.00
C117   C     0.39860   0.82410   0.34630   0.01267  Uiso   1.00
C118   C     0.42730   0.85930   0.39270   0.01267  Uiso   1.00
C119   C     0.50080   0.86760   0.39740   0.01267  Uiso   1.00
C120   C     0.31980   0.81030   0.34220   0.01267  Uiso   1.00
C121   C     0.28570   0.94270   0.95530   0.01267  Uiso   1.00
C122   C     0.28730   0.99820   0.98630   0.01267  Uiso   1.00
C123   C     0.24250   0.04250   0.97090   0.01267  Uiso   1.00
C124   C     0.19840   0.03110   0.92530   0.01267  Uiso   1.00
C125   C     0.20080   0.97570   0.89610   0.01267  Uiso   1.00
C126   C     0.24230   0.10260   0.00480   0.01267  Uiso   1.00
C127   C     0.24460   0.56970   0.97070   0.01267  Uiso   1.00
C128   C     0.21240   0.51510   0.99360   0.01267  Uiso   1.00
C129   C     0.23720   0.45900   0.98000   0.01267  Uiso   1.00
C130   C     0.29490   0.45930   0.94300   0.01267  Uiso   1.00
C131   C     0.32400   0.51510   0.92160   0.01267  Uiso   1.00
C132   C     0.20370   0.39720   0.00260   0.01267  Uiso   1.00
C133   C     0.21240   0.29780   0.37820   0.01267  Uiso   1.00
C134   C     0.20070   0.30210   0.32060   0.01267  Uiso   1.00
C135   C     0.22560   0.25950   0.28550   0.01267  Uiso   1.00
C136   C     0.25830   0.21080   0.30910   0.01267  Uiso   1.00
C137   C     0.26740   0.20850   0.36820   0.01267  Uiso   1.00
C138   C     0.21910   0.26250   0.22290   0.01267  Uiso   1.00
C139   C     0.91750   0.20240   0.07200   0.01267  Uiso   1.00
C140   C     0.98870   0.21220   0.06530   0.01267  Uiso   1.00
C141   C     0.03360   0.18680   0.10240   0.01267  Uiso   1.00
C142   C     0.00390   0.15060   0.14710   0.01267  Uiso   1.00
C143   C     0.93120   0.14510   0.15300   0.01267  Uiso   1.00
C144   C     0.11120   0.19750   0.09730   0.01267  Uiso   1.00
C145   C     0.50060   0.36890   0.13310   0.01267  Uiso   1.00
C146   C     0.42750   0.36030   0.12810   0.01267  Uiso   1.00
C147   C     0.39790   0.32170   0.08680   0.01267  Uiso   1.00
C148   C     0.44190   0.29450   0.05070   0.01267  Uiso   1.00
C149   C     0.51510   0.30580   0.05630   0.01267  Uiso   1.00
C150   C     0.31960   0.30750   0.08360   0.01267  Uiso   1.00
C151   C     0.41990   0.20670   0.17860   0.01267  Uiso   1.00
C152   C     0.49120   0.21690   0.18410   0.01267  Uiso   1.00
C153   C     0.53390   0.18660   0.14830   0.01267  Uiso   1.00
C154   C     0.50290   0.14550   0.10850   0.01267  Uiso   1.00
C155   C     0.42980   0.13970   0.10370   0.01267  Uiso   1.00
C156   C     0.61300   0.19770   0.15220   0.01267  Uiso   1.00
C157   C     0.19360   0.07240   0.21590   0.01267  Uiso   1.00
C158   C     0.17580   0.01880   0.24620   0.01267  Uiso   1.00
C159   C     0.21330   0.96860   0.23670   0.01267  Uiso   1.00
C160   C     0.26920   0.97540   0.19860   0.01267  Uiso   1.00
C161   C     0.28360   0.03140   0.17090   0.01267  Uiso   1.00
C162   C     0.19650   0.90660   0.26660   0.01267  Uiso   1.00
C163   C     0.24150   0.44730   0.20290   0.01267  Uiso   1.00
C164   C     0.25590   0.50430   0.23000   0.01267  Uiso   1.00
C165   C     0.21690   0.55280   0.21690   0.01267  Uiso   1.00
C166   C     0.16480   0.54420   0.17590   0.01267  Uiso   1.00
C167   C     0.15310   0.48690   0.15090   0.01267  Uiso   1.00
C168   C     0.23010   0.61410   0.24750   0.01267  Uiso   1.00
C169   C     0.76190   0.19210   0.87570   0.01267  Uiso   1.00
C170   C     0.75460   0.19390   0.93420   0.01267  Uiso   1.00
C171   C     0.72170   0.24240   0.95870   0.01267  Uiso   1.00
C172   C     0.69700   0.28470   0.92280   0.01267  Uiso   1.00
C173   C     0.70770   0.28120   0.86580   0.01267  Uiso   1.00
C174   C     0.71710   0.24730   0.02200   0.01267  Uiso   1.00
C175   C     0.01680   0.31300   0.18440   0.01267  Uiso   1.00
C176   C     0.94450   0.30250   0.19250   0.01267  Uiso   1.00
C177   C     0.89860   0.32410   0.15370   0.01267  Uiso   1.00
C178   C     0.92730   0.35930   0.10730   0.01267  Uiso   1.00
C179   C     0.00080   0.36760   0.10260   0.01267  Uiso   1.00
C180   C     0.81980   0.31030   0.15780   0.01267  Uiso   1.00
C181   C     0.21430   0.55730   0.45530   0.01267  Uiso   1.00
C182   C     0.21270   0.50180   0.48630   0.01267  Uiso   1.00
C183   C     0.25750   0.45750   0.47090   0.01267  Uiso   1.00
C184   C     0.30160   0.46890   0.42530   0.01267  Uiso   1.00
C185   C     0.29920   0.52430   0.39610   0.01267  Uiso   1.00
C186   C     0.25770   0.39740   0.50480   0.01267  Uiso   1.00
C187   C     0.25540   0.93030   0.47070   0.01267  Uiso   1.00
C188   C     0.28760   0.98490   0.49360   0.01267  Uiso   1.00
C189   C     0.26280   0.04100   0.48000   0.01267  Uiso   1.00
C190   C     0.20510   0.04070   0.44300   0.01267  Uiso   1.00
C191   C     0.17600   0.98490   0.42160   0.01267  Uiso   1.00
C192   C     0.29630   0.10280   0.50260   0.01267  Uiso   1.00
C193   C     0.28760   0.20220   0.87820   0.01267  Uiso   1.00
C194   C     0.29930   0.19790   0.82060   0.01267  Uiso   1.00
C195   C     0.27440   0.24050   0.78550   0.01267  Uiso   1.00
C196   C     0.24170   0.28920   0.80910   0.01267  Uiso   1.00
C197   C     0.23260   0.29150   0.86820   0.01267  Uiso   1.00
C198   C     0.28090   0.23750   0.72290   0.01267  Uiso   1.00
C199   C     0.58250   0.29760   0.57200   0.01267  Uiso   1.00
C200   C     0.51130   0.28780   0.56530   0.01267  Uiso   1.00
C201   C     0.46640   0.31320   0.60240   0.01267  Uiso   1.00
C202   C     0.49610   0.34940   0.64710   0.01267  Uiso   1.00
C203   C     0.56880   0.35490   0.65300   0.01267  Uiso   1.00
C204   C     0.38880   0.30250   0.59730   0.01267  Uiso   1.00
C205   C     0.99940   0.13110   0.63310   0.01267  Uiso   1.00
C206   C     0.07250   0.13970   0.62810   0.01267  Uiso   1.00
C207   C     0.10210   0.17830   0.58680   0.01267  Uiso   1.00
C208   C     0.05810   0.20550   0.55070   0.01267  Uiso   1.00
C209   C     0.98490   0.19420   0.55630   0.01267  Uiso   1.00
C210   C     0.18040   0.19250   0.58360   0.01267  Uiso   1.00
C211   C     0.08010   0.29330   0.67860   0.01267  Uiso   1.00
C212   C     0.00880   0.28310   0.68410   0.01267  Uiso   1.00
C213   C     0.96610   0.31340   0.64830   0.01267  Uiso   1.00
C214   C     0.99710   0.35450   0.60850   0.01267  Uiso   1.00
C215   C     0.07020   0.36030   0.60370   0.01267  Uiso   1.00
C216   C     0.88700   0.30230   0.65220   0.01267  Uiso   1.00
C217   C     0.30640   0.42760   0.71590   0.01267  Uiso   1.00
C218   C     0.32420   0.48120   0.74620   0.01267  Uiso   1.00
C219   C     0.28670   0.53140   0.73670   0.01267  Uiso   1.00
C220   C     0.23080   0.52460   0.69860   0.01267  Uiso   1.00
C221   C     0.21640   0.46860   0.67090   0.01267  Uiso   1.00
C222   C     0.30350   0.59340   0.76660   0.01267  Uiso   1.00
C223   C     0.25850   0.05270   0.70290   0.01267  Uiso   1.00
C224   C     0.24410   0.99570   0.73000   0.01267  Uiso   1.00
C225   C     0.28310   0.94720   0.71690   0.01267  Uiso   1.00
C226   C     0.33520   0.95580   0.67590   0.01267  Uiso   1.00
C227   C     0.34690   0.01310   0.65090   0.01267  Uiso   1.00
C228   C     0.26990   0.88590   0.74750   0.01267  Uiso   1.00
C229   C     0.73810   0.30790   0.37570   0.01267  Uiso   1.00
C230   C     0.74540   0.30610   0.43420   0.01267  Uiso   1.00
C231   C     0.77830   0.25760   0.45870   0.01267  Uiso   1.00
C232   C     0.80300   0.21530   0.42280   0.01267  Uiso   1.00
C233   C     0.79230   0.21880   0.36580   0.01267  Uiso   1.00
C234   C     0.78290   0.25270   0.52200   0.01267  Uiso   1.00
C235   C     0.48320   0.18700   0.68440   0.01267  Uiso   1.00
C236   C     0.55550   0.19750   0.69250   0.01267  Uiso   1.00
C237   C     0.60140   0.17590   0.65370   0.01267  Uiso   1.00
C238   C     0.57270   0.14070   0.60730   0.01267  Uiso   1.00
C239   C     0.49920   0.13240   0.60260   0.01267  Uiso   1.00
C240   C     0.68020   0.18970   0.65780   0.01267  Uiso   1.00
N1     N     0.75800   0.06880   0.08870   0.01267  Uiso   1.00
N2     N     0.70070   0.43050   0.06610   0.01267  Uiso   1.00
N3     N     0.75580   0.74760   0.59770   0.01267  Uiso   1.00
N4     N     0.11230   0.83030   0.88340   0.01267  Uiso   1.00
N5     N     0.45570   0.65810   0.90180   0.01267  Uiso   1.00
N6     N     0.61090   0.83100   0.86230   0.01267  Uiso   1.00
N7     N     0.75390   0.91980   0.82040   0.01267  Uiso   1.00
N8     N     0.81020   0.56120   0.83620   0.01267  Uiso   1.00
N9     N     0.25930   0.76420   0.15800   0.01267  Uiso   1.00
N10    N     0.95580   0.65560   0.86070   0.01267  Uiso   1.00
N11    N     0.74200   0.43120   0.58870   0.01267  Uiso   1.00
N12    N     0.79930   0.06950   0.56610   0.01267  Uiso   1.00
N13    N     0.74420   0.75240   0.09770   0.01267  Uiso   1.00
N14    N     0.38770   0.66970   0.38340   0.01267  Uiso   1.00
N15    N     0.04430   0.84190   0.40180   0.01267  Uiso   1.00
N16    N     0.88910   0.66900   0.36230   0.01267  Uiso   1.00
N17    N     0.74610   0.58020   0.32040   0.01267  Uiso   1.00
N18    N     0.68980   0.93880   0.33620   0.01267  Uiso   1.00
N19    N     0.24070   0.73580   0.65800   0.01267  Uiso   1.00
N20    N     0.54420   0.84440   0.36070   0.01267  Uiso   1.00
N21    N     0.24200   0.93120   0.91130   0.01267  Uiso   1.00
N22    N     0.29930   0.56950   0.93390   0.01267  Uiso   1.00
N23    N     0.24420   0.25240   0.40230   0.01267  Uiso   1.00
N24    N     0.88770   0.16970   0.11660   0.01267  Uiso   1.00
N25    N     0.54430   0.34190   0.09820   0.01267  Uiso   1.00
N26    N     0.38910   0.16900   0.13770   0.01267  Uiso   1.00
N27    N     0.24610   0.08020   0.17960   0.01267  Uiso   1.00
N28    N     0.18980   0.43880   0.16380   0.01267  Uiso   1.00
N29    N     0.74070   0.23580   0.84200   0.01267  Uiso   1.00
N30    N     0.04420   0.34440   0.13930   0.01267  Uiso   1.00
N31    N     0.25800   0.56880   0.41130   0.01267  Uiso   1.00
N32    N     0.20070   0.93050   0.43390   0.01267  Uiso   1.00
N33    N     0.25580   0.24760   0.90230   0.01267  Uiso   1.00
N34    N     0.61230   0.33030   0.61660   0.01267  Uiso   1.00
N35    N     0.95570   0.15810   0.59820   0.01267  Uiso   1.00
N36    N     0.11090   0.33100   0.63770   0.01267  Uiso   1.00
N37    N     0.25390   0.41980   0.67960   0.01267  Uiso   1.00
N38    N     0.31020   0.06120   0.66380   0.01267  Uiso   1.00
N39    N     0.75930   0.26420   0.34200   0.01267  Uiso   1.00
N40    N     0.45580   0.15560   0.63930   0.01267  Uiso   1.00
O1     O     0.71860   0.89330   0.95290   0.01267  Uiso   1.00
O2     O     0.79640   0.85780   0.01370   0.01267  Uiso   1.00
O3     O     0.77310   0.65050   0.01690   0.01267  Uiso   1.00
O4     O     0.84350   0.60070   0.96110   0.01267  Uiso   1.00
O5     O     0.73780   0.76600   0.80550   0.01267  Uiso   1.00
O6     O     0.82760   0.70570   0.79660   0.01267  Uiso   1.00
O7     O     0.85210   0.84110   0.88240   0.01267  Uiso   1.00
O8     O     0.86480   0.75300   0.92900   0.01267  Uiso   1.00
O9     O     0.70240   0.74390   0.94130   0.01267  Uiso   1.00
O10    O     0.71730   0.65500   0.89580   0.01267  Uiso   1.00
O11    O     0.36210   0.75010   0.82750   0.01267  Uiso   1.00
O12    O     0.35150   0.84440   0.86490   0.01267  Uiso   1.00
O13    O     0.84560   0.09450   0.69290   0.01267  Uiso   1.00
O14    O     0.77400   0.13790   0.75390   0.01267  Uiso   1.00
O15    O     0.80810   0.34370   0.76600   0.01267  Uiso   1.00
O16    O     0.72120   0.38150   0.71630   0.01267  Uiso   1.00
O17    O     0.24260   0.78280   0.95000   0.01267  Uiso   1.00
O18    O     0.32770   0.71910   0.95990   0.01267  Uiso   1.00
O19    O     0.21790   0.65580   0.86700   0.01267  Uiso   1.00
O20    O     0.20070   0.73870   0.81290   0.01267  Uiso   1.00
O21    O     0.39990   0.73700   0.69900   0.01267  Uiso   1.00
O22    O     0.90040   0.75590   0.05610   0.01267  Uiso   1.00
O23    O     0.78140   0.60670   0.45290   0.01267  Uiso   1.00
O24    O     0.70360   0.64220   0.51370   0.01267  Uiso   1.00
O25    O     0.72690   0.84950   0.51690   0.01267  Uiso   1.00
O26    O     0.65650   0.89930   0.46110   0.01267  Uiso   1.00
O27    O     0.76220   0.73400   0.30550   0.01267  Uiso   1.00
O28    O     0.67240   0.79430   0.29660   0.01267  Uiso   1.00
O29    O     0.64790   0.65890   0.38240   0.01267  Uiso   1.00
O30    O     0.63520   0.74700   0.42900   0.01267  Uiso   1.00
O31    O     0.79760   0.75610   0.44130   0.01267  Uiso   1.00
O32    O     0.78270   0.84500   0.39580   0.01267  Uiso   1.00
O33    O     0.13790   0.74990   0.32750   0.01267  Uiso   1.00
O34    O     0.14850   0.65560   0.36490   0.01267  Uiso   1.00
O35    O     0.65440   0.40550   0.19290   0.01267  Uiso   1.00
O36    O     0.72600   0.36210   0.25390   0.01267  Uiso   1.00
O37    O     0.69190   0.15630   0.26600   0.01267  Uiso   1.00
O38    O     0.77880   0.11850   0.21630   0.01267  Uiso   1.00
O39    O     0.25740   0.71720   0.45000   0.01267  Uiso   1.00
O40    O     0.17230   0.78090   0.45990   0.01267  Uiso   1.00
O41    O     0.28210   0.84420   0.36700   0.01267  Uiso   1.00
O42    O     0.29930   0.76130   0.31290   0.01267  Uiso   1.00
O43    O     0.10010   0.76300   0.19900   0.01267  Uiso   1.00
O44    O     0.59960   0.74410   0.55610   0.01267  Uiso   1.00
O45    O     0.28140   0.10670   0.04710   0.01267  Uiso   1.00
O46    O     0.20360   0.14220   0.98630   0.01267  Uiso   1.00
O47    O     0.22690   0.34950   0.98310   0.01267  Uiso   1.00
O48    O     0.15650   0.39930   0.03890   0.01267  Uiso   1.00
O49    O     0.26220   0.23400   0.19450   0.01267  Uiso   1.00
O50    O     0.17240   0.29430   0.20340   0.01267  Uiso   1.00
O51    O     0.14790   0.15890   0.11760   0.01267  Uiso   1.00
O52    O     0.13520   0.24700   0.07100   0.01267  Uiso   1.00
O53    O     0.29760   0.25610   0.05870   0.01267  Uiso   1.00
O54    O     0.28270   0.34500   0.10420   0.01267  Uiso   1.00
O55    O     0.63790   0.24990   0.17250   0.01267  Uiso   1.00
O56    O     0.64850   0.15560   0.13510   0.01267  Uiso   1.00
O57    O     0.15440   0.90550   0.30710   0.01267  Uiso   1.00
O58    O     0.22600   0.86210   0.24610   0.01267  Uiso   1.00
O59    O     0.19190   0.65630   0.23400   0.01267  Uiso   1.00
O60    O     0.27880   0.61850   0.28370   0.01267  Uiso   1.00
O61    O     0.75740   0.21720   0.05000   0.01267  Uiso   1.00
O62    O     0.67230   0.28090   0.04010   0.01267  Uiso   1.00
O63    O     0.78210   0.34420   0.13300   0.01267  Uiso   1.00
O64    O     0.79930   0.26130   0.18710   0.01267  Uiso   1.00
O65    O     0.60010   0.26300   0.30100   0.01267  Uiso   1.00
O66    O     0.09960   0.24410   0.94390   0.01267  Uiso   1.00
O67    O     0.21860   0.39330   0.54710   0.01267  Uiso   1.00
O68    O     0.29640   0.35780   0.48630   0.01267  Uiso   1.00
O69    O     0.27310   0.15050   0.48310   0.01267  Uiso   1.00
O70    O     0.34350   0.10070   0.53890   0.01267  Uiso   1.00
O71    O     0.23780   0.26600   0.69450   0.01267  Uiso   1.00
O72    O     0.32760   0.20570   0.70340   0.01267  Uiso   1.00
O73    O     0.35210   0.34110   0.61760   0.01267  Uiso   1.00
O74    O     0.36480   0.25300   0.57100   0.01267  Uiso   1.00
O75    O     0.20240   0.24390   0.55870   0.01267  Uiso   1.00
O76    O     0.21730   0.15500   0.60420   0.01267  Uiso   1.00
O77    O     0.86210   0.25010   0.67250   0.01267  Uiso   1.00
O78    O     0.85150   0.34440   0.63510   0.01267  Uiso   1.00
O79    O     0.34560   0.59450   0.80710   0.01267  Uiso   1.00
O80    O     0.27400   0.63790   0.74610   0.01267  Uiso   1.00
O81    O     0.30810   0.84370   0.73400   0.01267  Uiso   1.00
O82    O     0.22120   0.88150   0.78370   0.01267  Uiso   1.00
O83    O     0.74260   0.28280   0.55000   0.01267  Uiso   1.00
O84    O     0.82770   0.21910   0.54010   0.01267  Uiso   1.00
O85    O     0.71790   0.15580   0.63300   0.01267  Uiso   1.00
O86    O     0.70070   0.23870   0.68710   0.01267  Uiso   1.00
O87    O     0.89990   0.23700   0.80100   0.01267  Uiso   1.00
O88    O     0.40040   0.25590   0.44390   0.01267  Uiso   1.00
Cl1    Cl    0.54840   0.52400   0.72680   0.01267  Uiso   1.00
O89    O     0.48780   0.56450   0.73770   0.01267  Uiso   1.00
O90    O     0.53800   0.48800   0.66900   0.01267  Uiso   1.00
O91    O     0.62050   0.56600   0.72400   0.01267  Uiso   1.00
O92    O     0.55300   0.47500   0.77500   0.01267  Uiso   1.00
Cl2    Cl    0.43340   0.83410   0.56260   0.01267  Uiso   1.00
Cl3    Cl    0.95160   0.97600   0.22680   0.01267  Uiso   1.00
O93    O     0.01220   0.93550   0.23770   0.01267  Uiso   1.00
O94    O     0.96200   0.01200   0.16900   0.01267  Uiso   1.00
O95    O     0.87950   0.93400   0.22400   0.01267  Uiso   1.00
O96    O     0.94700   0.02500   0.27500   0.01267  Uiso   1.00
Cl4    Cl    0.06660   0.66590   0.06260   0.01267  Uiso   1.00
Cl5    Cl    0.45160   0.47600   0.27320   0.01267  Uiso   1.00
O97    O     0.51220   0.43550   0.26230   0.01267  Uiso   1.00
O98    O     0.46200   0.51200   0.33100   0.01267  Uiso   1.00
O99    O     0.37950   0.43400   0.27600   0.01267  Uiso   1.00
O100   O     0.44700   0.52500   0.22500   0.01267  Uiso   1.00
Cl6    Cl    0.56660   0.16590   0.43740   0.01267  Uiso   1.00
Cl7    Cl    0.04840   0.02400   0.77320   0.01267  Uiso   1.00
O101   O     0.98780   0.06450   0.76230   0.01267  Uiso   1.00
O102   O     0.03800   0.98800   0.83100   0.01267  Uiso   1.00
O103   O     0.12050   0.06600   0.77600   0.01267  Uiso   1.00
O104   O     0.05300   0.97500   0.72500   0.01267  Uiso   1.00
Cl8    Cl    0.93340   0.33410   0.93740   0.01267  Uiso   1.00
