data_image0
_cell_length_a       13.361
_cell_length_b       13.789
_cell_length_c       14.017
_cell_angle_alpha    90
_cell_angle_beta     90
_cell_angle_gamma    90

_symmetry_space_group_name_H-M    "P 1"
_symmetry_int_tables_number       1

loop_
  _symmetry_equiv_pos_as_xyz
  'x, y, z'

loop_
  _atom_site_label
  _atom_site_occupancy
  _atom_site_fract_x
  _atom_site_fract_y
  _atom_site_fract_z
  _atom_site_thermal_displace_type
  _atom_site_B_iso_or_equiv
  _atom_site_type_symbol
  Co1      1.0000 0.37314  0.24059  0.98491  Biso   1.000  Co
  Co2      1.0000 0.37204  0.27507  0.73757  Biso   1.000  Co
  Co3      1.0000 0.56481  0.25931  0.35827  Biso   1.000  Co
  Co4      1.0000 0.25806  0.37372  0.34276  Biso   1.000  Co
  Co5      1.0000 0.27641  0.13222  0.37807  Biso   1.000  Co
  P1       1.0000 0.39280  0.23900  0.21630  Biso   1.000  P
  P2       1.0000 0.38730  0.28210  0.50650  Biso   1.000  P
  P3       1.0000 0.25663  0.11120  0.83250  Biso   1.000  P
  P4       1.0000 0.24011  0.39223  0.88420  Biso   1.000  P
  P5       1.0000 0.56951  0.25840  0.86200  Biso   1.000  P
  O1       1.0000 0.39800  0.20140  0.11330  Biso   1.000  O
  O2       1.0000 0.38080  0.15270  0.28520  Biso   1.000  O
  O3       1.0000 0.49040  0.29250  0.24110  Biso   1.000  O
  O4       1.0000 0.30330  0.30810  0.22600  Biso   1.000  O
  O5       1.0000 0.38740  0.31940  0.60780  Biso   1.000  O
  O6       1.0000 0.30900  0.20080  0.49730  Biso   1.000  O
  O7       1.0000 0.49300  0.24640  0.47980  Biso   1.000  O
  O8       1.0000 0.35930  0.36740  0.44180  Biso   1.000  O
  O9       1.0000 0.34160  0.12940  0.90240  Biso   1.000  O
  O10      1.0000 0.26930  0.17430  0.74350  Biso   1.000  O
  O11      1.0000 0.15550  0.13100  0.87820  Biso   1.000  O
  O12      1.0000 0.26190  0.00600  0.79810  Biso   1.000  O
  O13      1.0000 0.26150  0.33210  0.97490  Biso   1.000  O
  O14      1.0000 0.32730  0.38580  0.81410  Biso   1.000  O
  O15      1.0000 0.14290  0.35710  0.83590  Biso   1.000  O
  O16      1.0000 0.22580  0.49730  0.91650  Biso   1.000  O
  O17      1.0000 0.50490  0.29150  0.94430  Biso   1.000  O
  O18      1.0000 0.50680  0.23640  0.77340  Biso   1.000  O
  O19      1.0000 0.62760  0.16660  0.89060  Biso   1.000  O
  O20      1.0000 0.64100  0.34170  0.83670  Biso   1.000  O
  Co6      1.0000 0.62686  0.75941  0.98491  Biso   1.000  Co
  Co7      1.0000 0.62796  0.72493  0.73757  Biso   1.000  Co
  Co8      1.0000 0.43519  0.74069  0.35827  Biso   1.000  Co
  Co9      1.0000 0.74194  0.62628  0.34276  Biso   1.000  Co
  Co10     1.0000 0.72359  0.86778  0.37807  Biso   1.000  Co
  P6       1.0000 0.60720  0.76100  0.21630  Biso   1.000  P
  P7       1.0000 0.61270  0.71790  0.50650  Biso   1.000  P
  P8       1.0000 0.74337  0.88880  0.83250  Biso   1.000  P
  P9       1.0000 0.75989  0.60777  0.88420  Biso   1.000  P
  P10      1.0000 0.43049  0.74160  0.86200  Biso   1.000  P
  O21      1.0000 0.60200  0.79860  0.11330  Biso   1.000  O
  O22      1.0000 0.61920  0.84730  0.28520  Biso   1.000  O
  O23      1.0000 0.50960  0.70750  0.24110  Biso   1.000  O
  O24      1.0000 0.69670  0.69190  0.22600  Biso   1.000  O
  O25      1.0000 0.61260  0.68060  0.60780  Biso   1.000  O
  O26      1.0000 0.69100  0.79920  0.49730  Biso   1.000  O
  O27      1.0000 0.50700  0.75360  0.47980  Biso   1.000  O
  O28      1.0000 0.64070  0.63260  0.44180  Biso   1.000  O
  O29      1.0000 0.65840  0.87060  0.90240  Biso   1.000  O
  O30      1.0000 0.73070  0.82570  0.74350  Biso   1.000  O
  O31      1.0000 0.84450  0.86900  0.87820  Biso   1.000  O
  O32      1.0000 0.73810  0.99400  0.79810  Biso   1.000  O
  O33      1.0000 0.73850  0.66790  0.97490  Biso   1.000  O
  O34      1.0000 0.67270  0.61420  0.81410  Biso   1.000  O
  O35      1.0000 0.85710  0.64290  0.83590  Biso   1.000  O
  O36      1.0000 0.77420  0.50270  0.91650  Biso   1.000  O
  O37      1.0000 0.49510  0.70850  0.94430  Biso   1.000  O
  O38      1.0000 0.49320  0.76360  0.77340  Biso   1.000  O
  O39      1.0000 0.37240  0.83340  0.89060  Biso   1.000  O
  O40      1.0000 0.35900  0.65830  0.83670  Biso   1.000  O
  Co11     1.0000 0.87314  0.25941  0.48491  Biso   1.000  Co
  Co12     1.0000 0.87204  0.22493  0.23757  Biso   1.000  Co
  Co13     1.0000 0.06481  0.24069  0.85827  Biso   1.000  Co
  Co14     1.0000 0.75806  0.12628  0.84276  Biso   1.000  Co
  Co15     1.0000 0.77641  0.36778  0.87807  Biso   1.000  Co
  P11      1.0000 0.89280  0.26100  0.71630  Biso   1.000  P
  P12      1.0000 0.88730  0.21790  0.00650  Biso   1.000  P
  P13      1.0000 0.75663  0.38880  0.33250  Biso   1.000  P
  P14      1.0000 0.74011  0.10777  0.38420  Biso   1.000  P
  P15      1.0000 0.06951  0.24160  0.36200  Biso   1.000  P
  O41      1.0000 0.89800  0.29860  0.61330  Biso   1.000  O
  O42      1.0000 0.88080  0.34730  0.78520  Biso   1.000  O
  O43      1.0000 0.99040  0.20750  0.74110  Biso   1.000  O
  O44      1.0000 0.80330  0.19190  0.72600  Biso   1.000  O
  O45      1.0000 0.88740  0.18060  0.10780  Biso   1.000  O
  O46      1.0000 0.80900  0.29920  0.99730  Biso   1.000  O
  O47      1.0000 0.99300  0.25360  0.97980  Biso   1.000  O
  O48      1.0000 0.85930  0.13260  0.94180  Biso   1.000  O
  O49      1.0000 0.84160  0.37060  0.40240  Biso   1.000  O
  O50      1.0000 0.76930  0.32570  0.24350  Biso   1.000  O
  O51      1.0000 0.65550  0.36900  0.37820  Biso   1.000  O
  O52      1.0000 0.76190  0.49400  0.29810  Biso   1.000  O
  O53      1.0000 0.76150  0.16790  0.47490  Biso   1.000  O
  O54      1.0000 0.82730  0.11420  0.31410  Biso   1.000  O
  O55      1.0000 0.64290  0.14290  0.33590  Biso   1.000  O
  O56      1.0000 0.72580  0.00270  0.41650  Biso   1.000  O
  O57      1.0000 0.00490  0.20850  0.44430  Biso   1.000  O
  O58      1.0000 0.00680  0.26360  0.27340  Biso   1.000  O
  O59      1.0000 0.12760  0.33340  0.39060  Biso   1.000  O
  O60      1.0000 0.14100  0.15830  0.33670  Biso   1.000  O
  Co16     1.0000 0.12686  0.74059  0.48491  Biso   1.000  Co
  Co17     1.0000 0.12796  0.77507  0.23757  Biso   1.000  Co
  Co18     1.0000 0.93519  0.75931  0.85827  Biso   1.000  Co
  Co19     1.0000 0.24194  0.87372  0.84276  Biso   1.000  Co
  Co20     1.0000 0.22359  0.63222  0.87807  Biso   1.000  Co
  P16      1.0000 0.10720  0.73900  0.71630  Biso   1.000  P
  P17      1.0000 0.11270  0.78210  0.00650  Biso   1.000  P
  P18      1.0000 0.24337  0.61120  0.33250  Biso   1.000  P
  P19      1.0000 0.25989  0.89223  0.38420  Biso   1.000  P
  P20      1.0000 0.93049  0.75840  0.36200  Biso   1.000  P
  O61      1.0000 0.10200  0.70140  0.61330  Biso   1.000  O
  O62      1.0000 0.11920  0.65270  0.78520  Biso   1.000  O
  O63      1.0000 0.00960  0.79250  0.74110  Biso   1.000  O
  O64      1.0000 0.19670  0.80810  0.72600  Biso   1.000  O
  O65      1.0000 0.11260  0.81940  0.10780  Biso   1.000  O
  O66      1.0000 0.19100  0.70080  0.99730  Biso   1.000  O
  O67      1.0000 0.00700  0.74640  0.97980  Biso   1.000  O
  O68      1.0000 0.14070  0.86740  0.94180  Biso   1.000  O
  O69      1.0000 0.15840  0.62940  0.40240  Biso   1.000  O
  O70      1.0000 0.23070  0.67430  0.24350  Biso   1.000  O
  O71      1.0000 0.34450  0.63100  0.37820  Biso   1.000  O
  O72      1.0000 0.23810  0.50600  0.29810  Biso   1.000  O
  O73      1.0000 0.23850  0.83210  0.47490  Biso   1.000  O
  O74      1.0000 0.17270  0.88580  0.31410  Biso   1.000  O
  O75      1.0000 0.35710  0.85710  0.33590  Biso   1.000  O
  O76      1.0000 0.27420  0.99730  0.41650  Biso   1.000  O
  O77      1.0000 0.99510  0.79150  0.44430  Biso   1.000  O
  O78      1.0000 0.99320  0.73640  0.27340  Biso   1.000  O
  O79      1.0000 0.87240  0.66660  0.39060  Biso   1.000  O
  O80      1.0000 0.85900  0.84170  0.33670  Biso   1.000  O
