data_image0
_cell_length_a       9.88
_cell_length_b       9.88
_cell_length_c       13.333
_cell_angle_alpha    90
_cell_angle_beta     90
_cell_angle_gamma    90

_symmetry_space_group_name_H-M    "P 1"
_symmetry_int_tables_number       1

loop_
  _symmetry_equiv_pos_as_xyz
  'x, y, z'

loop_
  _atom_site_label
  _atom_site_occupancy
  _atom_site_fract_x
  _atom_site_fract_y
  _atom_site_fract_z
  _atom_site_thermal_displace_type
  _atom_site_B_iso_or_equiv
  _atom_site_type_symbol
  Co1      1.0000 0.89604  0.14064  0.69823  Biso   1.000  Co
  P1       1.0000 0.67284  0.38461  0.67912  Biso   1.000  P
  O1       1.0000 0.88580  0.05880  0.56480  Biso   1.000  O
  O2       1.0000 0.81010  0.31650  0.67880  Biso   1.000  O
  O3       1.0000 0.58300  0.32350  0.76200  Biso   1.000  O
  O4       1.0000 0.69500  0.53660  0.69880  Biso   1.000  O
  O5       1.0000 0.60690  0.36680  0.57530  Biso   1.000  O
  Co2      1.0000 0.10396  0.85936  0.69823  Biso   1.000  Co
  P2       1.0000 0.32716  0.61539  0.67912  Biso   1.000  P
  O6       1.0000 0.11420  0.94120  0.56480  Biso   1.000  O
  O7       1.0000 0.18990  0.68350  0.67880  Biso   1.000  O
  O8       1.0000 0.41700  0.67650  0.76200  Biso   1.000  O
  O9       1.0000 0.30500  0.46340  0.69880  Biso   1.000  O
  O10      1.0000 0.39310  0.63320  0.57530  Biso   1.000  O
  Co3      1.0000 0.14064  0.10396  0.30177  Biso   1.000  Co
  P3       1.0000 0.38461  0.32716  0.32088  Biso   1.000  P
  O11      1.0000 0.05880  0.11420  0.43520  Biso   1.000  O
  O12      1.0000 0.31650  0.18990  0.32120  Biso   1.000  O
  O13      1.0000 0.32350  0.41700  0.23800  Biso   1.000  O
  O14      1.0000 0.53660  0.30500  0.30120  Biso   1.000  O
  O15      1.0000 0.36680  0.39310  0.42470  Biso   1.000  O
  Co4      1.0000 0.85936  0.89604  0.30177  Biso   1.000  Co
  P4       1.0000 0.61539  0.67284  0.32088  Biso   1.000  P
  O16      1.0000 0.94120  0.88580  0.43520  Biso   1.000  O
  O17      1.0000 0.68350  0.81010  0.32120  Biso   1.000  O
  O18      1.0000 0.67650  0.58300  0.23800  Biso   1.000  O
  O19      1.0000 0.46340  0.69500  0.30120  Biso   1.000  O
  O20      1.0000 0.63320  0.60690  0.42470  Biso   1.000  O
  Co5      1.0000 0.60396  0.64064  0.80177  Biso   1.000  Co
  P5       1.0000 0.82716  0.88461  0.82088  Biso   1.000  P
  O21      1.0000 0.61420  0.55880  0.93520  Biso   1.000  O
  O22      1.0000 0.68990  0.81650  0.82120  Biso   1.000  O
  O23      1.0000 0.91700  0.82350  0.73800  Biso   1.000  O
  O24      1.0000 0.80500  0.03660  0.80120  Biso   1.000  O
  O25      1.0000 0.89310  0.86680  0.92470  Biso   1.000  O
  Co6      1.0000 0.39604  0.35936  0.80177  Biso   1.000  Co
  P6       1.0000 0.17284  0.11539  0.82088  Biso   1.000  P
  O26      1.0000 0.38580  0.44120  0.93520  Biso   1.000  O
  O27      1.0000 0.31010  0.18350  0.82120  Biso   1.000  O
  O28      1.0000 0.08300  0.17650  0.73800  Biso   1.000  O
  O29      1.0000 0.19500  0.96340  0.80120  Biso   1.000  O
  O30      1.0000 0.10690  0.13320  0.92470  Biso   1.000  O
  Co7      1.0000 0.35936  0.60396  0.19823  Biso   1.000  Co
  P7       1.0000 0.11539  0.82716  0.17912  Biso   1.000  P
  O31      1.0000 0.44120  0.61420  0.06480  Biso   1.000  O
  O32      1.0000 0.18350  0.68990  0.17880  Biso   1.000  O
  O33      1.0000 0.17650  0.91700  0.26200  Biso   1.000  O
  O34      1.0000 0.96340  0.80500  0.19880  Biso   1.000  O
  O35      1.0000 0.13320  0.89310  0.07530  Biso   1.000  O
  Co8      1.0000 0.64064  0.39604  0.19823  Biso   1.000  Co
  P8       1.0000 0.88461  0.17284  0.17912  Biso   1.000  P
  O36      1.0000 0.55880  0.38580  0.06480  Biso   1.000  O
  O37      1.0000 0.81650  0.31010  0.17880  Biso   1.000  O
  O38      1.0000 0.82350  0.08300  0.26200  Biso   1.000  O
  O39      1.0000 0.03660  0.19500  0.19880  Biso   1.000  O
  O40      1.0000 0.86680  0.10690  0.07530  Biso   1.000  O
  Co9      1.0000 0.50000  0.50000  0.50000  Biso   1.000  Co
  Co10     1.0000 0.00000  0.00000  0.00000  Biso   1.000  Co
  P9       1.0000 0.00000  0.00000  0.50000  Biso   1.000  P
  P10      1.0000 0.50000  0.50000  0.00000  Biso   1.000  P
