data_image0
_cell_length_a       9.4537
_cell_length_b       9.1655
_cell_length_c       9.757
_cell_angle_alpha    90
_cell_angle_beta     117.448
_cell_angle_gamma    90

_symmetry_space_group_name_H-M    "P 1"
_symmetry_int_tables_number       1

loop_
  _symmetry_equiv_pos_as_xyz
  'x, y, z'

loop_
  _atom_site_label
  _atom_site_occupancy
  _atom_site_fract_x
  _atom_site_fract_y
  _atom_site_fract_z
  _atom_site_thermal_displace_type
  _atom_site_B_iso_or_equiv
  _atom_site_type_symbol
  P1       1.0000 0.82937  0.89818  0.06219  Biso   1.000  P
  P2       1.0000 0.14603  0.65534  0.47196  Biso   1.000  P
  O1       1.0000 0.99860  0.85020  0.11350  Biso   1.000  O
  O2       1.0000 0.24890  0.73010  0.41090  Biso   1.000  O
  O3       1.0000 0.74350  0.93940  0.89100  Biso   1.000  O
  O4       1.0000 0.25420  0.55010  0.59580  Biso   1.000  O
  O5       1.0000 0.99870  0.58360  0.34690  Biso   1.000  O
  O6       1.0000 0.72740  0.78050  0.08720  Biso   1.000  O
  O7       1.0000 0.83970  0.03530  0.16330  Biso   1.000  O
  H1       1.0000 0.89150  0.09950  0.14860  Biso   1.000  H
  O8       1.0000 0.08830  0.77550  0.55240  Biso   1.000  O
  H2       1.0000 0.16610  0.81600  0.62090  Biso   1.000  H
  P3       1.0000 0.67063  0.89818  0.43781  Biso   1.000  P
  P4       1.0000 0.35397  0.65534  0.02804  Biso   1.000  P
  O9       1.0000 0.50140  0.85020  0.38650  Biso   1.000  O
  O10      1.0000 0.25110  0.73010  0.08910  Biso   1.000  O
  O11      1.0000 0.75650  0.93940  0.60900  Biso   1.000  O
  O12      1.0000 0.24580  0.55010  0.90420  Biso   1.000  O
  O13      1.0000 0.50130  0.58360  0.15310  Biso   1.000  O
  O14      1.0000 0.77260  0.78050  0.41280  Biso   1.000  O
  O15      1.0000 0.66030  0.03530  0.33670  Biso   1.000  O
  H3       1.0000 0.60850  0.09950  0.35140  Biso   1.000  H
  O16      1.0000 0.41170  0.77550  0.94760  Biso   1.000  O
  H4       1.0000 0.33390  0.81600  0.87910  Biso   1.000  H
  P5       1.0000 0.17063  0.10182  0.93781  Biso   1.000  P
  P6       1.0000 0.85397  0.34466  0.52804  Biso   1.000  P
  O17      1.0000 0.00140  0.14980  0.88650  Biso   1.000  O
  O18      1.0000 0.75110  0.26990  0.58910  Biso   1.000  O
  O19      1.0000 0.25650  0.06060  0.10900  Biso   1.000  O
  O20      1.0000 0.74580  0.44990  0.40420  Biso   1.000  O
  O21      1.0000 0.00130  0.41640  0.65310  Biso   1.000  O
  O22      1.0000 0.27260  0.21950  0.91280  Biso   1.000  O
  O23      1.0000 0.16030  0.96470  0.83670  Biso   1.000  O
  H5       1.0000 0.10850  0.90050  0.85140  Biso   1.000  H
  O24      1.0000 0.91170  0.22450  0.44760  Biso   1.000  O
  H6       1.0000 0.83390  0.18400  0.37910  Biso   1.000  H
  P7       1.0000 0.32937  0.10182  0.56219  Biso   1.000  P
  P8       1.0000 0.64603  0.34466  0.97196  Biso   1.000  P
  O25      1.0000 0.49860  0.14980  0.61350  Biso   1.000  O
  O26      1.0000 0.74890  0.26990  0.91090  Biso   1.000  O
  O27      1.0000 0.24350  0.06060  0.39100  Biso   1.000  O
  O28      1.0000 0.75420  0.44990  0.09580  Biso   1.000  O
  O29      1.0000 0.49870  0.41640  0.84690  Biso   1.000  O
  O30      1.0000 0.22740  0.21950  0.58720  Biso   1.000  O
  O31      1.0000 0.33970  0.96470  0.66330  Biso   1.000  O
  H7       1.0000 0.39150  0.90050  0.64860  Biso   1.000  H
  O32      1.0000 0.58830  0.22450  0.05240  Biso   1.000  O
  H8       1.0000 0.66610  0.18400  0.12090  Biso   1.000  H
  In1      1.0000 0.25000  0.88312  0.25000  Biso   1.000  In
  In2      1.0000 0.75000  0.11688  0.75000  Biso   1.000  In
  In3      1.0000 0.25000  0.39082  0.75000  Biso   1.000  In
  In4      1.0000 0.75000  0.60918  0.25000  Biso   1.000  In
