data_image0
_cell_length_a       9.444
_cell_length_b       9.156
_cell_length_c       9.756
_cell_angle_alpha    90
_cell_angle_beta     117.459
_cell_angle_gamma    90

_symmetry_space_group_name_H-M    "P 1"
_symmetry_int_tables_number       1

loop_
  _symmetry_equiv_pos_as_xyz
  'x, y, z'

loop_
  _atom_site_label
  _atom_site_occupancy
  _atom_site_fract_x
  _atom_site_fract_y
  _atom_site_fract_z
  _atom_site_thermal_displace_type
  _atom_site_B_iso_or_equiv
  _atom_site_type_symbol
  P1       1.0000 0.85350  0.34470  0.02730  Biso   1.000  P
  P2       1.0000 0.32960  0.10130  0.06240  Biso   1.000  P
  O1       1.0000 0.00080  0.41610  0.15200  Biso   1.000  O
  O2       1.0000 0.74720  0.44930  0.90430  Biso   1.000  O
  O3       1.0000 0.75070  0.26870  0.08870  Biso   1.000  O
  O4       1.0000 0.24070  0.06040  0.88980  Biso   1.000  O
  O5       1.0000 0.34240  0.96400  0.16490  Biso   1.000  O
  O6       1.0000 0.22790  0.22010  0.08710  Biso   1.000  O
  O7       1.0000 0.49720  0.15000  0.11270  Biso   1.000  O
  O8       1.0000 0.91100  0.22410  0.94620  Biso   1.000  O
  H1       1.0000 0.93780  0.16510  0.00450  Biso   1.000  H
  H2       1.0000 0.26670  0.88200  0.09510  Biso   1.000  H
  P3       1.0000 0.64650  0.34470  0.47270  Biso   1.000  P
  P4       1.0000 0.17040  0.10130  0.43760  Biso   1.000  P
  O9       1.0000 0.49920  0.41610  0.34800  Biso   1.000  O
  O10      1.0000 0.75280  0.44930  0.59570  Biso   1.000  O
  O11      1.0000 0.74930  0.26870  0.41130  Biso   1.000  O
  O12      1.0000 0.25930  0.06040  0.61020  Biso   1.000  O
  O13      1.0000 0.15760  0.96400  0.33510  Biso   1.000  O
  O14      1.0000 0.27210  0.22010  0.41290  Biso   1.000  O
  O15      1.0000 0.00280  0.15000  0.38730  Biso   1.000  O
  O16      1.0000 0.58900  0.22410  0.55380  Biso   1.000  O
  H3       1.0000 0.56220  0.16510  0.49550  Biso   1.000  H
  H4       1.0000 0.23330  0.88200  0.40490  Biso   1.000  H
  P5       1.0000 0.14650  0.65530  0.97270  Biso   1.000  P
  P6       1.0000 0.67040  0.89870  0.93760  Biso   1.000  P
  O17      1.0000 0.99920  0.58390  0.84800  Biso   1.000  O
  O18      1.0000 0.25280  0.55070  0.09570  Biso   1.000  O
  O19      1.0000 0.24930  0.73130  0.91130  Biso   1.000  O
  O20      1.0000 0.75930  0.93960  0.11020  Biso   1.000  O
  O21      1.0000 0.65760  0.03600  0.83510  Biso   1.000  O
  O22      1.0000 0.77210  0.77990  0.91290  Biso   1.000  O
  O23      1.0000 0.50280  0.85000  0.88730  Biso   1.000  O
  O24      1.0000 0.08900  0.77590  0.05380  Biso   1.000  O
  H5       1.0000 0.06220  0.83490  0.99550  Biso   1.000  H
  H6       1.0000 0.73330  0.11800  0.90490  Biso   1.000  H
  P7       1.0000 0.35350  0.65530  0.52730  Biso   1.000  P
  P8       1.0000 0.82960  0.89870  0.56240  Biso   1.000  P
  O25      1.0000 0.50080  0.58390  0.65200  Biso   1.000  O
  O26      1.0000 0.24720  0.55070  0.40430  Biso   1.000  O
  O27      1.0000 0.25070  0.73130  0.58870  Biso   1.000  O
  O28      1.0000 0.74070  0.93960  0.38980  Biso   1.000  O
  O29      1.0000 0.84240  0.03600  0.66490  Biso   1.000  O
  O30      1.0000 0.72790  0.77990  0.58710  Biso   1.000  O
  O31      1.0000 0.99720  0.85000  0.61270  Biso   1.000  O
  O32      1.0000 0.41100  0.77590  0.44620  Biso   1.000  O
  H7       1.0000 0.43780  0.83490  0.50450  Biso   1.000  H
  H8       1.0000 0.76670  0.11800  0.59510  Biso   1.000  H
  In1      1.0000 0.25000  0.39060  0.25000  Biso   1.000  In
  In2      1.0000 0.75000  0.60940  0.75000  Biso   1.000  In
  In3      1.0000 0.75000  0.11720  0.25000  Biso   1.000  In
  In4      1.0000 0.25000  0.88280  0.75000  Biso   1.000  In
