data_image0
_cell_length_a       9.69
_cell_length_b       14.4331
_cell_length_c       29.8442
_cell_angle_alpha    90
_cell_angle_beta     90
_cell_angle_gamma    90

_symmetry_space_group_name_H-M    "P 1"
_symmetry_int_tables_number       1

loop_
  _symmetry_equiv_pos_as_xyz
  'x, y, z'

loop_
  _atom_site_label
  _atom_site_occupancy
  _atom_site_fract_x
  _atom_site_fract_y
  _atom_site_fract_z
  _atom_site_thermal_displace_type
  _atom_site_B_iso_or_equiv
  _atom_site_type_symbol
  Mn1      1.0000 0.13053  0.23551  0.70051  Biso   1.000  Mn
  Mn2      1.0000 0.24975  0.45728  0.54606  Biso   1.000  Mn
  P1       1.0000 0.06314  0.29612  0.59580  Biso   1.000  P
  P2       1.0000 0.28638  0.53050  0.65278  Biso   1.000  P
  O1       1.0000 0.32540  0.50290  0.60690  Biso   1.000  O
  O2       1.0000 0.39390  0.49025  0.68610  Biso   1.000  O
  H1       1.0000 0.37130  0.43750  0.69320  Biso   1.000  H
  O3       1.0000 0.14270  0.49169  0.66564  Biso   1.000  O
  H2       1.0000 0.13630  0.43790  0.65700  Biso   1.000  H
  O4       1.0000 0.28170  0.63260  0.65879  Biso   1.000  O
  O5       1.0000 0.18810  0.32170  0.56932  Biso   1.000  O
  O6       1.0000 0.07590  0.32026  0.64442  Biso   1.000  O
  O7       1.0000 0.93110  0.34434  0.57759  Biso   1.000  O
  H3       1.0000 0.95040  0.39680  0.56910  Biso   1.000  H
  O8       1.0000 0.02840  0.19072  0.58922  Biso   1.000  O
  H4       1.0000 0.07410  0.15970  0.60680  Biso   1.000  H
  O9       1.0000 0.44610  0.39624  0.52473  Biso   1.000  O
  O10      1.0000 0.64490  0.43180  0.49199  Biso   1.000  O
  O11      1.0000 0.13050  0.42305  0.48493  Biso   1.000  O
  O12      1.0000 0.93200  0.45352  0.45081  Biso   1.000  O
  O13      1.0000 0.92710  0.17063  0.70349  Biso   1.000  O
  O14      1.0000 0.01570  0.31810  0.75027  Biso   1.000  O
  O15      1.0000 0.73160  0.17220  0.74166  Biso   1.000  O
  O16      1.0000 0.82200  0.31753  0.78965  Biso   1.000  O
  C1       1.0000 0.52600  0.45020  0.50465  Biso   1.000  C
  C2       1.0000 0.01870  0.46420  0.48163  Biso   1.000  C
  C3       1.0000 0.84890  0.20200  0.73337  Biso   1.000  C
  C4       1.0000 0.90140  0.28650  0.76006  Biso   1.000  C
  Mn3      1.0000 0.36947  0.76449  0.20051  Biso   1.000  Mn
  Mn4      1.0000 0.25025  0.54272  0.04606  Biso   1.000  Mn
  P3       1.0000 0.43686  0.70388  0.09580  Biso   1.000  P
  P4       1.0000 0.21362  0.46950  0.15278  Biso   1.000  P
  O17      1.0000 0.17460  0.49710  0.10690  Biso   1.000  O
  O18      1.0000 0.10610  0.50975  0.18610  Biso   1.000  O
  H5       1.0000 0.12870  0.56250  0.19320  Biso   1.000  H
  O19      1.0000 0.35730  0.50831  0.16564  Biso   1.000  O
  H6       1.0000 0.36370  0.56210  0.15700  Biso   1.000  H
  O20      1.0000 0.21830  0.36740  0.15879  Biso   1.000  O
  O21      1.0000 0.31190  0.67830  0.06932  Biso   1.000  O
  O22      1.0000 0.42410  0.67974  0.14442  Biso   1.000  O
  O23      1.0000 0.56890  0.65566  0.07759  Biso   1.000  O
  H7       1.0000 0.54960  0.60320  0.06910  Biso   1.000  H
  O24      1.0000 0.47160  0.80928  0.08922  Biso   1.000  O
  H8       1.0000 0.42590  0.84030  0.10680  Biso   1.000  H
  O25      1.0000 0.05390  0.60376  0.02473  Biso   1.000  O
  O26      1.0000 0.85510  0.56820  0.99199  Biso   1.000  O
  O27      1.0000 0.36950  0.57695  0.98493  Biso   1.000  O
  O28      1.0000 0.56800  0.54648  0.95081  Biso   1.000  O
  O29      1.0000 0.57290  0.82937  0.20349  Biso   1.000  O
  O30      1.0000 0.48430  0.68190  0.25027  Biso   1.000  O
  O31      1.0000 0.76840  0.82780  0.24166  Biso   1.000  O
  O32      1.0000 0.67800  0.68247  0.28965  Biso   1.000  O
  C5       1.0000 0.97400  0.54980  0.00465  Biso   1.000  C
  C6       1.0000 0.48130  0.53580  0.98163  Biso   1.000  C
  C7       1.0000 0.65110  0.79800  0.23337  Biso   1.000  C
  C8       1.0000 0.59860  0.71350  0.26006  Biso   1.000  C
  Mn5      1.0000 0.86947  0.73551  0.79949  Biso   1.000  Mn
  Mn6      1.0000 0.75025  0.95728  0.95394  Biso   1.000  Mn
  P5       1.0000 0.93686  0.79612  0.90420  Biso   1.000  P
  P6       1.0000 0.71362  0.03050  0.84722  Biso   1.000  P
  O33      1.0000 0.67460  0.00290  0.89310  Biso   1.000  O
  O34      1.0000 0.60610  0.99025  0.81390  Biso   1.000  O
  H9       1.0000 0.62870  0.93750  0.80680  Biso   1.000  H
  O35      1.0000 0.85730  0.99169  0.83436  Biso   1.000  O
  H10      1.0000 0.86370  0.93790  0.84300  Biso   1.000  H
  O36      1.0000 0.71830  0.13260  0.84121  Biso   1.000  O
  O37      1.0000 0.81190  0.82170  0.93068  Biso   1.000  O
  O38      1.0000 0.92410  0.82026  0.85558  Biso   1.000  O
  O39      1.0000 0.06890  0.84434  0.92241  Biso   1.000  O
  H11      1.0000 0.04960  0.89680  0.93090  Biso   1.000  H
  O40      1.0000 0.97160  0.69072  0.91078  Biso   1.000  O
  H12      1.0000 0.92590  0.65970  0.89320  Biso   1.000  H
  O41      1.0000 0.55390  0.89624  0.97527  Biso   1.000  O
  O42      1.0000 0.35510  0.93180  0.00801  Biso   1.000  O
  O43      1.0000 0.86950  0.92305  0.01507  Biso   1.000  O
  O44      1.0000 0.06800  0.95352  0.04919  Biso   1.000  O
  O45      1.0000 0.07290  0.67063  0.79651  Biso   1.000  O
  O46      1.0000 0.98430  0.81810  0.74973  Biso   1.000  O
  O47      1.0000 0.26840  0.67220  0.75834  Biso   1.000  O
  O48      1.0000 0.17800  0.81753  0.71035  Biso   1.000  O
  C9       1.0000 0.47400  0.95020  0.99535  Biso   1.000  C
  C10      1.0000 0.98130  0.96420  0.01837  Biso   1.000  C
  C11      1.0000 0.15110  0.70200  0.76663  Biso   1.000  C
  C12      1.0000 0.09860  0.78650  0.73994  Biso   1.000  C
  Mn7      1.0000 0.63053  0.26449  0.29949  Biso   1.000  Mn
  Mn8      1.0000 0.74975  0.04272  0.45394  Biso   1.000  Mn
  P7       1.0000 0.56314  0.20388  0.40420  Biso   1.000  P
  P8       1.0000 0.78638  0.96950  0.34722  Biso   1.000  P
  O49      1.0000 0.82540  0.99710  0.39310  Biso   1.000  O
  O50      1.0000 0.89390  0.00975  0.31390  Biso   1.000  O
  H13      1.0000 0.87130  0.06250  0.30680  Biso   1.000  H
  O51      1.0000 0.64270  0.00831  0.33436  Biso   1.000  O
  H14      1.0000 0.63630  0.06210  0.34300  Biso   1.000  H
  O52      1.0000 0.78170  0.86740  0.34121  Biso   1.000  O
  O53      1.0000 0.68810  0.17830  0.43068  Biso   1.000  O
  O54      1.0000 0.57590  0.17974  0.35558  Biso   1.000  O
  O55      1.0000 0.43110  0.15566  0.42241  Biso   1.000  O
  H15      1.0000 0.45040  0.10320  0.43090  Biso   1.000  H
  O56      1.0000 0.52840  0.30928  0.41078  Biso   1.000  O
  H16      1.0000 0.57410  0.34030  0.39320  Biso   1.000  H
  O57      1.0000 0.94610  0.10376  0.47527  Biso   1.000  O
  O58      1.0000 0.14490  0.06820  0.50801  Biso   1.000  O
  O59      1.0000 0.63050  0.07695  0.51507  Biso   1.000  O
  O60      1.0000 0.43200  0.04648  0.54919  Biso   1.000  O
  O61      1.0000 0.42710  0.32937  0.29651  Biso   1.000  O
  O62      1.0000 0.51570  0.18190  0.24973  Biso   1.000  O
  O63      1.0000 0.23160  0.32780  0.25834  Biso   1.000  O
  O64      1.0000 0.32200  0.18247  0.21035  Biso   1.000  O
  C13      1.0000 0.02600  0.04980  0.49535  Biso   1.000  C
  C14      1.0000 0.51870  0.03580  0.51837  Biso   1.000  C
  C15      1.0000 0.34890  0.29800  0.26663  Biso   1.000  C
  C16      1.0000 0.40140  0.21350  0.23994  Biso   1.000  C
  Mn9      1.0000 0.86947  0.76449  0.29949  Biso   1.000  Mn
  Mn10     1.0000 0.75025  0.54272  0.45394  Biso   1.000  Mn
  P9       1.0000 0.93686  0.70388  0.40420  Biso   1.000  P
  P10      1.0000 0.71362  0.46950  0.34722  Biso   1.000  P
  O65      1.0000 0.67460  0.49710  0.39310  Biso   1.000  O
  O66      1.0000 0.60610  0.50975  0.31390  Biso   1.000  O
  H17      1.0000 0.62870  0.56250  0.30680  Biso   1.000  H
  O67      1.0000 0.85730  0.50831  0.33436  Biso   1.000  O
  H18      1.0000 0.86370  0.56210  0.34300  Biso   1.000  H
  O68      1.0000 0.71830  0.36740  0.34121  Biso   1.000  O
  O69      1.0000 0.81190  0.67830  0.43068  Biso   1.000  O
  O70      1.0000 0.92410  0.67974  0.35558  Biso   1.000  O
  O71      1.0000 0.06890  0.65566  0.42241  Biso   1.000  O
  H19      1.0000 0.04960  0.60320  0.43090  Biso   1.000  H
  O72      1.0000 0.97160  0.80928  0.41078  Biso   1.000  O
  H20      1.0000 0.92590  0.84030  0.39320  Biso   1.000  H
  O73      1.0000 0.55390  0.60376  0.47527  Biso   1.000  O
  O74      1.0000 0.35510  0.56820  0.50801  Biso   1.000  O
  O75      1.0000 0.86950  0.57695  0.51507  Biso   1.000  O
  O76      1.0000 0.06800  0.54648  0.54919  Biso   1.000  O
  O77      1.0000 0.07290  0.82937  0.29651  Biso   1.000  O
  O78      1.0000 0.98430  0.68190  0.24973  Biso   1.000  O
  O79      1.0000 0.26840  0.82780  0.25834  Biso   1.000  O
  O80      1.0000 0.17800  0.68247  0.21035  Biso   1.000  O
  C17      1.0000 0.47400  0.54980  0.49535  Biso   1.000  C
  C18      1.0000 0.98130  0.53580  0.51837  Biso   1.000  C
  C19      1.0000 0.15110  0.79800  0.26663  Biso   1.000  C
  C20      1.0000 0.09860  0.71350  0.23994  Biso   1.000  C
  Mn11     1.0000 0.63053  0.23551  0.79949  Biso   1.000  Mn
  Mn12     1.0000 0.74975  0.45728  0.95394  Biso   1.000  Mn
  P11      1.0000 0.56314  0.29612  0.90420  Biso   1.000  P
  P12      1.0000 0.78638  0.53050  0.84722  Biso   1.000  P
  O81      1.0000 0.82540  0.50290  0.89310  Biso   1.000  O
  O82      1.0000 0.89390  0.49025  0.81390  Biso   1.000  O
  H21      1.0000 0.87130  0.43750  0.80680  Biso   1.000  H
  O83      1.0000 0.64270  0.49169  0.83436  Biso   1.000  O
  H22      1.0000 0.63630  0.43790  0.84300  Biso   1.000  H
  O84      1.0000 0.78170  0.63260  0.84121  Biso   1.000  O
  O85      1.0000 0.68810  0.32170  0.93068  Biso   1.000  O
  O86      1.0000 0.57590  0.32026  0.85558  Biso   1.000  O
  O87      1.0000 0.43110  0.34434  0.92241  Biso   1.000  O
  H23      1.0000 0.45040  0.39680  0.93090  Biso   1.000  H
  O88      1.0000 0.52840  0.19072  0.91078  Biso   1.000  O
  H24      1.0000 0.57410  0.15970  0.89320  Biso   1.000  H
  O89      1.0000 0.94610  0.39624  0.97527  Biso   1.000  O
  O90      1.0000 0.14490  0.43180  0.00801  Biso   1.000  O
  O91      1.0000 0.63050  0.42305  0.01507  Biso   1.000  O
  O92      1.0000 0.43200  0.45352  0.04919  Biso   1.000  O
  O93      1.0000 0.42710  0.17063  0.79651  Biso   1.000  O
  O94      1.0000 0.51570  0.31810  0.74973  Biso   1.000  O
  O95      1.0000 0.23160  0.17220  0.75834  Biso   1.000  O
  O96      1.0000 0.32200  0.31753  0.71035  Biso   1.000  O
  C21      1.0000 0.02600  0.45020  0.99535  Biso   1.000  C
  C22      1.0000 0.51870  0.46420  0.01837  Biso   1.000  C
  C23      1.0000 0.34890  0.20200  0.76663  Biso   1.000  C
  C24      1.0000 0.40140  0.28650  0.73994  Biso   1.000  C
  Mn13     1.0000 0.13053  0.26449  0.20051  Biso   1.000  Mn
  Mn14     1.0000 0.24975  0.04272  0.04606  Biso   1.000  Mn
  P13      1.0000 0.06314  0.20388  0.09580  Biso   1.000  P
  P14      1.0000 0.28638  0.96950  0.15278  Biso   1.000  P
  O97      1.0000 0.32540  0.99710  0.10690  Biso   1.000  O
  O98      1.0000 0.39390  0.00975  0.18610  Biso   1.000  O
  H25      1.0000 0.37130  0.06250  0.19320  Biso   1.000  H
  O99      1.0000 0.14270  0.00831  0.16564  Biso   1.000  O
  H26      1.0000 0.13630  0.06210  0.15700  Biso   1.000  H
  O100     1.0000 0.28170  0.86740  0.15879  Biso   1.000  O
  O101     1.0000 0.18810  0.17830  0.06932  Biso   1.000  O
  O102     1.0000 0.07590  0.17974  0.14442  Biso   1.000  O
  O103     1.0000 0.93110  0.15566  0.07759  Biso   1.000  O
  H27      1.0000 0.95040  0.10320  0.06910  Biso   1.000  H
  O104     1.0000 0.02840  0.30928  0.08922  Biso   1.000  O
  H28      1.0000 0.07410  0.34030  0.10680  Biso   1.000  H
  O105     1.0000 0.44610  0.10376  0.02473  Biso   1.000  O
  O106     1.0000 0.64490  0.06820  0.99199  Biso   1.000  O
  O107     1.0000 0.13050  0.07695  0.98493  Biso   1.000  O
  O108     1.0000 0.93200  0.04648  0.95081  Biso   1.000  O
  O109     1.0000 0.92710  0.32937  0.20349  Biso   1.000  O
  O110     1.0000 0.01570  0.18190  0.25027  Biso   1.000  O
  O111     1.0000 0.73160  0.32780  0.24166  Biso   1.000  O
  O112     1.0000 0.82200  0.18247  0.28965  Biso   1.000  O
  C25      1.0000 0.52600  0.04980  0.00465  Biso   1.000  C
  C26      1.0000 0.01870  0.03580  0.98163  Biso   1.000  C
  C27      1.0000 0.84890  0.29800  0.23337  Biso   1.000  C
  C28      1.0000 0.90140  0.21350  0.26006  Biso   1.000  C
  Mn15     1.0000 0.36947  0.73551  0.70051  Biso   1.000  Mn
  Mn16     1.0000 0.25025  0.95728  0.54606  Biso   1.000  Mn
  P15      1.0000 0.43686  0.79612  0.59580  Biso   1.000  P
  P16      1.0000 0.21362  0.03050  0.65278  Biso   1.000  P
  O113     1.0000 0.17460  0.00290  0.60690  Biso   1.000  O
  O114     1.0000 0.10610  0.99025  0.68610  Biso   1.000  O
  H29      1.0000 0.12870  0.93750  0.69320  Biso   1.000  H
  O115     1.0000 0.35730  0.99169  0.66564  Biso   1.000  O
  H30      1.0000 0.36370  0.93790  0.65700  Biso   1.000  H
  O116     1.0000 0.21830  0.13260  0.65879  Biso   1.000  O
  O117     1.0000 0.31190  0.82170  0.56932  Biso   1.000  O
  O118     1.0000 0.42410  0.82026  0.64442  Biso   1.000  O
  O119     1.0000 0.56890  0.84434  0.57759  Biso   1.000  O
  H31      1.0000 0.54960  0.89680  0.56910  Biso   1.000  H
  O120     1.0000 0.47160  0.69072  0.58922  Biso   1.000  O
  H32      1.0000 0.42590  0.65970  0.60680  Biso   1.000  H
  O121     1.0000 0.05390  0.89624  0.52473  Biso   1.000  O
  O122     1.0000 0.85510  0.93180  0.49199  Biso   1.000  O
  O123     1.0000 0.36950  0.92305  0.48493  Biso   1.000  O
  O124     1.0000 0.56800  0.95352  0.45081  Biso   1.000  O
  O125     1.0000 0.57290  0.67063  0.70349  Biso   1.000  O
  O126     1.0000 0.48430  0.81810  0.75027  Biso   1.000  O
  O127     1.0000 0.76840  0.67220  0.74166  Biso   1.000  O
  O128     1.0000 0.67800  0.81753  0.78965  Biso   1.000  O
  C29      1.0000 0.97400  0.95020  0.50465  Biso   1.000  C
  C30      1.0000 0.48130  0.96420  0.48163  Biso   1.000  C
  C31      1.0000 0.65110  0.70200  0.73337  Biso   1.000  C
  C32      1.0000 0.59860  0.78650  0.76006  Biso   1.000  C
