data_image0
_cell_length_a       9.4178
_cell_length_b       15.4572
_cell_length_c       18.2451
_cell_angle_alpha    95.399
_cell_angle_beta     91.352
_cell_angle_gamma    90.312

_symmetry_space_group_name_H-M    "P 1"
_symmetry_int_tables_number       1

loop_
  _symmetry_equiv_pos_as_xyz
  'x, y, z'

loop_
  _atom_site_label
  _atom_site_occupancy
  _atom_site_fract_x
  _atom_site_fract_y
  _atom_site_fract_z
  _atom_site_thermal_displace_type
  _atom_site_B_iso_or_equiv
  _atom_site_type_symbol
  Zn1      1.0000 0.25341  0.08870  0.02975  Biso   1.000  Zn
  Zn2      1.0000 0.12112  0.41788  0.11214  Biso   1.000  Zn
  Zn3      1.0000 0.11070  0.58318  0.38737  Biso   1.000  Zn
  Zn4      1.0000 0.25004  0.91445  0.46921  Biso   1.000  Zn
  O1       1.0000 0.31240  0.21170  0.00590  Biso   1.000  O
  O2       1.0000 0.16660  0.16040  0.11920  Biso   1.000  O
  O3       1.0000 0.26690  0.34970  0.04490  Biso   1.000  O
  O4       1.0000 0.09730  0.29600  0.14800  Biso   1.000  O
  O5       1.0000 0.97820  0.47090  0.18950  Biso   1.000  O
  O6       1.0000 0.26100  0.46960  0.19650  Biso   1.000  O
  O7       1.0000 0.97220  0.53060  0.30460  Biso   1.000  O
  O8       1.0000 0.25670  0.53680  0.30900  Biso   1.000  O
  O9       1.0000 0.08690  0.70470  0.35190  Biso   1.000  O
  O10      1.0000 0.25320  0.65430  0.46060  Biso   1.000  O
  O11      1.0000 0.15880  0.84130  0.38040  Biso   1.000  O
  O12      1.0000 0.30380  0.79100  0.49690  Biso   1.000  O
  O13      1.0000 0.36220  0.02380  0.94018  Biso   1.000  O
  O14      1.0000 0.05420  0.09750  0.96810  Biso   1.000  O
  O15      1.0000 0.55610  0.94580  0.91786  Biso   1.000  O
  O16      1.0000 0.85000  0.02610  0.94920  Biso   1.000  O
  O17      1.0000 0.96020  0.39840  0.02830  Biso   1.000  O
  O18      1.0000 0.86150  0.46770  0.93910  Biso   1.000  O
  O19      1.0000 0.95330  0.59890  0.46840  Biso   1.000  O
  O20      1.0000 0.86510  0.53150  0.55980  Biso   1.000  O
  O21      1.0000 0.43400  0.94850  0.41750  Biso   1.000  O
  O22      1.0000 0.14690  0.02860  0.45120  Biso   1.000  O
  O23      1.0000 0.94520  0.09940  0.47190  Biso   1.000  O
  O24      1.0000 0.63120  0.02660  0.44016  Biso   1.000  O
  C1       1.0000 0.25580  0.26940  0.04810  Biso   1.000  C
  C2       1.0000 0.16500  0.23900  0.11070  Biso   1.000  C
  C3       1.0000 0.03390  0.50120  0.24770  Biso   1.000  C
  C4       1.0000 0.19900  0.50270  0.25220  Biso   1.000  C
  C5       1.0000 0.15650  0.76340  0.39050  Biso   1.000  C
  C6       1.0000 0.24510  0.73300  0.45500  Biso   1.000  C
  C7       1.0000 0.47740  0.99120  0.95960  Biso   1.000  C
  C8       1.0000 0.97190  0.03500  0.97620  Biso   1.000  C
  C9       1.0000 0.94850  0.46130  0.99070  Biso   1.000  C
  C10      1.0000 0.94720  0.53710  0.50760  Biso   1.000  C
  C11      1.0000 0.02720  0.03630  0.47790  Biso   1.000  C
  C12      1.0000 0.51740  0.99250  0.45930  Biso   1.000  C
  Zn5      1.0000 0.74659  0.91130  0.97025  Biso   1.000  Zn
  Zn6      1.0000 0.87888  0.58212  0.88786  Biso   1.000  Zn
  Zn7      1.0000 0.88930  0.41682  0.61263  Biso   1.000  Zn
  Zn8      1.0000 0.74996  0.08555  0.53079  Biso   1.000  Zn
  O25      1.0000 0.68760  0.78830  0.99410  Biso   1.000  O
  O26      1.0000 0.83340  0.83960  0.88080  Biso   1.000  O
  O27      1.0000 0.73310  0.65030  0.95510  Biso   1.000  O
  O28      1.0000 0.90270  0.70400  0.85200  Biso   1.000  O
  O29      1.0000 0.02180  0.52910  0.81050  Biso   1.000  O
  O30      1.0000 0.73900  0.53040  0.80350  Biso   1.000  O
  O31      1.0000 0.02780  0.46940  0.69540  Biso   1.000  O
  O32      1.0000 0.74330  0.46320  0.69100  Biso   1.000  O
  O33      1.0000 0.91310  0.29530  0.64810  Biso   1.000  O
  O34      1.0000 0.74680  0.34570  0.53940  Biso   1.000  O
  O35      1.0000 0.84120  0.15870  0.61960  Biso   1.000  O
  O36      1.0000 0.69620  0.20900  0.50310  Biso   1.000  O
  O37      1.0000 0.63780  0.97620  0.05982  Biso   1.000  O
  O38      1.0000 0.94580  0.90250  0.03190  Biso   1.000  O
  O39      1.0000 0.44390  0.05420  0.08214  Biso   1.000  O
  O40      1.0000 0.15000  0.97390  0.05080  Biso   1.000  O
  O41      1.0000 0.03980  0.60160  0.97170  Biso   1.000  O
  O42      1.0000 0.13850  0.53230  0.06090  Biso   1.000  O
  O43      1.0000 0.04670  0.40110  0.53160  Biso   1.000  O
  O44      1.0000 0.13490  0.46850  0.44020  Biso   1.000  O
  O45      1.0000 0.56600  0.05150  0.58250  Biso   1.000  O
  O46      1.0000 0.85310  0.97140  0.54880  Biso   1.000  O
  O47      1.0000 0.05480  0.90060  0.52810  Biso   1.000  O
  O48      1.0000 0.36880  0.97340  0.55984  Biso   1.000  O
  C13      1.0000 0.74420  0.73060  0.95190  Biso   1.000  C
  C14      1.0000 0.83500  0.76100  0.88930  Biso   1.000  C
  C15      1.0000 0.96610  0.49880  0.75230  Biso   1.000  C
  C16      1.0000 0.80100  0.49730  0.74780  Biso   1.000  C
  C17      1.0000 0.84350  0.23660  0.60950  Biso   1.000  C
  C18      1.0000 0.75490  0.26700  0.54500  Biso   1.000  C
  C19      1.0000 0.52260  0.00880  0.04040  Biso   1.000  C
  C20      1.0000 0.02810  0.96500  0.02380  Biso   1.000  C
  C21      1.0000 0.05150  0.53870  0.00930  Biso   1.000  C
  C22      1.0000 0.05280  0.46290  0.49240  Biso   1.000  C
  C23      1.0000 0.97280  0.96370  0.52210  Biso   1.000  C
  C24      1.0000 0.48260  0.00750  0.54070  Biso   1.000  C
