data_WECFAN01_clean
_audit_creation_date              2014-07-02
_audit_creation_method            'Materials Studio'
_symmetry_space_group_name_H-M    'P1'
_symmetry_Int_Tables_number       1
_symmetry_cell_setting            triclinic
loop_
_symmetry_equiv_pos_as_xyz
  x,y,z
_cell_length_a                    8.2760
_cell_length_b                    14.3600
_cell_length_c                    14.7500
_cell_angle_alpha                 90.0000
_cell_angle_beta                  90.0000
_cell_angle_gamma                 99.7460
loop_
_atom_site_label
_atom_site_type_symbol
_atom_site_fract_x
_atom_site_fract_y
_atom_site_fract_z
_atom_site_U_iso_or_equiv
_atom_site_adp_type
_atom_site_occupancy
Co1    Co    0.90725   0.12009   0.08239   0.01267  Uiso   1.00
Co2    Co    0.59275   0.87991   0.58239   0.01267  Uiso   1.00
Co3    Co    0.09275   0.87991   0.91761   0.01267  Uiso   1.00
Co4    Co    0.40725   0.12009   0.41761   0.01267  Uiso   1.00
H1     H     0.49340   0.83950   0.30180   0.01267  Uiso   1.00
H2     H     0.65250   0.92490   0.05650   0.01267  Uiso   1.00
H3     H     0.50390   0.76490   0.07570   0.01267  Uiso   1.00
H4     H     0.34890   0.80180   0.11210   0.01267  Uiso   1.00
H5     H     0.35220   0.71430   0.23810   0.01267  Uiso   1.00
H6     H     0.34490   0.65050   0.15140   0.01267  Uiso   1.00
H7     H     0.51060   0.67890   0.20390   0.01267  Uiso   1.00
H8     H     0.25230   0.21010   0.10630   0.01267  Uiso   1.00
H9     H     0.44050   0.34090   0.07670   0.01267  Uiso   1.00
H10    H     0.10980   0.43760   0.92610   0.01267  Uiso   1.00
H11    H     0.92610   0.30680   0.96190   0.01267  Uiso   1.00
H12    H     0.36900   0.55150   0.99960   0.01267  Uiso   1.00
H13    H     0.42910   0.50350   0.91330   0.01267  Uiso   1.00
H14    H     0.00660   0.16050   0.80180   0.01267  Uiso   1.00
H15    H     0.84750   0.07510   0.55650   0.01267  Uiso   1.00
H16    H     0.99610   0.23510   0.57570   0.01267  Uiso   1.00
H17    H     0.15110   0.19820   0.61210   0.01267  Uiso   1.00
H18    H     0.14780   0.28570   0.73810   0.01267  Uiso   1.00
H19    H     0.15510   0.34950   0.65140   0.01267  Uiso   1.00
H20    H     0.98940   0.32110   0.70390   0.01267  Uiso   1.00
H21    H     0.24770   0.78990   0.60630   0.01267  Uiso   1.00
H22    H     0.05950   0.65910   0.57670   0.01267  Uiso   1.00
H23    H     0.39020   0.56240   0.42610   0.01267  Uiso   1.00
H24    H     0.57390   0.69320   0.46190   0.01267  Uiso   1.00
H25    H     0.13100   0.44850   0.49960   0.01267  Uiso   1.00
H26    H     0.07090   0.49650   0.41330   0.01267  Uiso   1.00
H27    H     0.50660   0.16050   0.69820   0.01267  Uiso   1.00
H28    H     0.34750   0.07510   0.94350   0.01267  Uiso   1.00
H29    H     0.49610   0.23510   0.92430   0.01267  Uiso   1.00
H30    H     0.65110   0.19820   0.88790   0.01267  Uiso   1.00
H31    H     0.64780   0.28570   0.76190   0.01267  Uiso   1.00
H32    H     0.65510   0.34950   0.84860   0.01267  Uiso   1.00
H33    H     0.48940   0.32110   0.79610   0.01267  Uiso   1.00
H34    H     0.74770   0.78990   0.89370   0.01267  Uiso   1.00
H35    H     0.55950   0.65910   0.92330   0.01267  Uiso   1.00
H36    H     0.89020   0.56240   0.07390   0.01267  Uiso   1.00
H37    H     0.07390   0.69320   0.03810   0.01267  Uiso   1.00
H38    H     0.63100   0.44850   0.00040   0.01267  Uiso   1.00
H39    H     0.57090   0.49650   0.08670   0.01267  Uiso   1.00
H40    H     0.99340   0.83950   0.19820   0.01267  Uiso   1.00
H41    H     0.15250   0.92490   0.44350   0.01267  Uiso   1.00
H42    H     0.00390   0.76490   0.42430   0.01267  Uiso   1.00
H43    H     0.84890   0.80180   0.38790   0.01267  Uiso   1.00
H44    H     0.85220   0.71430   0.26190   0.01267  Uiso   1.00
H45    H     0.84490   0.65050   0.34860   0.01267  Uiso   1.00
H46    H     0.01060   0.67890   0.29610   0.01267  Uiso   1.00
H47    H     0.75230   0.21010   0.39370   0.01267  Uiso   1.00
H48    H     0.94050   0.34090   0.42330   0.01267  Uiso   1.00
H49    H     0.60980   0.43760   0.57390   0.01267  Uiso   1.00
H50    H     0.42610   0.30680   0.53810   0.01267  Uiso   1.00
H51    H     0.86900   0.55150   0.50040   0.01267  Uiso   1.00
H52    H     0.92910   0.50350   0.58670   0.01267  Uiso   1.00
C1     C     0.76440   0.01920   0.24490   0.01267  Uiso   1.00
C2     C     0.66340   0.95950   0.30260   0.01267  Uiso   1.00
C3     C     0.56110   0.88140   0.26440   0.01267  Uiso   1.00
C4     C     0.55990   0.86610   0.17310   0.01267  Uiso   1.00
C5     C     0.65850   0.93220   0.11910   0.01267  Uiso   1.00
C6     C     0.89720   0.09850   0.27720   0.01267  Uiso   1.00
C7     C     0.64840   0.97590   0.40420   0.01267  Uiso   1.00
C8     C     0.45060   0.78210   0.13030   0.01267  Uiso   1.00
C9     C     0.41140   0.69970   0.18540   0.01267  Uiso   1.00
C10    C     0.22180   0.25700   0.06970   0.01267  Uiso   1.00
C11    C     0.33580   0.33610   0.05230   0.01267  Uiso   1.00
C12    C     0.29960   0.40660   0.00100   0.01267  Uiso   1.00
C13    C     0.14090   0.39240   0.96460   0.01267  Uiso   1.00
C14    C     0.03190   0.31300   0.98520   0.01267  Uiso   1.00
C15    C     0.41650   0.49810   0.97860   0.01267  Uiso   1.00
C16    C     0.73560   0.98080   0.74490   0.01267  Uiso   1.00
C17    C     0.83660   0.04050   0.80260   0.01267  Uiso   1.00
C18    C     0.93890   0.11860   0.76440   0.01267  Uiso   1.00
C19    C     0.94010   0.13390   0.67310   0.01267  Uiso   1.00
C20    C     0.84150   0.06780   0.61910   0.01267  Uiso   1.00
C21    C     0.60280   0.90150   0.77720   0.01267  Uiso   1.00
C22    C     0.85160   0.02410   0.90420   0.01267  Uiso   1.00
C23    C     0.04940   0.21790   0.63030   0.01267  Uiso   1.00
C24    C     0.08860   0.30030   0.68540   0.01267  Uiso   1.00
C25    C     0.27820   0.74300   0.56970   0.01267  Uiso   1.00
C26    C     0.16420   0.66390   0.55230   0.01267  Uiso   1.00
C27    C     0.20040   0.59340   0.50100   0.01267  Uiso   1.00
C28    C     0.35910   0.60760   0.46460   0.01267  Uiso   1.00
C29    C     0.46810   0.68700   0.48520   0.01267  Uiso   1.00
C30    C     0.08350   0.50190   0.47860   0.01267  Uiso   1.00
C31    C     0.23560   0.98080   0.75510   0.01267  Uiso   1.00
C32    C     0.33660   0.04050   0.69740   0.01267  Uiso   1.00
C33    C     0.43890   0.11860   0.73560   0.01267  Uiso   1.00
C34    C     0.44010   0.13390   0.82690   0.01267  Uiso   1.00
C35    C     0.34150   0.06780   0.88090   0.01267  Uiso   1.00
C36    C     0.10280   0.90150   0.72280   0.01267  Uiso   1.00
C37    C     0.35160   0.02410   0.59580   0.01267  Uiso   1.00
C38    C     0.54940   0.21790   0.86970   0.01267  Uiso   1.00
C39    C     0.58860   0.30030   0.81460   0.01267  Uiso   1.00
C40    C     0.77820   0.74300   0.93030   0.01267  Uiso   1.00
C41    C     0.66420   0.66390   0.94770   0.01267  Uiso   1.00
C42    C     0.70040   0.59340   0.99900   0.01267  Uiso   1.00
C43    C     0.85910   0.60760   0.03540   0.01267  Uiso   1.00
C44    C     0.96810   0.68700   0.01480   0.01267  Uiso   1.00
C45    C     0.58350   0.50190   0.02140   0.01267  Uiso   1.00
C46    C     0.26440   0.01920   0.25510   0.01267  Uiso   1.00
C47    C     0.16340   0.95950   0.19740   0.01267  Uiso   1.00
C48    C     0.06110   0.88140   0.23560   0.01267  Uiso   1.00
C49    C     0.05990   0.86610   0.32690   0.01267  Uiso   1.00
C50    C     0.15850   0.93220   0.38090   0.01267  Uiso   1.00
C51    C     0.39720   0.09850   0.22280   0.01267  Uiso   1.00
C52    C     0.14840   0.97590   0.09580   0.01267  Uiso   1.00
C53    C     0.95060   0.78210   0.36970   0.01267  Uiso   1.00
C54    C     0.91140   0.69970   0.31460   0.01267  Uiso   1.00
C55    C     0.72180   0.25700   0.43030   0.01267  Uiso   1.00
C56    C     0.83580   0.33610   0.44770   0.01267  Uiso   1.00
C57    C     0.79960   0.40660   0.49900   0.01267  Uiso   1.00
C58    C     0.64090   0.39240   0.53540   0.01267  Uiso   1.00
C59    C     0.53190   0.31300   0.51480   0.01267  Uiso   1.00
C60    C     0.91650   0.49810   0.52140   0.01267  Uiso   1.00
N1     N     0.76230   0.00640   0.15320   0.01267  Uiso   1.00
N2     N     0.06980   0.24400   0.03690   0.01267  Uiso   1.00
N3     N     0.73770   0.99360   0.65320   0.01267  Uiso   1.00
N4     N     0.43020   0.75600   0.53690   0.01267  Uiso   1.00
N5     N     0.23770   0.99360   0.84680   0.01267  Uiso   1.00
N6     N     0.93020   0.75600   0.96310   0.01267  Uiso   1.00
N7     N     0.26230   0.00640   0.34680   0.01267  Uiso   1.00
N8     N     0.56980   0.24400   0.46310   0.01267  Uiso   1.00
O1     O     0.95900   0.15760   0.21710   0.01267  Uiso   1.00
O2     O     0.93490   0.09980   0.35780   0.01267  Uiso   1.00
O3     O     0.60660   0.05010   0.42940   0.01267  Uiso   1.00
O4     O     0.67350   0.90900   0.45240   0.01267  Uiso   1.00
O5     O     0.54100   0.84240   0.71710   0.01267  Uiso   1.00
O6     O     0.56510   0.90020   0.85780   0.01267  Uiso   1.00
O7     O     0.89340   0.94990   0.92940   0.01267  Uiso   1.00
O8     O     0.82650   0.09100   0.95240   0.01267  Uiso   1.00
O9     O     0.04100   0.84240   0.78290   0.01267  Uiso   1.00
O10    O     0.06510   0.90020   0.64220   0.01267  Uiso   1.00
O11    O     0.39340   0.94990   0.57060   0.01267  Uiso   1.00
O12    O     0.32650   0.09100   0.54760   0.01267  Uiso   1.00
O13    O     0.45900   0.15760   0.28290   0.01267  Uiso   1.00
O14    O     0.43490   0.09980   0.14220   0.01267  Uiso   1.00
O15    O     0.10660   0.05010   0.07060   0.01267  Uiso   1.00
O16    O     0.17350   0.90900   0.04760   0.01267  Uiso   1.00
