data_WECFAN_clean
_audit_creation_date              2014-07-02
_audit_creation_method            'Materials Studio'
_symmetry_space_group_name_H-M    'P1'
_symmetry_Int_Tables_number       1
_symmetry_cell_setting            triclinic
loop_
_symmetry_equiv_pos_as_xyz
  x,y,z
_cell_length_a                    8.3852
_cell_length_b                    14.7110
_cell_length_c                    15.7710
_cell_angle_alpha                 90.0000
_cell_angle_beta                  102.4850
_cell_angle_gamma                 90.0000
loop_
_atom_site_label
_atom_site_type_symbol
_atom_site_fract_x
_atom_site_fract_y
_atom_site_fract_z
_atom_site_U_iso_or_equiv
_atom_site_adp_type
_atom_site_occupancy
Co1    Co    0.16833   0.91724   0.61030   0.01267  Uiso   1.00
Co2    Co    0.33167   0.41724   0.38970   0.01267  Uiso   1.00
Co3    Co    0.83167   0.08276   0.38970   0.01267  Uiso   1.00
Co4    Co    0.66833   0.58276   0.61030   0.01267  Uiso   1.00
H1     H     0.39830   0.69880   0.35630   0.01267  Uiso   1.00
H2     H     0.28390   0.94420   0.43120   0.01267  Uiso   1.00
H3     H     0.34720   0.93220   0.29370   0.01267  Uiso   1.00
H4     H     0.51750   0.88470   0.32000   0.01267  Uiso   1.00
H5     H     0.43370   0.76930   0.22790   0.01267  Uiso   1.00
H6     H     0.38980   0.86030   0.17640   0.01267  Uiso   1.00
H7     H     0.25350   0.80530   0.20820   0.01267  Uiso   1.00
H8     H     0.89200   0.89810   0.70480   0.01267  Uiso   1.00
H9     H     0.81610   0.93470   0.83110   0.01267  Uiso   1.00
H10    H     0.21150   0.08930   0.89420   0.01267  Uiso   1.00
H11    H     0.28080   0.04640   0.76760   0.01267  Uiso   1.00
H12    H     0.84700   0.03540   0.95810   0.01267  Uiso   1.00
H13    H     0.00590   0.09430   0.98500   0.01267  Uiso   1.00
H14    H     0.10170   0.19880   0.64370   0.01267  Uiso   1.00
H15    H     0.21610   0.44420   0.56880   0.01267  Uiso   1.00
H16    H     0.15280   0.43220   0.70630   0.01267  Uiso   1.00
H17    H     0.98250   0.38470   0.68000   0.01267  Uiso   1.00
H18    H     0.06630   0.26930   0.77210   0.01267  Uiso   1.00
H19    H     0.11020   0.36030   0.82360   0.01267  Uiso   1.00
H20    H     0.24650   0.30530   0.79180   0.01267  Uiso   1.00
H21    H     0.60800   0.39810   0.29520   0.01267  Uiso   1.00
H22    H     0.68390   0.43470   0.16890   0.01267  Uiso   1.00
H23    H     0.28850   0.58930   0.10580   0.01267  Uiso   1.00
H24    H     0.21920   0.54640   0.23240   0.01267  Uiso   1.00
H25    H     0.65300   0.53540   0.04190   0.01267  Uiso   1.00
H26    H     0.49410   0.59430   0.01500   0.01267  Uiso   1.00
H27    H     0.60170   0.30120   0.64370   0.01267  Uiso   1.00
H28    H     0.71610   0.05580   0.56880   0.01267  Uiso   1.00
H29    H     0.65280   0.06780   0.70630   0.01267  Uiso   1.00
H30    H     0.48250   0.11530   0.68000   0.01267  Uiso   1.00
H31    H     0.56630   0.23070   0.77210   0.01267  Uiso   1.00
H32    H     0.61020   0.13970   0.82360   0.01267  Uiso   1.00
H33    H     0.74650   0.19470   0.79180   0.01267  Uiso   1.00
H34    H     0.10800   0.10190   0.29520   0.01267  Uiso   1.00
H35    H     0.18390   0.06530   0.16890   0.01267  Uiso   1.00
H36    H     0.78850   0.91070   0.10580   0.01267  Uiso   1.00
H37    H     0.71920   0.95360   0.23240   0.01267  Uiso   1.00
H38    H     0.15300   0.96460   0.04190   0.01267  Uiso   1.00
H39    H     0.99410   0.90570   0.01500   0.01267  Uiso   1.00
H40    H     0.89830   0.80120   0.35630   0.01267  Uiso   1.00
H41    H     0.78390   0.55580   0.43120   0.01267  Uiso   1.00
H42    H     0.84720   0.56780   0.29370   0.01267  Uiso   1.00
H43    H     0.01750   0.61530   0.32000   0.01267  Uiso   1.00
H44    H     0.93370   0.73070   0.22790   0.01267  Uiso   1.00
H45    H     0.88980   0.63970   0.17640   0.01267  Uiso   1.00
H46    H     0.75350   0.69470   0.20820   0.01267  Uiso   1.00
H47    H     0.39200   0.60190   0.70480   0.01267  Uiso   1.00
H48    H     0.31610   0.56530   0.83110   0.01267  Uiso   1.00
H49    H     0.71150   0.41070   0.89420   0.01267  Uiso   1.00
H50    H     0.78080   0.45360   0.76760   0.01267  Uiso   1.00
H51    H     0.34700   0.46460   0.95810   0.01267  Uiso   1.00
H52    H     0.50590   0.40570   0.98500   0.01267  Uiso   1.00
C1     C     0.24580   0.75524   0.51901   0.01267  Uiso   1.00
C2     C     0.31000   0.69779   0.46483   0.01267  Uiso   1.00
C3     C     0.35840   0.73612   0.39454   0.01267  Uiso   1.00
C4     C     0.34870   0.82889   0.37958   0.01267  Uiso   1.00
C5     C     0.28920   0.88147   0.43891   0.01267  Uiso   1.00
C6     C     0.16880   0.72203   0.59166   0.01267  Uiso   1.00
C7     C     0.33620   0.59681   0.47953   0.01267  Uiso   1.00
C8     C     0.40090   0.87350   0.30383   0.01267  Uiso   1.00
C9     C     0.36650   0.82270   0.22210   0.01267  Uiso   1.00
C10    C     0.95950   0.93600   0.74420   0.01267  Uiso   1.00
C11    C     0.91300   0.95800   0.82020   0.01267  Uiso   1.00
C12    C     0.00800   0.01370   0.87994   0.01267  Uiso   1.00
C13    C     0.14550   0.04840   0.85740   0.01267  Uiso   1.00
C14    C     0.18600   0.02280   0.78060   0.01267  Uiso   1.00
C15    C     0.96490   0.03440   0.96570   0.01267  Uiso   1.00
C16    C     0.25420   0.25524   0.48099   0.01267  Uiso   1.00
C17    C     0.19000   0.19779   0.53517   0.01267  Uiso   1.00
C18    C     0.14160   0.23612   0.60546   0.01267  Uiso   1.00
C19    C     0.15130   0.32889   0.62042   0.01267  Uiso   1.00
C20    C     0.21080   0.38147   0.56109   0.01267  Uiso   1.00
C21    C     0.33120   0.22203   0.40834   0.01267  Uiso   1.00
C22    C     0.16380   0.09681   0.52047   0.01267  Uiso   1.00
C23    C     0.09910   0.37350   0.69617   0.01267  Uiso   1.00
C24    C     0.13350   0.32270   0.77790   0.01267  Uiso   1.00
C25    C     0.54050   0.43600   0.25580   0.01267  Uiso   1.00
C26    C     0.58700   0.45800   0.17980   0.01267  Uiso   1.00
C27    C     0.49200   0.51370   0.12006   0.01267  Uiso   1.00
C28    C     0.35450   0.54840   0.14260   0.01267  Uiso   1.00
C29    C     0.31400   0.52280   0.21940   0.01267  Uiso   1.00
C30    C     0.53510   0.53440   0.03430   0.01267  Uiso   1.00
C31    C     0.75420   0.24476   0.48099   0.01267  Uiso   1.00
C32    C     0.69000   0.30221   0.53517   0.01267  Uiso   1.00
C33    C     0.64160   0.26388   0.60546   0.01267  Uiso   1.00
C34    C     0.65130   0.17111   0.62042   0.01267  Uiso   1.00
C35    C     0.71080   0.11853   0.56109   0.01267  Uiso   1.00
C36    C     0.83120   0.27797   0.40834   0.01267  Uiso   1.00
C37    C     0.66380   0.40319   0.52047   0.01267  Uiso   1.00
C38    C     0.59910   0.12650   0.69617   0.01267  Uiso   1.00
C39    C     0.63350   0.17730   0.77790   0.01267  Uiso   1.00
C40    C     0.04050   0.06400   0.25580   0.01267  Uiso   1.00
C41    C     0.08700   0.04200   0.17980   0.01267  Uiso   1.00
C42    C     0.99200   0.98630   0.12006   0.01267  Uiso   1.00
C43    C     0.85450   0.95160   0.14260   0.01267  Uiso   1.00
C44    C     0.81400   0.97720   0.21940   0.01267  Uiso   1.00
C45    C     0.03510   0.96560   0.03430   0.01267  Uiso   1.00
C46    C     0.74580   0.74476   0.51901   0.01267  Uiso   1.00
C47    C     0.81000   0.80221   0.46483   0.01267  Uiso   1.00
C48    C     0.85840   0.76388   0.39454   0.01267  Uiso   1.00
C49    C     0.84870   0.67111   0.37958   0.01267  Uiso   1.00
C50    C     0.78920   0.61853   0.43891   0.01267  Uiso   1.00
C51    C     0.66880   0.77797   0.59166   0.01267  Uiso   1.00
C52    C     0.83620   0.90319   0.47953   0.01267  Uiso   1.00
C53    C     0.90090   0.62650   0.30383   0.01267  Uiso   1.00
C54    C     0.86650   0.67730   0.22210   0.01267  Uiso   1.00
C55    C     0.45950   0.56400   0.74420   0.01267  Uiso   1.00
C56    C     0.41300   0.54200   0.82020   0.01267  Uiso   1.00
C57    C     0.50800   0.48630   0.87994   0.01267  Uiso   1.00
C58    C     0.64550   0.45160   0.85740   0.01267  Uiso   1.00
C59    C     0.68600   0.47720   0.78060   0.01267  Uiso   1.00
C60    C     0.46490   0.46560   0.96570   0.01267  Uiso   1.00
N1     N     0.23900   0.84578   0.50680   0.01267  Uiso   1.00
N2     N     0.09670   0.96638   0.72459   0.01267  Uiso   1.00
N3     N     0.26100   0.34578   0.49320   0.01267  Uiso   1.00
N4     N     0.40330   0.46638   0.27541   0.01267  Uiso   1.00
N5     N     0.76100   0.15422   0.49320   0.01267  Uiso   1.00
N6     N     0.90330   0.03362   0.27541   0.01267  Uiso   1.00
N7     N     0.73900   0.65422   0.50680   0.01267  Uiso   1.00
N8     N     0.59670   0.53362   0.72459   0.01267  Uiso   1.00
O1     O     0.14260   0.78217   0.64524   0.01267  Uiso   1.00
O2     O     0.13430   0.64056   0.59393   0.01267  Uiso   1.00
O3     O     0.42740   0.56984   0.54811   0.01267  Uiso   1.00
O4     O     0.26800   0.54697   0.41739   0.01267  Uiso   1.00
O5     O     0.35740   0.28217   0.35476   0.01267  Uiso   1.00
O6     O     0.36570   0.14056   0.40607   0.01267  Uiso   1.00
O7     O     0.07260   0.06984   0.45189   0.01267  Uiso   1.00
O8     O     0.23200   0.04697   0.58261   0.01267  Uiso   1.00
O9     O     0.85740   0.21783   0.35476   0.01267  Uiso   1.00
O10    O     0.86570   0.35944   0.40607   0.01267  Uiso   1.00
O11    O     0.57260   0.43016   0.45189   0.01267  Uiso   1.00
O12    O     0.73200   0.45303   0.58261   0.01267  Uiso   1.00
O13    O     0.64260   0.71783   0.64524   0.01267  Uiso   1.00
O14    O     0.63430   0.85944   0.59393   0.01267  Uiso   1.00
O15    O     0.92740   0.93016   0.54811   0.01267  Uiso   1.00
O16    O     0.76800   0.95303   0.41739   0.01267  Uiso   1.00
