data_WECSAZ01_clean
_audit_creation_date              2014-07-02
_audit_creation_method            'Materials Studio'
_symmetry_space_group_name_H-M    'P1'
_symmetry_Int_Tables_number       1
_symmetry_cell_setting            triclinic
loop_
_symmetry_equiv_pos_as_xyz
  x,y,z
_cell_length_a                    8.6130
_cell_length_b                    10.1220
_cell_length_c                    11.0950
_cell_angle_alpha                 65.2050
_cell_angle_beta                  71.6090
_cell_angle_gamma                 78.6170
loop_
_atom_site_label
_atom_site_type_symbol
_atom_site_fract_x
_atom_site_fract_y
_atom_site_fract_z
_atom_site_U_iso_or_equiv
_atom_site_adp_type
_atom_site_occupancy
Eu1    Eu    0.36782   0.06061   0.34674   0.01267  Uiso   1.00
Eu2    Eu    0.63218   0.93939   0.65326   0.01267  Uiso   1.00
H1     H     0.57590   0.71690   0.31760   0.01267  Uiso   1.00
H2     H     0.49150   0.47320   0.71700   0.01267  Uiso   1.00
H3     H     0.95770   0.14840   0.12040   0.01267  Uiso   1.00
H4     H     0.78470   0.87940   0.02000   0.01267  Uiso   1.00
H5     H     0.27050   0.43450   0.91570   0.01267  Uiso   1.00
H6     H     0.86630   0.38590   0.22900   0.01267  Uiso   1.00
H7     H     0.42410   0.28310   0.68240   0.01267  Uiso   1.00
H8     H     0.50850   0.52680   0.28300   0.01267  Uiso   1.00
H9     H     0.04230   0.85160   0.87960   0.01267  Uiso   1.00
H10    H     0.21530   0.12060   0.98000   0.01267  Uiso   1.00
H11    H     0.72950   0.56550   0.08430   0.01267  Uiso   1.00
H12    H     0.13370   0.61410   0.77100   0.01267  Uiso   1.00
C1     C     0.57140   0.73530   0.54960   0.01267  Uiso   1.00
C2     C     0.53110   0.61350   0.52400   0.01267  Uiso   1.00
C3     C     0.54360   0.63050   0.39150   0.01267  Uiso   1.00
C4     C     0.49310   0.48500   0.62880   0.01267  Uiso   1.00
C5     C     0.67900   0.04110   0.16790   0.01267  Uiso   1.00
C6     C     0.84540   0.01780   0.08200   0.01267  Uiso   1.00
C7     C     0.97490   0.08910   0.07140   0.01267  Uiso   1.00
C8     C     0.87070   0.92820   0.01180   0.01267  Uiso   1.00
C9     C     0.17420   0.26640   0.18260   0.01267  Uiso   1.00
C10    C     0.08200   0.38840   0.08780   0.01267  Uiso   1.00
C11    C     0.16080   0.46080   0.94940   0.01267  Uiso   1.00
C12    C     0.92000   0.43130   0.13660   0.01267  Uiso   1.00
C13    C     0.42860   0.26470   0.45040   0.01267  Uiso   1.00
C14    C     0.46890   0.38650   0.47600   0.01267  Uiso   1.00
C15    C     0.45640   0.36950   0.60850   0.01267  Uiso   1.00
C16    C     0.50690   0.51500   0.37120   0.01267  Uiso   1.00
C17    C     0.32100   0.95890   0.83210   0.01267  Uiso   1.00
C18    C     0.15460   0.98220   0.91800   0.01267  Uiso   1.00
C19    C     0.02510   0.91090   0.92860   0.01267  Uiso   1.00
C20    C     0.12930   0.07180   0.98820   0.01267  Uiso   1.00
C21    C     0.82580   0.73360   0.81740   0.01267  Uiso   1.00
C22    C     0.91800   0.61160   0.91220   0.01267  Uiso   1.00
C23    C     0.83920   0.53920   0.05060   0.01267  Uiso   1.00
C24    C     0.08000   0.56870   0.86340   0.01267  Uiso   1.00
O1     O     0.53680   0.86820   0.47800   0.01267  Uiso   1.00
O2     O     0.63380   0.70360   0.64640   0.01267  Uiso   1.00
O3     O     0.65570   0.12060   0.23470   0.01267  Uiso   1.00
O4     O     0.56320   0.97520   0.17620   0.01267  Uiso   1.00
O5     O     0.10120   0.20120   0.30410   0.01267  Uiso   1.00
O6     O     0.32200   0.23540   0.13090   0.01267  Uiso   1.00
O7     O     0.46320   0.13180   0.52200   0.01267  Uiso   1.00
O8     O     0.36620   0.29640   0.35360   0.01267  Uiso   1.00
O9     O     0.34430   0.87940   0.76530   0.01267  Uiso   1.00
O10    O     0.43680   0.02480   0.82380   0.01267  Uiso   1.00
O11    O     0.89880   0.79880   0.69590   0.01267  Uiso   1.00
O12    O     0.67800   0.76460   0.86910   0.01267  Uiso   1.00
