data_WECSAZ_clean
_audit_creation_date              2014-07-02
_audit_creation_method            'Materials Studio'
_symmetry_space_group_name_H-M    'P1'
_symmetry_Int_Tables_number       1
_symmetry_cell_setting            triclinic
loop_
_symmetry_equiv_pos_as_xyz
  x,y,z
_cell_length_a                    8.6200
_cell_length_b                    10.2380
_cell_length_c                    11.0750
_cell_angle_alpha                 64.0300
_cell_angle_beta                  71.5900
_cell_angle_gamma                 80.3400
loop_
_atom_site_label
_atom_site_type_symbol
_atom_site_fract_x
_atom_site_fract_y
_atom_site_fract_z
_atom_site_U_iso_or_equiv
_atom_site_adp_type
_atom_site_occupancy
Eu1    Eu    0.86884   0.56260   0.84495   0.01267  Uiso   1.00
Eu2    Eu    0.13116   0.43740   0.15505   0.01267  Uiso   1.00
H1     H     0.94790   0.76800   0.18260   0.01267  Uiso   1.00
H2     H     0.00050   0.03940   0.77520   0.01267  Uiso   1.00
H3     H     0.46050   0.65330   0.61400   0.01267  Uiso   1.00
H4     H     0.27800   0.38190   0.51650   0.01267  Uiso   1.00
H5     H     0.77420   0.94540   0.41250   0.01267  Uiso   1.00
H6     H     0.36650   0.87210   0.73680   0.01267  Uiso   1.00
H7     H     0.05210   0.23200   0.81740   0.01267  Uiso   1.00
H8     H     0.99950   0.96060   0.22480   0.01267  Uiso   1.00
H9     H     0.53950   0.34670   0.38600   0.01267  Uiso   1.00
H10    H     0.72200   0.61810   0.48350   0.01267  Uiso   1.00
H11    H     0.22580   0.05460   0.58750   0.01267  Uiso   1.00
H12    H     0.63350   0.12790   0.26320   0.01267  Uiso   1.00
C1     C     0.97000   0.88670   0.97500   0.01267  Uiso   1.00
C2     C     0.96900   0.86190   0.10860   0.01267  Uiso   1.00
C3     C     0.00040   0.02360   0.86640   0.01267  Uiso   1.00
C4     C     0.93650   0.76520   0.94580   0.01267  Uiso   1.00
C5     C     0.34380   0.52020   0.57920   0.01267  Uiso   1.00
C6     C     0.47700   0.59080   0.56770   0.01267  Uiso   1.00
C7     C     0.36780   0.42950   0.51010   0.01267  Uiso   1.00
C8     C     0.17820   0.54420   0.66250   0.01267  Uiso   1.00
C9     C     0.58410   0.89010   0.58720   0.01267  Uiso   1.00
C10    C     0.66210   0.96720   0.44820   0.01267  Uiso   1.00
C11    C     0.42080   0.92330   0.64090   0.01267  Uiso   1.00
C12    C     0.67670   0.77000   0.67940   0.01267  Uiso   1.00
C13    C     0.03000   0.11330   0.02500   0.01267  Uiso   1.00
C14    C     0.03100   0.13810   0.89140   0.01267  Uiso   1.00
C15    C     0.99960   0.97640   0.13360   0.01267  Uiso   1.00
C16    C     0.06350   0.23480   0.05420   0.01267  Uiso   1.00
C17    C     0.65620   0.47980   0.42080   0.01267  Uiso   1.00
C18    C     0.52300   0.40920   0.43230   0.01267  Uiso   1.00
C19    C     0.63220   0.57050   0.48990   0.01267  Uiso   1.00
C20    C     0.82180   0.45580   0.33750   0.01267  Uiso   1.00
C21    C     0.41590   0.10990   0.41280   0.01267  Uiso   1.00
C22    C     0.33790   0.03280   0.55180   0.01267  Uiso   1.00
C23    C     0.57920   0.07670   0.35910   0.01267  Uiso   1.00
C24    C     0.32330   0.23000   0.32060   0.01267  Uiso   1.00
O1     O     0.96930   0.63350   0.01780   0.01267  Uiso   1.00
O2     O     0.87660   0.79840   0.84580   0.01267  Uiso   1.00
O3     O     0.15880   0.62420   0.72870   0.01267  Uiso   1.00
O4     O     0.05690   0.48400   0.66900   0.01267  Uiso   1.00
O5     O     0.82160   0.74150   0.62570   0.01267  Uiso   1.00
O6     O     0.60620   0.69790   0.80610   0.01267  Uiso   1.00
O7     O     0.03070   0.36650   0.98220   0.01267  Uiso   1.00
O8     O     0.12340   0.20160   0.15420   0.01267  Uiso   1.00
O9     O     0.84120   0.37580   0.27130   0.01267  Uiso   1.00
O10    O     0.94310   0.51600   0.33100   0.01267  Uiso   1.00
O11    O     0.17840   0.25850   0.37430   0.01267  Uiso   1.00
O12    O     0.39380   0.30210   0.19390   0.01267  Uiso   1.00
