data_WEDQED_clean
_audit_creation_date              2014-07-02
_audit_creation_method            'Materials Studio'
_symmetry_space_group_name_H-M    'P1'
_symmetry_Int_Tables_number       1
_symmetry_cell_setting            triclinic
loop_
_symmetry_equiv_pos_as_xyz
  x,y,z
_cell_length_a                    13.7171
_cell_length_b                    13.7171
_cell_length_c                    14.8130
_cell_angle_alpha                 89.7586
_cell_angle_beta                  89.7586
_cell_angle_gamma                 82.0503
loop_
_atom_site_label
_atom_site_type_symbol
_atom_site_fract_x
_atom_site_fract_y
_atom_site_fract_z
_atom_site_U_iso_or_equiv
_atom_site_adp_type
_atom_site_occupancy
Co1    Co    0.44793   0.29391   0.03892   0.01267  Uiso   1.00
Co2    Co    0.45786   0.47584   0.90961   0.01267  Uiso   1.00
Co3    Co    0.70609   0.55207   0.46108   0.01267  Uiso   1.00
Co4    Co    0.52416   0.54214   0.59039   0.01267  Uiso   1.00
Co5    Co    0.55207   0.70609   0.96108   0.01267  Uiso   1.00
Co6    Co    0.54214   0.52416   0.09039   0.01267  Uiso   1.00
Co7    Co    0.29391   0.44793   0.53892   0.01267  Uiso   1.00
Co8    Co    0.47584   0.45786   0.40961   0.01267  Uiso   1.00
H1     H     0.58650   0.36350   0.98900   0.01267  Uiso   1.00
H2     H     0.07670   0.45130   0.31110   0.01267  Uiso   1.00
H3     H     0.98750   0.45450   0.17980   0.01267  Uiso   1.00
H4     H     0.06760   0.45260   0.04140   0.01267  Uiso   1.00
H5     H     0.53730   0.08430   0.99250   0.01267  Uiso   1.00
H6     H     0.65450   0.96030   0.03690   0.01267  Uiso   1.00
H7     H     0.74470   0.14350   0.21630   0.01267  Uiso   1.00
H8     H     0.62920   0.26760   0.16110   0.01267  Uiso   1.00
H9     H     0.74490   0.89850   0.19260   0.01267  Uiso   1.00
H10    H     0.82020   0.91580   0.11650   0.01267  Uiso   1.00
H11    H     0.81850   0.99230   0.29020   0.01267  Uiso   1.00
H12    H     0.88930   0.02030   0.21380   0.01267  Uiso   1.00
H13    H     0.97960   0.90060   0.29540   0.01267  Uiso   1.00
H14    H     0.95650   0.85090   0.20450   0.01267  Uiso   1.00
H15    H     0.91670   0.69030   0.22270   0.01267  Uiso   1.00
H16    H     0.84420   0.57340   0.30300   0.01267  Uiso   1.00
H17    H     0.77140   0.75900   0.49640   0.01267  Uiso   1.00
H18    H     0.83810   0.88130   0.41830   0.01267  Uiso   1.00
H19    H     0.63650   0.41350   0.51100   0.01267  Uiso   1.00
H20    H     0.54870   0.92330   0.18890   0.01267  Uiso   1.00
H21    H     0.54550   0.01250   0.32020   0.01267  Uiso   1.00
H22    H     0.54740   0.93240   0.45860   0.01267  Uiso   1.00
H23    H     0.91570   0.46270   0.50750   0.01267  Uiso   1.00
H24    H     0.03970   0.34550   0.46310   0.01267  Uiso   1.00
H25    H     0.85650   0.25530   0.28370   0.01267  Uiso   1.00
H26    H     0.73240   0.37080   0.33890   0.01267  Uiso   1.00
H27    H     0.10150   0.25510   0.30740   0.01267  Uiso   1.00
H28    H     0.08420   0.17980   0.38350   0.01267  Uiso   1.00
H29    H     0.00770   0.18150   0.20980   0.01267  Uiso   1.00
H30    H     0.97970   0.11070   0.28620   0.01267  Uiso   1.00
H31    H     0.09940   0.02040   0.20460   0.01267  Uiso   1.00
H32    H     0.14910   0.04350   0.29550   0.01267  Uiso   1.00
H33    H     0.30970   0.08330   0.27730   0.01267  Uiso   1.00
H34    H     0.42660   0.15580   0.19700   0.01267  Uiso   1.00
H35    H     0.24100   0.22860   0.00360   0.01267  Uiso   1.00
H36    H     0.11870   0.16190   0.08170   0.01267  Uiso   1.00
H37    H     0.41350   0.63650   0.01100   0.01267  Uiso   1.00
H38    H     0.92330   0.54870   0.68890   0.01267  Uiso   1.00
H39    H     0.01250   0.54550   0.82020   0.01267  Uiso   1.00
H40    H     0.93240   0.54740   0.95860   0.01267  Uiso   1.00
H41    H     0.46270   0.91570   0.00750   0.01267  Uiso   1.00
H42    H     0.34550   0.03970   0.96310   0.01267  Uiso   1.00
H43    H     0.25530   0.85650   0.78370   0.01267  Uiso   1.00
H44    H     0.37080   0.73240   0.83890   0.01267  Uiso   1.00
H45    H     0.25510   0.10150   0.80740   0.01267  Uiso   1.00
H46    H     0.17980   0.08420   0.88350   0.01267  Uiso   1.00
H47    H     0.18150   0.00770   0.70980   0.01267  Uiso   1.00
H48    H     0.11070   0.97970   0.78620   0.01267  Uiso   1.00
H49    H     0.02040   0.09940   0.70460   0.01267  Uiso   1.00
H50    H     0.04350   0.14910   0.79550   0.01267  Uiso   1.00
H51    H     0.08330   0.30970   0.77730   0.01267  Uiso   1.00
H52    H     0.15580   0.42660   0.69700   0.01267  Uiso   1.00
H53    H     0.22860   0.24100   0.50360   0.01267  Uiso   1.00
H54    H     0.16190   0.11870   0.58170   0.01267  Uiso   1.00
H55    H     0.36350   0.58650   0.48900   0.01267  Uiso   1.00
H56    H     0.45130   0.07670   0.81110   0.01267  Uiso   1.00
H57    H     0.45450   0.98750   0.67980   0.01267  Uiso   1.00
H58    H     0.45260   0.06760   0.54140   0.01267  Uiso   1.00
H59    H     0.08430   0.53730   0.49250   0.01267  Uiso   1.00
H60    H     0.96030   0.65450   0.53690   0.01267  Uiso   1.00
H61    H     0.14350   0.74470   0.71630   0.01267  Uiso   1.00
H62    H     0.26760   0.62920   0.66110   0.01267  Uiso   1.00
H63    H     0.89850   0.74490   0.69260   0.01267  Uiso   1.00
H64    H     0.91580   0.82020   0.61650   0.01267  Uiso   1.00
H65    H     0.99230   0.81850   0.79020   0.01267  Uiso   1.00
H66    H     0.02030   0.88930   0.71380   0.01267  Uiso   1.00
H67    H     0.90060   0.97960   0.79540   0.01267  Uiso   1.00
H68    H     0.85090   0.95650   0.70450   0.01267  Uiso   1.00
H69    H     0.69030   0.91670   0.72270   0.01267  Uiso   1.00
H70    H     0.57340   0.84420   0.80300   0.01267  Uiso   1.00
H71    H     0.75900   0.77140   0.99640   0.01267  Uiso   1.00
H72    H     0.88130   0.83810   0.91830   0.01267  Uiso   1.00
C1     C     0.20600   0.44580   0.09010   0.01267  Uiso   1.00
C2     C     0.26030   0.44210   0.17040   0.01267  Uiso   1.00
C3     C     0.21150   0.44450   0.25330   0.01267  Uiso   1.00
C4     C     0.10910   0.44950   0.25570   0.01267  Uiso   1.00
C5     C     0.05560   0.45200   0.17750   0.01267  Uiso   1.00
C6     C     0.10390   0.45050   0.09450   0.01267  Uiso   1.00
C7     C     0.25260   0.45140   0.99900   0.01267  Uiso   1.00
C8     C     0.37190   0.43910   0.16310   0.01267  Uiso   1.00
C9     C     0.26750   0.44670   0.33940   0.01267  Uiso   1.00
C10    C     0.58000   0.09660   0.03850   0.01267  Uiso   1.00
C11    C     0.64970   0.02130   0.06500   0.01267  Uiso   1.00
C12    C     0.71240   0.03620   0.13310   0.01267  Uiso   1.00
C13    C     0.70320   0.13020   0.16990   0.01267  Uiso   1.00
C14    C     0.63230   0.20450   0.13770   0.01267  Uiso   1.00
C15    C     0.78370   0.94630   0.16770   0.01267  Uiso   1.00
C16    C     0.85400   0.96840   0.23610   0.01267  Uiso   1.00
C17    C     0.92730   0.87930   0.25980   0.01267  Uiso   1.00
C18    C     0.88370   0.79950   0.31230   0.01267  Uiso   1.00
C19    C     0.88640   0.70660   0.27800   0.01267  Uiso   1.00
C20    C     0.84300   0.63600   0.32730   0.01267  Uiso   1.00
C21    C     0.79990   0.74450   0.44010   0.01267  Uiso   1.00
C22    C     0.84080   0.81900   0.39320   0.01267  Uiso   1.00
C23    C     0.55420   0.79400   0.40990   0.01267  Uiso   1.00
C24    C     0.55790   0.73970   0.32960   0.01267  Uiso   1.00
C25    C     0.55550   0.78850   0.24670   0.01267  Uiso   1.00
C26    C     0.55050   0.89090   0.24430   0.01267  Uiso   1.00
C27    C     0.54800   0.94440   0.32250   0.01267  Uiso   1.00
C28    C     0.54950   0.89610   0.40550   0.01267  Uiso   1.00
C29    C     0.54860   0.74740   0.50100   0.01267  Uiso   1.00
C30    C     0.56090   0.62810   0.33690   0.01267  Uiso   1.00
C31    C     0.55330   0.73250   0.16060   0.01267  Uiso   1.00
C32    C     0.90340   0.42000   0.46150   0.01267  Uiso   1.00
C33    C     0.97870   0.35030   0.43500   0.01267  Uiso   1.00
C34    C     0.96380   0.28760   0.36690   0.01267  Uiso   1.00
C35    C     0.86980   0.29680   0.33010   0.01267  Uiso   1.00
C36    C     0.79550   0.36770   0.36230   0.01267  Uiso   1.00
C37    C     0.05370   0.21630   0.33230   0.01267  Uiso   1.00
C38    C     0.03160   0.14600   0.26390   0.01267  Uiso   1.00
C39    C     0.12070   0.07270   0.24020   0.01267  Uiso   1.00
C40    C     0.20050   0.11630   0.18770   0.01267  Uiso   1.00
C41    C     0.29340   0.11360   0.22200   0.01267  Uiso   1.00
C42    C     0.36400   0.15700   0.17270   0.01267  Uiso   1.00
C43    C     0.25550   0.20010   0.05990   0.01267  Uiso   1.00
C44    C     0.18100   0.15920   0.10680   0.01267  Uiso   1.00
C45    C     0.79400   0.55420   0.90990   0.01267  Uiso   1.00
C46    C     0.73970   0.55790   0.82960   0.01267  Uiso   1.00
C47    C     0.78850   0.55550   0.74670   0.01267  Uiso   1.00
C48    C     0.89090   0.55050   0.74430   0.01267  Uiso   1.00
C49    C     0.94440   0.54800   0.82250   0.01267  Uiso   1.00
C50    C     0.89610   0.54950   0.90550   0.01267  Uiso   1.00
C51    C     0.74740   0.54860   0.00100   0.01267  Uiso   1.00
C52    C     0.62810   0.56090   0.83690   0.01267  Uiso   1.00
C53    C     0.73250   0.55330   0.66060   0.01267  Uiso   1.00
C54    C     0.42000   0.90340   0.96150   0.01267  Uiso   1.00
C55    C     0.35030   0.97870   0.93500   0.01267  Uiso   1.00
C56    C     0.28760   0.96380   0.86690   0.01267  Uiso   1.00
C57    C     0.29680   0.86980   0.83010   0.01267  Uiso   1.00
C58    C     0.36770   0.79550   0.86230   0.01267  Uiso   1.00
C59    C     0.21630   0.05370   0.83230   0.01267  Uiso   1.00
C60    C     0.14600   0.03160   0.76390   0.01267  Uiso   1.00
C61    C     0.07270   0.12070   0.74020   0.01267  Uiso   1.00
C62    C     0.11630   0.20050   0.68770   0.01267  Uiso   1.00
C63    C     0.11360   0.29340   0.72200   0.01267  Uiso   1.00
C64    C     0.15700   0.36400   0.67270   0.01267  Uiso   1.00
C65    C     0.20010   0.25550   0.55990   0.01267  Uiso   1.00
C66    C     0.15920   0.18100   0.60680   0.01267  Uiso   1.00
C67    C     0.44580   0.20600   0.59010   0.01267  Uiso   1.00
C68    C     0.44210   0.26030   0.67040   0.01267  Uiso   1.00
C69    C     0.44450   0.21150   0.75330   0.01267  Uiso   1.00
C70    C     0.44950   0.10910   0.75570   0.01267  Uiso   1.00
C71    C     0.45200   0.05560   0.67750   0.01267  Uiso   1.00
C72    C     0.45050   0.10390   0.59450   0.01267  Uiso   1.00
C73    C     0.45140   0.25260   0.49900   0.01267  Uiso   1.00
C74    C     0.43910   0.37190   0.66310   0.01267  Uiso   1.00
C75    C     0.44670   0.26750   0.83940   0.01267  Uiso   1.00
C76    C     0.09660   0.58000   0.53850   0.01267  Uiso   1.00
C77    C     0.02130   0.64970   0.56500   0.01267  Uiso   1.00
C78    C     0.03620   0.71240   0.63310   0.01267  Uiso   1.00
C79    C     0.13020   0.70320   0.66990   0.01267  Uiso   1.00
C80    C     0.20450   0.63230   0.63770   0.01267  Uiso   1.00
C81    C     0.94630   0.78370   0.66770   0.01267  Uiso   1.00
C82    C     0.96840   0.85400   0.73610   0.01267  Uiso   1.00
C83    C     0.87930   0.92730   0.75980   0.01267  Uiso   1.00
C84    C     0.79950   0.88370   0.81230   0.01267  Uiso   1.00
C85    C     0.70660   0.88640   0.77800   0.01267  Uiso   1.00
C86    C     0.63600   0.84300   0.82730   0.01267  Uiso   1.00
C87    C     0.74450   0.79990   0.94010   0.01267  Uiso   1.00
C88    C     0.81900   0.84080   0.89320   0.01267  Uiso   1.00
N1     N     0.56890   0.18730   0.07440   0.01267  Uiso   1.00
N2     N     0.80030   0.65490   0.40710   0.01267  Uiso   1.00
N3     N     0.81270   0.43110   0.42560   0.01267  Uiso   1.00
N4     N     0.34510   0.19970   0.09290   0.01267  Uiso   1.00
N5     N     0.43110   0.81270   0.92560   0.01267  Uiso   1.00
N6     N     0.19970   0.34510   0.59290   0.01267  Uiso   1.00
N7     N     0.18730   0.56890   0.57440   0.01267  Uiso   1.00
N8     N     0.65490   0.80030   0.90710   0.01267  Uiso   1.00
O1     O     0.53825   0.39931   0.01300   0.01267  Uiso   1.00
O2     O     0.34297   0.41617   0.99050   0.01267  Uiso   1.00
O3     O     0.20180   0.49120   0.93640   0.01267  Uiso   1.00
O4     O     0.42452   0.35534   0.16830   0.01267  Uiso   1.00
O5     O     0.40288   0.51868   0.14880   0.01267  Uiso   1.00
O6     O     0.35560   0.46000   0.33050   0.01267  Uiso   1.00
O7     O     0.22478   0.43818   0.41460   0.01267  Uiso   1.00
O8     O     0.60069   0.46175   0.48700   0.01267  Uiso   1.00
O9     O     0.58383   0.65703   0.50950   0.01267  Uiso   1.00
O10    O     0.50880   0.79820   0.56360   0.01267  Uiso   1.00
O11    O     0.64466   0.57548   0.33170   0.01267  Uiso   1.00
O12    O     0.48132   0.59712   0.35120   0.01267  Uiso   1.00
O13    O     0.54000   0.64440   0.16950   0.01267  Uiso   1.00
O14    O     0.56182   0.77522   0.08540   0.01267  Uiso   1.00
O15    O     0.46175   0.60069   0.98700   0.01267  Uiso   1.00
O16    O     0.65703   0.58383   0.00950   0.01267  Uiso   1.00
O17    O     0.79820   0.50880   0.06360   0.01267  Uiso   1.00
O18    O     0.57548   0.64466   0.83170   0.01267  Uiso   1.00
O19    O     0.59712   0.48132   0.85120   0.01267  Uiso   1.00
O20    O     0.64440   0.54000   0.66950   0.01267  Uiso   1.00
O21    O     0.77522   0.56182   0.58540   0.01267  Uiso   1.00
O22    O     0.39931   0.53825   0.51300   0.01267  Uiso   1.00
O23    O     0.41617   0.34297   0.49050   0.01267  Uiso   1.00
O24    O     0.49120   0.20180   0.43640   0.01267  Uiso   1.00
O25    O     0.35534   0.42452   0.66830   0.01267  Uiso   1.00
O26    O     0.51868   0.40288   0.64880   0.01267  Uiso   1.00
O27    O     0.46000   0.35560   0.83050   0.01267  Uiso   1.00
O28    O     0.43818   0.22478   0.91460   0.01267  Uiso   1.00
