data_WEDWUZ_clean
_audit_creation_date              2014-07-02
_audit_creation_method            'Materials Studio'
_symmetry_space_group_name_H-M    'P1'
_symmetry_Int_Tables_number       1
_symmetry_cell_setting            triclinic
loop_
_symmetry_equiv_pos_as_xyz
  x,y,z
_cell_length_a                    9.8510
_cell_length_b                    14.8220
_cell_length_c                    20.2330
_cell_angle_alpha                 73.4480
_cell_angle_beta                  82.9870
_cell_angle_gamma                 77.7210
loop_
_atom_site_label
_atom_site_type_symbol
_atom_site_fract_x
_atom_site_fract_y
_atom_site_fract_z
_atom_site_U_iso_or_equiv
_atom_site_adp_type
_atom_site_occupancy
Sm1    Sm    0.33627   0.04701   0.81161   0.01267  Uiso   1.00
Sm2    Sm    0.87043   0.05220   0.79666   0.01267  Uiso   1.00
Sm3    Sm    0.66373   0.95299   0.18839   0.01267  Uiso   1.00
Sm4    Sm    0.12957   0.94780   0.20334   0.01267  Uiso   1.00
Cu1    Cu    0.67179   0.49698   0.88538   0.01267  Uiso   1.00
Cu2    Cu    0.40638   0.51279   0.94702   0.01267  Uiso   1.00
Cu3    Cu    0.25893   0.56095   0.65859   0.01267  Uiso   1.00
Cu4    Cu    0.90164   0.40014   0.44665   0.01267  Uiso   1.00
Cu5    Cu    0.22612   0.74345   0.57154   0.01267  Uiso   1.00
Cu6    Cu    0.01460   0.66865   0.67292   0.01267  Uiso   1.00
Cu7    Cu    0.32821   0.50302   0.11462   0.01267  Uiso   1.00
Cu8    Cu    0.59362   0.48721   0.05298   0.01267  Uiso   1.00
Cu9    Cu    0.74107   0.43905   0.34141   0.01267  Uiso   1.00
Cu10   Cu    0.09836   0.59986   0.55335   0.01267  Uiso   1.00
Cu11   Cu    0.77388   0.25655   0.42846   0.01267  Uiso   1.00
Cu12   Cu    0.98540   0.33135   0.32708   0.01267  Uiso   1.00
H1     H     0.96000   0.54400   0.85550   0.01267  Uiso   1.00
H2     H     0.18310   0.46660   0.84670   0.01267  Uiso   1.00
H3     H     0.22930   0.30280   0.85360   0.01267  Uiso   1.00
H4     H     0.81880   0.31340   0.86420   0.01267  Uiso   1.00
H5     H     0.10430   0.53720   0.97330   0.01267  Uiso   1.00
H6     H     0.90880   0.65010   0.96340   0.01267  Uiso   1.00
H7     H     0.92590   0.81140   0.92000   0.01267  Uiso   1.00
H8     H     0.33900   0.72710   0.91070   0.01267  Uiso   1.00
H9     H     0.35320   0.35390   0.72190   0.01267  Uiso   1.00
H10    H     0.76810   0.30090   0.72000   0.01267  Uiso   1.00
H11    H     0.76470   0.45730   0.65430   0.01267  Uiso   1.00
H12    H     0.55810   0.55600   0.62360   0.01267  Uiso   1.00
H13    H     0.93050   0.28140   0.58730   0.01267  Uiso   1.00
H14    H     0.31960   0.24880   0.64140   0.01267  Uiso   1.00
H15    H     0.35770   0.36850   0.54060   0.01267  Uiso   1.00
H16    H     0.18710   0.43260   0.46600   0.01267  Uiso   1.00
H17    H     0.50470   0.78930   0.50460   0.01267  Uiso   1.00
H18    H     0.66870   0.87270   0.51570   0.01267  Uiso   1.00
H19    H     0.62490   0.95820   0.59780   0.01267  Uiso   1.00
H20    H     0.25630   0.87830   0.64580   0.01267  Uiso   1.00
H21    H     0.88210   0.80120   0.75520   0.01267  Uiso   1.00
H22    H     0.47720   0.78800   0.79660   0.01267  Uiso   1.00
H23    H     0.51750   0.66070   0.74620   0.01267  Uiso   1.00
H24    H     0.73600   0.60580   0.70580   0.01267  Uiso   1.00
H25    H     0.04000   0.45600   0.14450   0.01267  Uiso   1.00
H26    H     0.81690   0.53340   0.15330   0.01267  Uiso   1.00
H27    H     0.77070   0.69720   0.14640   0.01267  Uiso   1.00
H28    H     0.18120   0.68660   0.13580   0.01267  Uiso   1.00
H29    H     0.89570   0.46280   0.02670   0.01267  Uiso   1.00
H30    H     0.09120   0.34990   0.03660   0.01267  Uiso   1.00
H31    H     0.07410   0.18860   0.08000   0.01267  Uiso   1.00
H32    H     0.66100   0.27290   0.08930   0.01267  Uiso   1.00
H33    H     0.64680   0.64610   0.27810   0.01267  Uiso   1.00
H34    H     0.23190   0.69910   0.28000   0.01267  Uiso   1.00
H35    H     0.23530   0.54270   0.34570   0.01267  Uiso   1.00
H36    H     0.44190   0.44400   0.37640   0.01267  Uiso   1.00
H37    H     0.06950   0.71860   0.41270   0.01267  Uiso   1.00
H38    H     0.68040   0.75120   0.35860   0.01267  Uiso   1.00
H39    H     0.64230   0.63150   0.45940   0.01267  Uiso   1.00
H40    H     0.81290   0.56740   0.53400   0.01267  Uiso   1.00
H41    H     0.49530   0.21070   0.49540   0.01267  Uiso   1.00
H42    H     0.33130   0.12730   0.48430   0.01267  Uiso   1.00
H43    H     0.37510   0.04180   0.40220   0.01267  Uiso   1.00
H44    H     0.74370   0.12170   0.35420   0.01267  Uiso   1.00
H45    H     0.11790   0.19880   0.24480   0.01267  Uiso   1.00
H46    H     0.52280   0.21200   0.20340   0.01267  Uiso   1.00
H47    H     0.48250   0.33930   0.25380   0.01267  Uiso   1.00
H48    H     0.26400   0.39420   0.29420   0.01267  Uiso   1.00
C1     C     0.97650   0.47960   0.85620   0.01267  Uiso   1.00
C2     C     0.11040   0.43350   0.85170   0.01267  Uiso   1.00
C3     C     0.13820   0.33640   0.85480   0.01267  Uiso   1.00
C4     C     0.02670   0.29150   0.85960   0.01267  Uiso   1.00
C5     C     0.89320   0.34380   0.86210   0.01267  Uiso   1.00
C6     C     0.04610   0.18700   0.86100   0.01267  Uiso   1.00
C7     C     0.11380   0.60100   0.95730   0.01267  Uiso   1.00
C8     C     0.99530   0.66810   0.95110   0.01267  Uiso   1.00
C9     C     0.00500   0.76360   0.92630   0.01267  Uiso   1.00
C10    C     0.13590   0.78520   0.91120   0.01267  Uiso   1.00
C11    C     0.25100   0.71120   0.92040   0.01267  Uiso   1.00
C12    C     0.15820   0.88670   0.88480   0.01267  Uiso   1.00
C13    C     0.43740   0.37490   0.70870   0.01267  Uiso   1.00
C14    C     0.55910   0.31020   0.72800   0.01267  Uiso   1.00
C15    C     0.68410   0.34180   0.70760   0.01267  Uiso   1.00
C16    C     0.68180   0.43480   0.66860   0.01267  Uiso   1.00
C17    C     0.55750   0.49400   0.65110   0.01267  Uiso   1.00
C18    C     0.55230   0.21030   0.77170   0.01267  Uiso   1.00
C19    C     0.01810   0.29800   0.57780   0.01267  Uiso   1.00
C20    C     0.11740   0.25370   0.62590   0.01267  Uiso   1.00
C21    C     0.24920   0.27840   0.61130   0.01267  Uiso   1.00
C22    C     0.27250   0.34850   0.55070   0.01267  Uiso   1.00
C23    C     0.16930   0.38700   0.50670   0.01267  Uiso   1.00
C24    C     0.08230   0.18390   0.69050   0.01267  Uiso   1.00
C25    C     0.48590   0.82510   0.53680   0.01267  Uiso   1.00
C26    C     0.58600   0.87420   0.54330   0.01267  Uiso   1.00
C27    C     0.55910   0.92510   0.59190   0.01267  Uiso   1.00
C28    C     0.43640   0.92770   0.63170   0.01267  Uiso   1.00
C29    C     0.34100   0.87660   0.61980   0.01267  Uiso   1.00
C30    C     0.40180   0.97740   0.68740   0.01267  Uiso   1.00
C31    C     0.80740   0.77250   0.75400   0.01267  Uiso   1.00
C32    C     0.67970   0.80760   0.78220   0.01267  Uiso   1.00
C33    C     0.56580   0.76560   0.77920   0.01267  Uiso   1.00
C34    C     0.59040   0.68990   0.74920   0.01267  Uiso   1.00
C35    C     0.72150   0.65820   0.72420   0.01267  Uiso   1.00
C36    C     0.66400   0.89000   0.81300   0.01267  Uiso   1.00
C37    C     0.02350   0.52040   0.14380   0.01267  Uiso   1.00
C38    C     0.88960   0.56650   0.14830   0.01267  Uiso   1.00
C39    C     0.86180   0.66360   0.14520   0.01267  Uiso   1.00
C40    C     0.97330   0.70850   0.14040   0.01267  Uiso   1.00
C41    C     0.10680   0.65620   0.13790   0.01267  Uiso   1.00
C42    C     0.95390   0.81300   0.13900   0.01267  Uiso   1.00
C43    C     0.88620   0.39900   0.04270   0.01267  Uiso   1.00
C44    C     0.00470   0.33190   0.04890   0.01267  Uiso   1.00
C45    C     0.99500   0.23640   0.07370   0.01267  Uiso   1.00
C46    C     0.86410   0.21480   0.08880   0.01267  Uiso   1.00
C47    C     0.74900   0.28880   0.07960   0.01267  Uiso   1.00
C48    C     0.84180   0.11330   0.11520   0.01267  Uiso   1.00
C49    C     0.56260   0.62510   0.29130   0.01267  Uiso   1.00
C50    C     0.44090   0.68980   0.27200   0.01267  Uiso   1.00
C51    C     0.31590   0.65820   0.29240   0.01267  Uiso   1.00
C52    C     0.31820   0.56520   0.33140   0.01267  Uiso   1.00
C53    C     0.44250   0.50600   0.34890   0.01267  Uiso   1.00
C54    C     0.44770   0.78970   0.22830   0.01267  Uiso   1.00
C55    C     0.98190   0.70200   0.42220   0.01267  Uiso   1.00
C56    C     0.88260   0.74630   0.37410   0.01267  Uiso   1.00
C57    C     0.75080   0.72160   0.38870   0.01267  Uiso   1.00
C58    C     0.72750   0.65150   0.44930   0.01267  Uiso   1.00
C59    C     0.83070   0.61300   0.49330   0.01267  Uiso   1.00
C60    C     0.91770   0.81610   0.30950   0.01267  Uiso   1.00
C61    C     0.51410   0.17490   0.46320   0.01267  Uiso   1.00
C62    C     0.41400   0.12580   0.45670   0.01267  Uiso   1.00
C63    C     0.44090   0.07490   0.40810   0.01267  Uiso   1.00
C64    C     0.56360   0.07230   0.36830   0.01267  Uiso   1.00
C65    C     0.65900   0.12340   0.38020   0.01267  Uiso   1.00
C66    C     0.59820   0.02260   0.31260   0.01267  Uiso   1.00
C67    C     0.19260   0.22750   0.24600   0.01267  Uiso   1.00
C68    C     0.32030   0.19240   0.21780   0.01267  Uiso   1.00
C69    C     0.43420   0.23440   0.22080   0.01267  Uiso   1.00
C70    C     0.40960   0.31010   0.25080   0.01267  Uiso   1.00
C71    C     0.27850   0.34180   0.27580   0.01267  Uiso   1.00
C72    C     0.33600   0.11000   0.18700   0.01267  Uiso   1.00
Br1    Br    0.49768   0.42310   0.86421   0.01267  Uiso   1.00
Br2    Br    0.62427   0.61691   0.94508   0.01267  Uiso   1.00
Br3    Br    0.03741   0.49713   0.66214   0.01267  Uiso   1.00
Br4    Br    0.21626   0.67564   0.72796   0.01267  Uiso   1.00
Br5    Br    0.67271   0.37325   0.49180   0.01267  Uiso   1.00
Br6    Br    0.98271   0.81519   0.56345   0.01267  Uiso   1.00
Br7    Br    0.50232   0.57690   0.13579   0.01267  Uiso   1.00
Br8    Br    0.37573   0.38309   0.05492   0.01267  Uiso   1.00
Br9    Br    0.96259   0.50287   0.33786   0.01267  Uiso   1.00
Br10   Br    0.78374   0.32436   0.27204   0.01267  Uiso   1.00
Br11   Br    0.32729   0.62675   0.50820   0.01267  Uiso   1.00
Br12   Br    0.01729   0.18481   0.43655   0.01267  Uiso   1.00
N1     N     0.86580   0.43710   0.86150   0.01267  Uiso   1.00
N2     N     0.24260   0.61870   0.94240   0.01267  Uiso   1.00
N3     N     0.43430   0.46630   0.67200   0.01267  Uiso   1.00
N4     N     0.04150   0.36290   0.51880   0.01267  Uiso   1.00
N5     N     0.36540   0.82580   0.57340   0.01267  Uiso   1.00
N6     N     0.83050   0.69910   0.72490   0.01267  Uiso   1.00
N7     N     0.13420   0.56290   0.13850   0.01267  Uiso   1.00
N8     N     0.75740   0.38130   0.05760   0.01267  Uiso   1.00
N9     N     0.56570   0.53370   0.32800   0.01267  Uiso   1.00
N10    N     0.95850   0.63710   0.48120   0.01267  Uiso   1.00
N11    N     0.63460   0.17420   0.42660   0.01267  Uiso   1.00
N12    N     0.16950   0.30090   0.27510   0.01267  Uiso   1.00
O1     O     0.94430   0.15920   0.84870   0.01267  Uiso   1.00
O2     O     0.16610   0.13720   0.87380   0.01267  Uiso   1.00
O3     O     0.27470   0.90400   0.89200   0.01267  Uiso   1.00
O4     O     0.06370   0.95070   0.85540   0.01267  Uiso   1.00
O5     O     0.66070   0.16100   0.79870   0.01267  Uiso   1.00
O6     O     0.43750   0.18370   0.77810   0.01267  Uiso   1.00
O7     O     0.95910   0.16710   0.70150   0.01267  Uiso   1.00
O8     O     0.17520   0.14380   0.73280   0.01267  Uiso   1.00
O9     O     0.46720   0.03880   0.69160   0.01267  Uiso   1.00
O10    O     0.30520   0.95210   0.73330   0.01267  Uiso   1.00
O11    O     0.77170   0.91430   0.82190   0.01267  Uiso   1.00
O12    O     0.54370   0.93090   0.82680   0.01267  Uiso   1.00
O13    O     0.05570   0.84080   0.15130   0.01267  Uiso   1.00
O14    O     0.83390   0.86280   0.12620   0.01267  Uiso   1.00
O15    O     0.72530   0.09600   0.10800   0.01267  Uiso   1.00
O16    O     0.93630   0.04930   0.14460   0.01267  Uiso   1.00
O17    O     0.33930   0.83900   0.20130   0.01267  Uiso   1.00
O18    O     0.56250   0.81630   0.22190   0.01267  Uiso   1.00
O19    O     0.04090   0.83290   0.29850   0.01267  Uiso   1.00
O20    O     0.82480   0.85620   0.26720   0.01267  Uiso   1.00
O21    O     0.53280   0.96120   0.30840   0.01267  Uiso   1.00
O22    O     0.69480   0.04790   0.26670   0.01267  Uiso   1.00
O23    O     0.22830   0.08570   0.17810   0.01267  Uiso   1.00
O24    O     0.45630   0.06910   0.17320   0.01267  Uiso   1.00
