data_WEDXEK_clean
_audit_creation_date              2014-07-02
_audit_creation_method            'Materials Studio'
_symmetry_space_group_name_H-M    'P1'
_symmetry_Int_Tables_number       1
_symmetry_cell_setting            triclinic
loop_
_symmetry_equiv_pos_as_xyz
  x,y,z
_cell_length_a                    9.8116
_cell_length_b                    14.7661
_cell_length_c                    20.1753
_cell_angle_alpha                 73.2130
_cell_angle_beta                  82.5410
_cell_angle_gamma                 77.7480
loop_
_atom_site_label
_atom_site_type_symbol
_atom_site_fract_x
_atom_site_fract_y
_atom_site_fract_z
_atom_site_U_iso_or_equiv
_atom_site_adp_type
_atom_site_occupancy
Tb1    Tb    0.33588   0.04719   0.81015   0.01267  Uiso   1.00
Tb2    Tb    0.86820   0.05188   0.79642   0.01267  Uiso   1.00
Tb3    Tb    0.66412   0.95281   0.18985   0.01267  Uiso   1.00
Tb4    Tb    0.13180   0.94812   0.20358   0.01267  Uiso   1.00
Cu1    Cu    0.26001   0.56032   0.65862   0.01267  Uiso   1.00
Cu2    Cu    0.22745   0.74395   0.57220   0.01267  Uiso   1.00
Cu3    Cu    0.10013   0.60108   0.55297   0.01267  Uiso   1.00
Cu4    Cu    0.01522   0.66729   0.67428   0.01267  Uiso   1.00
Cu5    Cu    0.67373   0.49593   0.88492   0.01267  Uiso   1.00
Cu6    Cu    0.40897   0.51422   0.94633   0.01267  Uiso   1.00
Cu7    Cu    0.73999   0.43968   0.34138   0.01267  Uiso   1.00
Cu8    Cu    0.77255   0.25605   0.42780   0.01267  Uiso   1.00
Cu9    Cu    0.89987   0.39892   0.44703   0.01267  Uiso   1.00
Cu10   Cu    0.98478   0.33271   0.32572   0.01267  Uiso   1.00
Cu11   Cu    0.32627   0.50407   0.11508   0.01267  Uiso   1.00
Cu12   Cu    0.59103   0.48578   0.05367   0.01267  Uiso   1.00
H1     H     0.35270   0.35210   0.72280   0.01267  Uiso   1.00
H2     H     0.56270   0.55590   0.62700   0.01267  Uiso   1.00
H3     H     0.76860   0.45440   0.65260   0.01267  Uiso   1.00
H4     H     0.76880   0.29890   0.72020   0.01267  Uiso   1.00
H5     H     0.81780   0.31130   0.86500   0.01267  Uiso   1.00
H6     H     0.96250   0.54210   0.85300   0.01267  Uiso   1.00
H7     H     0.18870   0.46200   0.84630   0.01267  Uiso   1.00
H8     H     0.23020   0.29800   0.85350   0.01267  Uiso   1.00
H9     H     0.92220   0.80900   0.91710   0.01267  Uiso   1.00
H10    H     0.90810   0.64730   0.96210   0.01267  Uiso   1.00
H11    H     0.10540   0.53370   0.97380   0.01267  Uiso   1.00
H12    H     0.33650   0.72950   0.90890   0.01267  Uiso   1.00
H13    H     0.25800   0.87760   0.64730   0.01267  Uiso   1.00
H14    H     0.50620   0.79300   0.50300   0.01267  Uiso   1.00
H15    H     0.67250   0.87140   0.51600   0.01267  Uiso   1.00
H16    H     0.62680   0.96110   0.59680   0.01267  Uiso   1.00
H17    H     0.47640   0.79020   0.79520   0.01267  Uiso   1.00
H18    H     0.51450   0.66000   0.74880   0.01267  Uiso   1.00
H19    H     0.73670   0.60460   0.70800   0.01267  Uiso   1.00
H20    H     0.88300   0.79870   0.75760   0.01267  Uiso   1.00
H21    H     0.07030   0.72080   0.41100   0.01267  Uiso   1.00
H22    H     0.81860   0.56530   0.53520   0.01267  Uiso   1.00
H23    H     0.64240   0.63020   0.46130   0.01267  Uiso   1.00
H24    H     0.68030   0.75050   0.36040   0.01267  Uiso   1.00
H25    H     0.64730   0.64790   0.27720   0.01267  Uiso   1.00
H26    H     0.43730   0.44410   0.37300   0.01267  Uiso   1.00
H27    H     0.23140   0.54560   0.34740   0.01267  Uiso   1.00
H28    H     0.23120   0.70110   0.27980   0.01267  Uiso   1.00
H29    H     0.18220   0.68870   0.13500   0.01267  Uiso   1.00
H30    H     0.03750   0.45790   0.14700   0.01267  Uiso   1.00
H31    H     0.81130   0.53800   0.15370   0.01267  Uiso   1.00
H32    H     0.76980   0.70200   0.14650   0.01267  Uiso   1.00
H33    H     0.07780   0.19100   0.08290   0.01267  Uiso   1.00
H34    H     0.09190   0.35270   0.03790   0.01267  Uiso   1.00
H35    H     0.89460   0.46630   0.02620   0.01267  Uiso   1.00
H36    H     0.66350   0.27050   0.09110   0.01267  Uiso   1.00
H37    H     0.74200   0.12240   0.35270   0.01267  Uiso   1.00
H38    H     0.49380   0.20700   0.49700   0.01267  Uiso   1.00
H39    H     0.32750   0.12860   0.48400   0.01267  Uiso   1.00
H40    H     0.37320   0.03890   0.40320   0.01267  Uiso   1.00
H41    H     0.52360   0.20980   0.20480   0.01267  Uiso   1.00
H42    H     0.48550   0.34000   0.25120   0.01267  Uiso   1.00
H43    H     0.26330   0.39540   0.29200   0.01267  Uiso   1.00
H44    H     0.11700   0.20130   0.24240   0.01267  Uiso   1.00
H45    H     0.92970   0.27920   0.58900   0.01267  Uiso   1.00
H46    H     0.18140   0.43470   0.46480   0.01267  Uiso   1.00
H47    H     0.35760   0.36980   0.53870   0.01267  Uiso   1.00
H48    H     0.31970   0.24950   0.63960   0.01267  Uiso   1.00
C1     C     0.55270   0.20790   0.77160   0.01267  Uiso   1.00
C2     C     0.55960   0.30900   0.72840   0.01267  Uiso   1.00
C3     C     0.43740   0.37330   0.70930   0.01267  Uiso   1.00
C4     C     0.56130   0.49260   0.65260   0.01267  Uiso   1.00
C5     C     0.68470   0.43270   0.66840   0.01267  Uiso   1.00
C6     C     0.68500   0.34020   0.70760   0.01267  Uiso   1.00
C7     C     0.04530   0.18410   0.86000   0.01267  Uiso   1.00
C8     C     0.02650   0.28820   0.85960   0.01267  Uiso   1.00
C9     C     0.89340   0.34130   0.86260   0.01267  Uiso   1.00
C10    C     0.97870   0.47700   0.85520   0.01267  Uiso   1.00
C11    C     0.11480   0.42970   0.85120   0.01267  Uiso   1.00
C12    C     0.13930   0.33270   0.85460   0.01267  Uiso   1.00
C13    C     0.15160   0.88850   0.88240   0.01267  Uiso   1.00
C14    C     0.13370   0.78530   0.91040   0.01267  Uiso   1.00
C15    C     0.00240   0.76190   0.92440   0.01267  Uiso   1.00
C16    C     0.99480   0.66580   0.94990   0.01267  Uiso   1.00
C17    C     0.11350   0.59810   0.95720   0.01267  Uiso   1.00
C18    C     0.24850   0.71260   0.91930   0.01267  Uiso   1.00
C19    C     0.40160   0.97910   0.68740   0.01267  Uiso   1.00
C20    C     0.43580   0.92920   0.63140   0.01267  Uiso   1.00
C21    C     0.34230   0.87740   0.62020   0.01267  Uiso   1.00
C22    C     0.48780   0.82760   0.53610   0.01267  Uiso   1.00
C23    C     0.58820   0.87460   0.54300   0.01267  Uiso   1.00
C24    C     0.56110   0.92720   0.59130   0.01267  Uiso   1.00
C25    C     0.66130   0.89230   0.81130   0.01267  Uiso   1.00
C26    C     0.67700   0.80830   0.78180   0.01267  Uiso   1.00
C27    C     0.56570   0.76650   0.77860   0.01267  Uiso   1.00
C28    C     0.58790   0.68970   0.75080   0.01267  Uiso   1.00
C29    C     0.72170   0.65760   0.72580   0.01267  Uiso   1.00
C30    C     0.80750   0.77130   0.75510   0.01267  Uiso   1.00
C31    C     0.91590   0.81810   0.30780   0.01267  Uiso   1.00
C32    C     0.88240   0.74600   0.37400   0.01267  Uiso   1.00
C33    C     0.98280   0.70310   0.42150   0.01267  Uiso   1.00
C34    C     0.83490   0.61190   0.49430   0.01267  Uiso   1.00
C35    C     0.72790   0.65060   0.45040   0.01267  Uiso   1.00
C36    C     0.75150   0.72070   0.39000   0.01267  Uiso   1.00
C37    C     0.44730   0.79210   0.22840   0.01267  Uiso   1.00
C38    C     0.44040   0.69100   0.27160   0.01267  Uiso   1.00
C39    C     0.56260   0.62670   0.29070   0.01267  Uiso   1.00
C40    C     0.43870   0.50740   0.34740   0.01267  Uiso   1.00
C41    C     0.31530   0.56730   0.33160   0.01267  Uiso   1.00
C42    C     0.31500   0.65980   0.29240   0.01267  Uiso   1.00
C43    C     0.95470   0.81590   0.14000   0.01267  Uiso   1.00
C44    C     0.97350   0.71180   0.14040   0.01267  Uiso   1.00
C45    C     0.10660   0.65870   0.13740   0.01267  Uiso   1.00
C46    C     0.02130   0.52300   0.14480   0.01267  Uiso   1.00
C47    C     0.88520   0.57030   0.14880   0.01267  Uiso   1.00
C48    C     0.86070   0.66730   0.14540   0.01267  Uiso   1.00
C49    C     0.84840   0.11150   0.11760   0.01267  Uiso   1.00
C50    C     0.86630   0.21470   0.08960   0.01267  Uiso   1.00
C51    C     0.99760   0.23810   0.07560   0.01267  Uiso   1.00
C52    C     0.00520   0.33420   0.05010   0.01267  Uiso   1.00
C53    C     0.88650   0.40190   0.04280   0.01267  Uiso   1.00
C54    C     0.75150   0.28740   0.08070   0.01267  Uiso   1.00
C55    C     0.59840   0.02090   0.31260   0.01267  Uiso   1.00
C56    C     0.56420   0.07080   0.36860   0.01267  Uiso   1.00
C57    C     0.65770   0.12260   0.37980   0.01267  Uiso   1.00
C58    C     0.51220   0.17240   0.46390   0.01267  Uiso   1.00
C59    C     0.41180   0.12540   0.45700   0.01267  Uiso   1.00
C60    C     0.43890   0.07280   0.40870   0.01267  Uiso   1.00
C61    C     0.33870   0.10770   0.18870   0.01267  Uiso   1.00
C62    C     0.32300   0.19170   0.21820   0.01267  Uiso   1.00
C63    C     0.43430   0.23350   0.22140   0.01267  Uiso   1.00
C64    C     0.41210   0.31030   0.24920   0.01267  Uiso   1.00
C65    C     0.27830   0.34240   0.27420   0.01267  Uiso   1.00
C66    C     0.19250   0.22870   0.24490   0.01267  Uiso   1.00
C67    C     0.08410   0.18190   0.69220   0.01267  Uiso   1.00
C68    C     0.11760   0.25400   0.62600   0.01267  Uiso   1.00
C69    C     0.01720   0.29690   0.57850   0.01267  Uiso   1.00
C70    C     0.16510   0.38810   0.50570   0.01267  Uiso   1.00
C71    C     0.27210   0.34940   0.54960   0.01267  Uiso   1.00
C72    C     0.24850   0.27930   0.61000   0.01267  Uiso   1.00
Br1    Br    0.33005   0.62786   0.50791   0.01267  Uiso   1.00
Br2    Br    0.03804   0.49677   0.66219   0.01267  Uiso   1.00
Br3    Br    0.98307   0.81511   0.56409   0.01267  Uiso   1.00
Br4    Br    0.21733   0.67507   0.72822   0.01267  Uiso   1.00
Br5    Br    0.49876   0.42175   0.86415   0.01267  Uiso   1.00
Br6    Br    0.62345   0.61616   0.94466   0.01267  Uiso   1.00
Br7    Br    0.66995   0.37214   0.49209   0.01267  Uiso   1.00
Br8    Br    0.96196   0.50323   0.33781   0.01267  Uiso   1.00
Br9    Br    0.01693   0.18489   0.43591   0.01267  Uiso   1.00
Br10   Br    0.78267   0.32493   0.27178   0.01267  Uiso   1.00
Br11   Br    0.50124   0.57825   0.13585   0.01267  Uiso   1.00
Br12   Br    0.37655   0.38384   0.05534   0.01267  Uiso   1.00
N1     N     0.43570   0.46470   0.67230   0.01267  Uiso   1.00
N2     N     0.86800   0.43430   0.86220   0.01267  Uiso   1.00
N3     N     0.24200   0.61970   0.94170   0.01267  Uiso   1.00
N4     N     0.36550   0.82740   0.57320   0.01267  Uiso   1.00
N5     N     0.83100   0.69830   0.72590   0.01267  Uiso   1.00
N6     N     0.96120   0.63760   0.48140   0.01267  Uiso   1.00
N7     N     0.56430   0.53530   0.32770   0.01267  Uiso   1.00
N8     N     0.13200   0.56570   0.13780   0.01267  Uiso   1.00
N9     N     0.75800   0.38030   0.05830   0.01267  Uiso   1.00
N10    N     0.63450   0.17260   0.42680   0.01267  Uiso   1.00
N11    N     0.16900   0.30170   0.27410   0.01267  Uiso   1.00
N12    N     0.03880   0.36240   0.51860   0.01267  Uiso   1.00
O1     O     0.43760   0.18160   0.77810   0.01267  Uiso   1.00
O2     O     0.66090   0.15810   0.79910   0.01267  Uiso   1.00
O3     O     0.94240   0.15710   0.84690   0.01267  Uiso   1.00
O4     O     0.16490   0.13290   0.87230   0.01267  Uiso   1.00
O5     O     0.26800   0.90760   0.88740   0.01267  Uiso   1.00
O6     O     0.05360   0.95030   0.85500   0.01267  Uiso   1.00
O7     O     0.46820   0.04110   0.69040   0.01267  Uiso   1.00
O8     O     0.30350   0.95430   0.73350   0.01267  Uiso   1.00
O9     O     0.76950   0.91670   0.82040   0.01267  Uiso   1.00
O10    O     0.54030   0.93400   0.82510   0.01267  Uiso   1.00
O11    O     0.03850   0.83550   0.29700   0.01267  Uiso   1.00
O12    O     0.82160   0.85660   0.26780   0.01267  Uiso   1.00
O13    O     0.56240   0.81840   0.22190   0.01267  Uiso   1.00
O14    O     0.33910   0.84190   0.20090   0.01267  Uiso   1.00
O15    O     0.05760   0.84290   0.15310   0.01267  Uiso   1.00
O16    O     0.83510   0.86710   0.12770   0.01267  Uiso   1.00
O17    O     0.73200   0.09240   0.11260   0.01267  Uiso   1.00
O18    O     0.94640   0.04970   0.14500   0.01267  Uiso   1.00
O19    O     0.53180   0.95890   0.30960   0.01267  Uiso   1.00
O20    O     0.69650   0.04570   0.26650   0.01267  Uiso   1.00
O21    O     0.23050   0.08330   0.17960   0.01267  Uiso   1.00
O22    O     0.45970   0.06600   0.17490   0.01267  Uiso   1.00
O23    O     0.96150   0.16450   0.70300   0.01267  Uiso   1.00
O24    O     0.17840   0.14340   0.73220   0.01267  Uiso   1.00
