data_WEFCAN_clean
_audit_creation_date              2014-07-02
_audit_creation_method            'Materials Studio'
_symmetry_space_group_name_H-M    'P1'
_symmetry_Int_Tables_number       1
_symmetry_cell_setting            triclinic
loop_
_symmetry_equiv_pos_as_xyz
  x,y,z
_cell_length_a                    8.9846
_cell_length_b                    12.3259
_cell_length_c                    24.0229
_cell_angle_alpha                 90.0000
_cell_angle_beta                  90.0000
_cell_angle_gamma                 111.3740
loop_
_atom_site_label
_atom_site_type_symbol
_atom_site_fract_x
_atom_site_fract_y
_atom_site_fract_z
_atom_site_U_iso_or_equiv
_atom_site_adp_type
_atom_site_occupancy
Fe1    Fe    0.50000   0.50000   0.50000   0.01267  Uiso   1.00
Fe2    Fe    0.00000   0.50000   0.00000   0.01267  Uiso   1.00
H1     H     0.84350   0.59820   0.55120   0.01267  Uiso   1.00
H2     H     0.00030   0.73040   0.61340   0.01267  Uiso   1.00
H3     H     0.61170   0.79240   0.66200   0.01267  Uiso   1.00
H4     H     0.46880   0.65760   0.59800   0.01267  Uiso   1.00
H5     H     0.82150   0.97200   0.69070   0.01267  Uiso   1.00
H6     H     0.77390   0.87500   0.73710   0.01267  Uiso   1.00
H7     H     0.15650   0.40180   0.55120   0.01267  Uiso   1.00
H8     H     0.99970   0.26960   0.61340   0.01267  Uiso   1.00
H9     H     0.38830   0.20760   0.66200   0.01267  Uiso   1.00
H10    H     0.53120   0.34240   0.59800   0.01267  Uiso   1.00
H11    H     0.17850   0.02800   0.69070   0.01267  Uiso   1.00
H12    H     0.22610   0.12500   0.73710   0.01267  Uiso   1.00
H13    H     0.75470   0.59820   0.94880   0.01267  Uiso   1.00
H14    H     0.73010   0.73040   0.88660   0.01267  Uiso   1.00
H15    H     0.18070   0.79240   0.83800   0.01267  Uiso   1.00
H16    H     0.18880   0.65760   0.90200   0.01267  Uiso   1.00
H17    H     0.15050   0.97200   0.80930   0.01267  Uiso   1.00
H18    H     0.10110   0.87500   0.76290   0.01267  Uiso   1.00
H19    H     0.24530   0.40180   0.94880   0.01267  Uiso   1.00
H20    H     0.26990   0.26960   0.88660   0.01267  Uiso   1.00
H21    H     0.81930   0.20760   0.83800   0.01267  Uiso   1.00
H22    H     0.81120   0.34240   0.90200   0.01267  Uiso   1.00
H23    H     0.84950   0.02800   0.80930   0.01267  Uiso   1.00
H24    H     0.89890   0.12500   0.76290   0.01267  Uiso   1.00
H25    H     0.15650   0.40180   0.44880   0.01267  Uiso   1.00
H26    H     0.99970   0.26960   0.38660   0.01267  Uiso   1.00
H27    H     0.38830   0.20760   0.33800   0.01267  Uiso   1.00
H28    H     0.53120   0.34240   0.40200   0.01267  Uiso   1.00
H29    H     0.17850   0.02800   0.30930   0.01267  Uiso   1.00
H30    H     0.22610   0.12500   0.26290   0.01267  Uiso   1.00
H31    H     0.84350   0.59820   0.44880   0.01267  Uiso   1.00
H32    H     0.00030   0.73040   0.38660   0.01267  Uiso   1.00
H33    H     0.61170   0.79240   0.33800   0.01267  Uiso   1.00
H34    H     0.46880   0.65760   0.40200   0.01267  Uiso   1.00
H35    H     0.82150   0.97200   0.30930   0.01267  Uiso   1.00
H36    H     0.77390   0.87500   0.26290   0.01267  Uiso   1.00
H37    H     0.24530   0.40180   0.05120   0.01267  Uiso   1.00
H38    H     0.26990   0.26960   0.11340   0.01267  Uiso   1.00
H39    H     0.81930   0.20760   0.16200   0.01267  Uiso   1.00
H40    H     0.81120   0.34240   0.09800   0.01267  Uiso   1.00
H41    H     0.84950   0.02800   0.19070   0.01267  Uiso   1.00
H42    H     0.89890   0.12500   0.23710   0.01267  Uiso   1.00
H43    H     0.75470   0.59820   0.05120   0.01267  Uiso   1.00
H44    H     0.73010   0.73040   0.11340   0.01267  Uiso   1.00
H45    H     0.18070   0.79240   0.16200   0.01267  Uiso   1.00
H46    H     0.18880   0.65760   0.09800   0.01267  Uiso   1.00
H47    H     0.15050   0.97200   0.19070   0.01267  Uiso   1.00
H48    H     0.10110   0.87500   0.23710   0.01267  Uiso   1.00
C1     C     0.79648   0.63856   0.57340   0.01267  Uiso   1.00
C2     C     0.89172   0.71724   0.61084   0.01267  Uiso   1.00
C3     C     0.82322   0.77684   0.64485   0.01267  Uiso   1.00
C4     C     0.66199   0.75418   0.63975   0.01267  Uiso   1.00
C5     C     0.57799   0.67358   0.60086   0.01267  Uiso   1.00
C6     C     0.86080   0.92400   0.71395   0.01267  Uiso   1.00
C7     C     0.20352   0.36144   0.57340   0.01267  Uiso   1.00
C8     C     0.10828   0.28276   0.61084   0.01267  Uiso   1.00
C9     C     0.17678   0.22316   0.64485   0.01267  Uiso   1.00
C10    C     0.33801   0.24582   0.63975   0.01267  Uiso   1.00
C11    C     0.42201   0.32642   0.60086   0.01267  Uiso   1.00
C12    C     0.13920   0.07600   0.71395   0.01267  Uiso   1.00
C13    C     0.84208   0.63856   0.92660   0.01267  Uiso   1.00
C14    C     0.82552   0.71724   0.88916   0.01267  Uiso   1.00
C15    C     0.95362   0.77684   0.85515   0.01267  Uiso   1.00
C16    C     0.09219   0.75418   0.86025   0.01267  Uiso   1.00
C17    C     0.09559   0.67358   0.89914   0.01267  Uiso   1.00
C18    C     0.06320   0.92400   0.78605   0.01267  Uiso   1.00
C19    C     0.15792   0.36144   0.92660   0.01267  Uiso   1.00
C20    C     0.17448   0.28276   0.88916   0.01267  Uiso   1.00
C21    C     0.04638   0.22316   0.85515   0.01267  Uiso   1.00
C22    C     0.90781   0.24582   0.86025   0.01267  Uiso   1.00
C23    C     0.90441   0.32642   0.89914   0.01267  Uiso   1.00
C24    C     0.93680   0.07600   0.78605   0.01267  Uiso   1.00
C25    C     0.20352   0.36144   0.42660   0.01267  Uiso   1.00
C26    C     0.10828   0.28276   0.38916   0.01267  Uiso   1.00
C27    C     0.17678   0.22316   0.35515   0.01267  Uiso   1.00
C28    C     0.33801   0.24582   0.36025   0.01267  Uiso   1.00
C29    C     0.42201   0.32642   0.39914   0.01267  Uiso   1.00
C30    C     0.13920   0.07600   0.28605   0.01267  Uiso   1.00
C31    C     0.79648   0.63856   0.42660   0.01267  Uiso   1.00
C32    C     0.89172   0.71724   0.38916   0.01267  Uiso   1.00
C33    C     0.82322   0.77684   0.35515   0.01267  Uiso   1.00
C34    C     0.66199   0.75418   0.36025   0.01267  Uiso   1.00
C35    C     0.57799   0.67358   0.39914   0.01267  Uiso   1.00
C36    C     0.86080   0.92400   0.28605   0.01267  Uiso   1.00
C37    C     0.15792   0.36144   0.07340   0.01267  Uiso   1.00
C38    C     0.17448   0.28276   0.11084   0.01267  Uiso   1.00
C39    C     0.04638   0.22316   0.14485   0.01267  Uiso   1.00
C40    C     0.90781   0.24582   0.13975   0.01267  Uiso   1.00
C41    C     0.90441   0.32642   0.10086   0.01267  Uiso   1.00
C42    C     0.93680   0.07600   0.21395   0.01267  Uiso   1.00
C43    C     0.84208   0.63856   0.07340   0.01267  Uiso   1.00
C44    C     0.82552   0.71724   0.11084   0.01267  Uiso   1.00
C45    C     0.95362   0.77684   0.14485   0.01267  Uiso   1.00
C46    C     0.09219   0.75418   0.13975   0.01267  Uiso   1.00
C47    C     0.09559   0.67358   0.10086   0.01267  Uiso   1.00
C48    C     0.06320   0.92400   0.21395   0.01267  Uiso   1.00
C49    C     0.71947   0.34154   0.50000   0.01267  Uiso   1.00
C50    C     0.28053   0.65846   0.50000   0.01267  Uiso   1.00
C51    C     0.62207   0.34154   0.00000   0.01267  Uiso   1.00
C52    C     0.37793   0.65846   0.00000   0.01267  Uiso   1.00
C53    C     0.00000   0.00000   0.75000   0.01267  Uiso   1.00
C54    C     0.00000   0.00000   0.25000   0.01267  Uiso   1.00
S1     S     0.80153   0.24310   0.50000   0.01267  Uiso   1.00
S2     S     0.19847   0.75690   0.50000   0.01267  Uiso   1.00
S3     S     0.44157   0.24310   0.00000   0.01267  Uiso   1.00
S4     S     0.55843   0.75690   0.00000   0.01267  Uiso   1.00
N1     N     0.64144   0.61628   0.56677   0.01267  Uiso   1.00
N2     N     0.35856   0.38372   0.56677   0.01267  Uiso   1.00
N3     N     0.97484   0.61628   0.93323   0.01267  Uiso   1.00
N4     N     0.02516   0.38372   0.93323   0.01267  Uiso   1.00
N5     N     0.35856   0.38372   0.43323   0.01267  Uiso   1.00
N6     N     0.64144   0.61628   0.43323   0.01267  Uiso   1.00
N7     N     0.02516   0.38372   0.06677   0.01267  Uiso   1.00
N8     N     0.97484   0.61628   0.06677   0.01267  Uiso   1.00
N9     N     0.66066   0.40992   0.50000   0.01267  Uiso   1.00
N10    N     0.33934   0.59008   0.50000   0.01267  Uiso   1.00
N11    N     0.74926   0.40992   0.00000   0.01267  Uiso   1.00
N12    N     0.25074   0.59008   0.00000   0.01267  Uiso   1.00
O1     O     0.92329   0.85438   0.68039   0.01267  Uiso   1.00
O2     O     0.07671   0.14562   0.68039   0.01267  Uiso   1.00
O3     O     0.93109   0.85438   0.81961   0.01267  Uiso   1.00
O4     O     0.06891   0.14562   0.81961   0.01267  Uiso   1.00
O5     O     0.07671   0.14562   0.31961   0.01267  Uiso   1.00
O6     O     0.92329   0.85438   0.31961   0.01267  Uiso   1.00
O7     O     0.06891   0.14562   0.18039   0.01267  Uiso   1.00
O8     O     0.93109   0.85438   0.18039   0.01267  Uiso   1.00
