data_image0
_cell_length_a       21.5765
_cell_length_b       21.5765
_cell_length_c       11.3469
_cell_angle_alpha    90
_cell_angle_beta     90
_cell_angle_gamma    90

_symmetry_space_group_name_H-M    "P 1"
_symmetry_int_tables_number       1

loop_
  _symmetry_equiv_pos_as_xyz
  'x, y, z'

loop_
  _atom_site_label
  _atom_site_occupancy
  _atom_site_fract_x
  _atom_site_fract_y
  _atom_site_fract_z
  _atom_site_thermal_displace_type
  _atom_site_B_iso_or_equiv
  _atom_site_type_symbol
  Sm1      1.0000 0.42776  0.93618  0.03058  Biso   1.000  Sm
  O1       1.0000 0.50522  0.00742  0.11647  Biso   1.000  O
  N1       1.0000 0.43745  0.93805  0.27170  Biso   1.000  N
  C1       1.0000 0.49328  0.05599  0.17770  Biso   1.000  C
  O2       1.0000 0.26566  0.02663  0.53818  Biso   1.000  O
  O3       1.0000 0.51452  0.10749  0.14636  Biso   1.000  O
  C2       1.0000 0.45175  0.05224  0.28340  Biso   1.000  C
  O4       1.0000 0.30853  0.11052  0.61188  Biso   1.000  O
  C3       1.0000 0.43926  0.10811  0.34040  Biso   1.000  C
  H1       1.0000 0.46170  0.14410  0.31800  Biso   1.000  H
  C4       1.0000 0.39543  0.11261  0.42810  Biso   1.000  C
  H2       1.0000 0.38890  0.15060  0.46860  Biso   1.000  H
  O5       1.0000 0.33105  0.92806  0.14817  Biso   1.000  O
  C5       1.0000 0.36112  0.06061  0.45590  Biso   1.000  C
  O6       1.0000 0.28724  0.86938  0.28924  Biso   1.000  O
  C6       1.0000 0.37363  0.00338  0.40310  Biso   1.000  C
  H3       1.0000 0.34960  0.96810  0.42370  Biso   1.000  H
  O7       1.0000 0.50873  0.87496  0.11268  Biso   1.000  O
  C7       1.0000 0.42078  0.99775  0.32110  Biso   1.000  C
  O8       1.0000 0.58463  0.85915  0.24120  Biso   1.000  O
  C8       1.0000 0.30951  0.06793  0.54250  Biso   1.000  C
  C9       1.0000 0.39461  0.88755  0.30090  Biso   1.000  C
  H4       1.0000 0.38890  0.88600  0.38740  Biso   1.000  H
  H5       1.0000 0.41300  0.84770  0.27560  Biso   1.000  H
  C10      1.0000 0.33218  0.89552  0.24240  Biso   1.000  C
  C11      1.0000 0.50162  0.92003  0.30550  Biso   1.000  C
  H6       1.0000 0.50010  0.89610  0.37990  Biso   1.000  H
  H7       1.0000 0.52620  0.95800  0.32020  Biso   1.000  H
  C12      1.0000 0.53396  0.88140  0.21180  Biso   1.000  C
  H8       1.0000 0.23780  0.03950  0.58560  Biso   1.000  H
  Sm2      1.0000 0.92776  0.43618  0.53058  Biso   1.000  Sm
  O9       1.0000 0.00522  0.50742  0.61647  Biso   1.000  O
  N2       1.0000 0.93745  0.43805  0.77170  Biso   1.000  N
  C13      1.0000 0.99328  0.55599  0.67770  Biso   1.000  C
  O10      1.0000 0.76566  0.52663  0.03818  Biso   1.000  O
  O11      1.0000 0.01452  0.60749  0.64636  Biso   1.000  O
  C14      1.0000 0.95175  0.55224  0.78340  Biso   1.000  C
  O12      1.0000 0.80853  0.61052  0.11188  Biso   1.000  O
  C15      1.0000 0.93926  0.60811  0.84040  Biso   1.000  C
  H9       1.0000 0.96170  0.64410  0.81800  Biso   1.000  H
  C16      1.0000 0.89543  0.61261  0.92810  Biso   1.000  C
  H10      1.0000 0.88890  0.65060  0.96860  Biso   1.000  H
  O13      1.0000 0.83105  0.42806  0.64817  Biso   1.000  O
  C17      1.0000 0.86112  0.56061  0.95590  Biso   1.000  C
  O14      1.0000 0.78724  0.36938  0.78924  Biso   1.000  O
  C18      1.0000 0.87363  0.50338  0.90310  Biso   1.000  C
  H11      1.0000 0.84960  0.46810  0.92370  Biso   1.000  H
  O15      1.0000 0.00873  0.37496  0.61268  Biso   1.000  O
  C19      1.0000 0.92078  0.49775  0.82110  Biso   1.000  C
  O16      1.0000 0.08463  0.35915  0.74120  Biso   1.000  O
  C20      1.0000 0.80951  0.56793  0.04250  Biso   1.000  C
  C21      1.0000 0.89461  0.38755  0.80090  Biso   1.000  C
  H12      1.0000 0.88890  0.38600  0.88740  Biso   1.000  H
  H13      1.0000 0.91300  0.34770  0.77560  Biso   1.000  H
  C22      1.0000 0.83218  0.39552  0.74240  Biso   1.000  C
  C23      1.0000 0.00162  0.42003  0.80550  Biso   1.000  C
  H14      1.0000 0.00010  0.39610  0.87990  Biso   1.000  H
  H15      1.0000 0.02620  0.45800  0.82020  Biso   1.000  H
  C24      1.0000 0.03396  0.38140  0.71180  Biso   1.000  C
  H16      1.0000 0.73780  0.53950  0.08560  Biso   1.000  H
  Sm3      1.0000 0.07224  0.06382  0.53058  Biso   1.000  Sm
  O17      1.0000 0.99478  0.99258  0.61647  Biso   1.000  O
  N3       1.0000 0.06255  0.06195  0.77170  Biso   1.000  N
  C25      1.0000 0.00672  0.94401  0.67770  Biso   1.000  C
  O18      1.0000 0.23434  0.97337  0.03818  Biso   1.000  O
  O19      1.0000 0.98548  0.89251  0.64636  Biso   1.000  O
  C26      1.0000 0.04825  0.94776  0.78340  Biso   1.000  C
  O20      1.0000 0.19147  0.88948  0.11188  Biso   1.000  O
  C27      1.0000 0.06074  0.89189  0.84040  Biso   1.000  C
  H17      1.0000 0.03830  0.85590  0.81800  Biso   1.000  H
  C28      1.0000 0.10457  0.88739  0.92810  Biso   1.000  C
  H18      1.0000 0.11110  0.84940  0.96860  Biso   1.000  H
  O21      1.0000 0.16895  0.07194  0.64817  Biso   1.000  O
  C29      1.0000 0.13888  0.93939  0.95590  Biso   1.000  C
  O22      1.0000 0.21276  0.13062  0.78924  Biso   1.000  O
  C30      1.0000 0.12637  0.99662  0.90310  Biso   1.000  C
  H19      1.0000 0.15040  0.03190  0.92370  Biso   1.000  H
  O23      1.0000 0.99127  0.12504  0.61268  Biso   1.000  O
  C31      1.0000 0.07922  0.00225  0.82110  Biso   1.000  C
  O24      1.0000 0.91537  0.14085  0.74120  Biso   1.000  O
  C32      1.0000 0.19049  0.93207  0.04250  Biso   1.000  C
  C33      1.0000 0.10539  0.11245  0.80090  Biso   1.000  C
  H20      1.0000 0.11110  0.11400  0.88740  Biso   1.000  H
  H21      1.0000 0.08700  0.15230  0.77560  Biso   1.000  H
  C34      1.0000 0.16782  0.10448  0.74240  Biso   1.000  C
  C35      1.0000 0.99838  0.07997  0.80550  Biso   1.000  C
  H22      1.0000 0.99990  0.10390  0.87990  Biso   1.000  H
  H23      1.0000 0.97380  0.04200  0.82020  Biso   1.000  H
  C36      1.0000 0.96604  0.11860  0.71180  Biso   1.000  C
  H24      1.0000 0.26220  0.96050  0.08560  Biso   1.000  H
  Sm4      1.0000 0.57224  0.56382  0.03058  Biso   1.000  Sm
  O25      1.0000 0.49478  0.49258  0.11647  Biso   1.000  O
  N4       1.0000 0.56255  0.56195  0.27170  Biso   1.000  N
  C37      1.0000 0.50672  0.44401  0.17770  Biso   1.000  C
  O26      1.0000 0.73434  0.47337  0.53818  Biso   1.000  O
  O27      1.0000 0.48548  0.39251  0.14636  Biso   1.000  O
  C38      1.0000 0.54825  0.44776  0.28340  Biso   1.000  C
  O28      1.0000 0.69147  0.38948  0.61188  Biso   1.000  O
  C39      1.0000 0.56074  0.39189  0.34040  Biso   1.000  C
  H25      1.0000 0.53830  0.35590  0.31800  Biso   1.000  H
  C40      1.0000 0.60457  0.38739  0.42810  Biso   1.000  C
  H26      1.0000 0.61110  0.34940  0.46860  Biso   1.000  H
  O29      1.0000 0.66895  0.57194  0.14817  Biso   1.000  O
  C41      1.0000 0.63888  0.43939  0.45590  Biso   1.000  C
  O30      1.0000 0.71276  0.63062  0.28924  Biso   1.000  O
  C42      1.0000 0.62637  0.49662  0.40310  Biso   1.000  C
  H27      1.0000 0.65040  0.53190  0.42370  Biso   1.000  H
  O31      1.0000 0.49127  0.62504  0.11268  Biso   1.000  O
  C43      1.0000 0.57922  0.50225  0.32110  Biso   1.000  C
  O32      1.0000 0.41537  0.64085  0.24120  Biso   1.000  O
  C44      1.0000 0.69049  0.43207  0.54250  Biso   1.000  C
  C45      1.0000 0.60539  0.61245  0.30090  Biso   1.000  C
  H28      1.0000 0.61110  0.61400  0.38740  Biso   1.000  H
  H29      1.0000 0.58700  0.65230  0.27560  Biso   1.000  H
  C46      1.0000 0.66782  0.60448  0.24240  Biso   1.000  C
  C47      1.0000 0.49838  0.57997  0.30550  Biso   1.000  C
  H30      1.0000 0.49990  0.60390  0.37990  Biso   1.000  H
  H31      1.0000 0.47380  0.54200  0.32020  Biso   1.000  H
  C48      1.0000 0.46604  0.61860  0.21180  Biso   1.000  C
  H32      1.0000 0.76220  0.46050  0.58560  Biso   1.000  H
  Sm5      1.0000 0.81382  0.67776  0.28058  Biso   1.000  Sm
  O33      1.0000 0.74258  0.75522  0.36647  Biso   1.000  O
  N5       1.0000 0.81195  0.68745  0.52170  Biso   1.000  N
  C49      1.0000 0.69401  0.74328  0.42770  Biso   1.000  C
  O34      1.0000 0.72337  0.51566  0.78818  Biso   1.000  O
  O35      1.0000 0.64251  0.76452  0.39636  Biso   1.000  O
  C50      1.0000 0.69776  0.70175  0.53340  Biso   1.000  C
  O36      1.0000 0.63948  0.55853  0.86188  Biso   1.000  O
  C51      1.0000 0.64189  0.68926  0.59040  Biso   1.000  C
  H33      1.0000 0.60590  0.71170  0.56800  Biso   1.000  H
  C52      1.0000 0.63739  0.64543  0.67810  Biso   1.000  C
  H34      1.0000 0.59940  0.63890  0.71860  Biso   1.000  H
  O37      1.0000 0.82194  0.58105  0.39817  Biso   1.000  O
  C53      1.0000 0.68939  0.61112  0.70590  Biso   1.000  C
  O38      1.0000 0.88062  0.53724  0.53924  Biso   1.000  O
  C54      1.0000 0.74662  0.62363  0.65310  Biso   1.000  C
  H35      1.0000 0.78190  0.59960  0.67370  Biso   1.000  H
  O39      1.0000 0.87504  0.75873  0.36268  Biso   1.000  O
  C55      1.0000 0.75225  0.67078  0.57110  Biso   1.000  C
  O40      1.0000 0.89085  0.83463  0.49120  Biso   1.000  O
  C56      1.0000 0.68207  0.55951  0.79250  Biso   1.000  C
  C57      1.0000 0.86245  0.64461  0.55090  Biso   1.000  C
  H36      1.0000 0.86400  0.63890  0.63740  Biso   1.000  H
  H37      1.0000 0.90230  0.66300  0.52560  Biso   1.000  H
  C58      1.0000 0.85448  0.58218  0.49240  Biso   1.000  C
  C59      1.0000 0.82997  0.75162  0.55550  Biso   1.000  C
  H38      1.0000 0.85390  0.75010  0.62990  Biso   1.000  H
  H39      1.0000 0.79200  0.77620  0.57020  Biso   1.000  H
  C60      1.0000 0.86860  0.78396  0.46180  Biso   1.000  C
  H40      1.0000 0.71050  0.48780  0.83560  Biso   1.000  H
  Sm6      1.0000 0.31382  0.17776  0.78058  Biso   1.000  Sm
  O41      1.0000 0.24258  0.25522  0.86647  Biso   1.000  O
  N6       1.0000 0.31195  0.18745  0.02170  Biso   1.000  N
  C61      1.0000 0.19401  0.24328  0.92770  Biso   1.000  C
  O42      1.0000 0.22337  0.01566  0.28818  Biso   1.000  O
  O43      1.0000 0.14251  0.26452  0.89636  Biso   1.000  O
  C62      1.0000 0.19776  0.20175  0.03340  Biso   1.000  C
  O44      1.0000 0.13948  0.05853  0.36188  Biso   1.000  O
  C63      1.0000 0.14189  0.18926  0.09040  Biso   1.000  C
  H41      1.0000 0.10590  0.21170  0.06800  Biso   1.000  H
  C64      1.0000 0.13739  0.14543  0.17810  Biso   1.000  C
  H42      1.0000 0.09940  0.13890  0.21860  Biso   1.000  H
  O45      1.0000 0.32194  0.08105  0.89817  Biso   1.000  O
  C65      1.0000 0.18939  0.11112  0.20590  Biso   1.000  C
  O46      1.0000 0.38062  0.03724  0.03924  Biso   1.000  O
  C66      1.0000 0.24662  0.12363  0.15310  Biso   1.000  C
  H43      1.0000 0.28190  0.09960  0.17370  Biso   1.000  H
  O47      1.0000 0.37504  0.25873  0.86268  Biso   1.000  O
  C67      1.0000 0.25225  0.17078  0.07110  Biso   1.000  C
  O48      1.0000 0.39085  0.33463  0.99120  Biso   1.000  O
  C68      1.0000 0.18207  0.05951  0.29250  Biso   1.000  C
  C69      1.0000 0.36245  0.14461  0.05090  Biso   1.000  C
  H44      1.0000 0.36400  0.13890  0.13740  Biso   1.000  H
  H45      1.0000 0.40230  0.16300  0.02560  Biso   1.000  H
  C70      1.0000 0.35448  0.08218  0.99240  Biso   1.000  C
  C71      1.0000 0.32997  0.25162  0.05550  Biso   1.000  C
  H46      1.0000 0.35390  0.25010  0.12990  Biso   1.000  H
  H47      1.0000 0.29200  0.27620  0.07020  Biso   1.000  H
  C72      1.0000 0.36860  0.28396  0.96180  Biso   1.000  C
  H48      1.0000 0.21050  0.98780  0.33560  Biso   1.000  H
  Sm7      1.0000 0.68618  0.32224  0.78058  Biso   1.000  Sm
  O49      1.0000 0.75742  0.24478  0.86647  Biso   1.000  O
  N7       1.0000 0.68805  0.31255  0.02170  Biso   1.000  N
  C73      1.0000 0.80599  0.25672  0.92770  Biso   1.000  C
  O50      1.0000 0.77663  0.48434  0.28818  Biso   1.000  O
  O51      1.0000 0.85749  0.23548  0.89636  Biso   1.000  O
  C74      1.0000 0.80224  0.29825  0.03340  Biso   1.000  C
  O52      1.0000 0.86052  0.44147  0.36188  Biso   1.000  O
  C75      1.0000 0.85811  0.31074  0.09040  Biso   1.000  C
  H49      1.0000 0.89410  0.28830  0.06800  Biso   1.000  H
  C76      1.0000 0.86261  0.35457  0.17810  Biso   1.000  C
  H50      1.0000 0.90060  0.36110  0.21860  Biso   1.000  H
  O53      1.0000 0.67806  0.41895  0.89817  Biso   1.000  O
  C77      1.0000 0.81061  0.38888  0.20590  Biso   1.000  C
  O54      1.0000 0.61938  0.46276  0.03924  Biso   1.000  O
  C78      1.0000 0.75338  0.37637  0.15310  Biso   1.000  C
  H51      1.0000 0.71810  0.40040  0.17370  Biso   1.000  H
  O55      1.0000 0.62496  0.24127  0.86268  Biso   1.000  O
  C79      1.0000 0.74775  0.32922  0.07110  Biso   1.000  C
  O56      1.0000 0.60915  0.16537  0.99120  Biso   1.000  O
  C80      1.0000 0.81793  0.44049  0.29250  Biso   1.000  C
  C81      1.0000 0.63755  0.35539  0.05090  Biso   1.000  C
  H52      1.0000 0.63600  0.36110  0.13740  Biso   1.000  H
  H53      1.0000 0.59770  0.33700  0.02560  Biso   1.000  H
  C82      1.0000 0.64552  0.41782  0.99240  Biso   1.000  C
  C83      1.0000 0.67003  0.24838  0.05550  Biso   1.000  C
  H54      1.0000 0.64610  0.24990  0.12990  Biso   1.000  H
  H55      1.0000 0.70800  0.22380  0.07020  Biso   1.000  H
  C84      1.0000 0.63140  0.21604  0.96180  Biso   1.000  C
  H56      1.0000 0.78950  0.51220  0.33560  Biso   1.000  H
  Sm8      1.0000 0.18618  0.82224  0.28058  Biso   1.000  Sm
  O57      1.0000 0.25742  0.74478  0.36647  Biso   1.000  O
  N8       1.0000 0.18805  0.81255  0.52170  Biso   1.000  N
  C85      1.0000 0.30599  0.75672  0.42770  Biso   1.000  C
  O58      1.0000 0.27663  0.98434  0.78818  Biso   1.000  O
  O59      1.0000 0.35749  0.73548  0.39636  Biso   1.000  O
  C86      1.0000 0.30224  0.79825  0.53340  Biso   1.000  C
  O60      1.0000 0.36052  0.94147  0.86188  Biso   1.000  O
  C87      1.0000 0.35811  0.81074  0.59040  Biso   1.000  C
  H57      1.0000 0.39410  0.78830  0.56800  Biso   1.000  H
  C88      1.0000 0.36261  0.85457  0.67810  Biso   1.000  C
  H58      1.0000 0.40060  0.86110  0.71860  Biso   1.000  H
  O61      1.0000 0.17806  0.91895  0.39817  Biso   1.000  O
  C89      1.0000 0.31061  0.88888  0.70590  Biso   1.000  C
  O62      1.0000 0.11938  0.96276  0.53924  Biso   1.000  O
  C90      1.0000 0.25338  0.87637  0.65310  Biso   1.000  C
  H59      1.0000 0.21810  0.90040  0.67370  Biso   1.000  H
  O63      1.0000 0.12496  0.74127  0.36268  Biso   1.000  O
  C91      1.0000 0.24775  0.82922  0.57110  Biso   1.000  C
  O64      1.0000 0.10915  0.66537  0.49120  Biso   1.000  O
  C92      1.0000 0.31793  0.94049  0.79250  Biso   1.000  C
  C93      1.0000 0.13755  0.85539  0.55090  Biso   1.000  C
  H60      1.0000 0.13600  0.86110  0.63740  Biso   1.000  H
  H61      1.0000 0.09770  0.83700  0.52560  Biso   1.000  H
  C94      1.0000 0.14552  0.91782  0.49240  Biso   1.000  C
  C95      1.0000 0.17003  0.74838  0.55550  Biso   1.000  C
  H62      1.0000 0.14610  0.74990  0.62990  Biso   1.000  H
  H63      1.0000 0.20800  0.72380  0.57020  Biso   1.000  H
  C96      1.0000 0.13140  0.71604  0.46180  Biso   1.000  C
  H64      1.0000 0.28950  0.01220  0.83560  Biso   1.000  H
  Sm9      1.0000 0.57224  0.06382  0.96942  Biso   1.000  Sm
  O65      1.0000 0.49478  0.99258  0.88353  Biso   1.000  O
  N9       1.0000 0.56255  0.06195  0.72830  Biso   1.000  N
  C97      1.0000 0.50672  0.94401  0.82230  Biso   1.000  C
  O66      1.0000 0.73434  0.97337  0.46182  Biso   1.000  O
  O67      1.0000 0.48548  0.89251  0.85364  Biso   1.000  O
  C98      1.0000 0.54825  0.94776  0.71660  Biso   1.000  C
  O68      1.0000 0.69147  0.88948  0.38812  Biso   1.000  O
  C99      1.0000 0.56074  0.89189  0.65960  Biso   1.000  C
  H65      1.0000 0.53830  0.85590  0.68200  Biso   1.000  H
  C100     1.0000 0.60457  0.88739  0.57190  Biso   1.000  C
  H66      1.0000 0.61110  0.84940  0.53140  Biso   1.000  H
  O69      1.0000 0.66895  0.07194  0.85183  Biso   1.000  O
  C101     1.0000 0.63888  0.93939  0.54410  Biso   1.000  C
  O70      1.0000 0.71276  0.13062  0.71076  Biso   1.000  O
  C102     1.0000 0.62637  0.99662  0.59690  Biso   1.000  C
  H67      1.0000 0.65040  0.03190  0.57630  Biso   1.000  H
  O71      1.0000 0.49127  0.12504  0.88732  Biso   1.000  O
  C103     1.0000 0.57922  0.00225  0.67890  Biso   1.000  C
  O72      1.0000 0.41537  0.14085  0.75880  Biso   1.000  O
  C104     1.0000 0.69049  0.93207  0.45750  Biso   1.000  C
  C105     1.0000 0.60539  0.11245  0.69910  Biso   1.000  C
  H68      1.0000 0.61110  0.11400  0.61260  Biso   1.000  H
  H69      1.0000 0.58700  0.15230  0.72440  Biso   1.000  H
  C106     1.0000 0.66782  0.10448  0.75760  Biso   1.000  C
  C107     1.0000 0.49838  0.07997  0.69450  Biso   1.000  C
  H70      1.0000 0.49990  0.10390  0.62010  Biso   1.000  H
  H71      1.0000 0.47380  0.04200  0.67980  Biso   1.000  H
  C108     1.0000 0.46604  0.11860  0.78820  Biso   1.000  C
  H72      1.0000 0.76220  0.96050  0.41440  Biso   1.000  H
  Sm10     1.0000 0.07224  0.56382  0.46942  Biso   1.000  Sm
  O73      1.0000 0.99478  0.49258  0.38353  Biso   1.000  O
  N10      1.0000 0.06255  0.56195  0.22830  Biso   1.000  N
  C109     1.0000 0.00672  0.44401  0.32230  Biso   1.000  C
  O74      1.0000 0.23434  0.47337  0.96182  Biso   1.000  O
  O75      1.0000 0.98548  0.39251  0.35364  Biso   1.000  O
  C110     1.0000 0.04825  0.44776  0.21660  Biso   1.000  C
  O76      1.0000 0.19147  0.38948  0.88812  Biso   1.000  O
  C111     1.0000 0.06074  0.39189  0.15960  Biso   1.000  C
  H73      1.0000 0.03830  0.35590  0.18200  Biso   1.000  H
  C112     1.0000 0.10457  0.38739  0.07190  Biso   1.000  C
  H74      1.0000 0.11110  0.34940  0.03140  Biso   1.000  H
  O77      1.0000 0.16895  0.57194  0.35183  Biso   1.000  O
  C113     1.0000 0.13888  0.43939  0.04410  Biso   1.000  C
  O78      1.0000 0.21276  0.63062  0.21076  Biso   1.000  O
  C114     1.0000 0.12637  0.49662  0.09690  Biso   1.000  C
  H75      1.0000 0.15040  0.53190  0.07630  Biso   1.000  H
  O79      1.0000 0.99127  0.62504  0.38732  Biso   1.000  O
  C115     1.0000 0.07922  0.50225  0.17890  Biso   1.000  C
  O80      1.0000 0.91537  0.64085  0.25880  Biso   1.000  O
  C116     1.0000 0.19049  0.43207  0.95750  Biso   1.000  C
  C117     1.0000 0.10539  0.61245  0.19910  Biso   1.000  C
  H76      1.0000 0.11110  0.61400  0.11260  Biso   1.000  H
  H77      1.0000 0.08700  0.65230  0.22440  Biso   1.000  H
  C118     1.0000 0.16782  0.60448  0.25760  Biso   1.000  C
  C119     1.0000 0.99838  0.57997  0.19450  Biso   1.000  C
  H78      1.0000 0.99990  0.60390  0.12010  Biso   1.000  H
  H79      1.0000 0.97380  0.54200  0.17980  Biso   1.000  H
  C120     1.0000 0.96604  0.61860  0.28820  Biso   1.000  C
  H80      1.0000 0.26220  0.46050  0.91440  Biso   1.000  H
  Sm11     1.0000 0.92776  0.93618  0.46942  Biso   1.000  Sm
  O81      1.0000 0.00522  0.00742  0.38353  Biso   1.000  O
  N11      1.0000 0.93745  0.93805  0.22830  Biso   1.000  N
  C121     1.0000 0.99328  0.05599  0.32230  Biso   1.000  C
  O82      1.0000 0.76566  0.02663  0.96182  Biso   1.000  O
  O83      1.0000 0.01452  0.10749  0.35364  Biso   1.000  O
  C122     1.0000 0.95175  0.05224  0.21660  Biso   1.000  C
  O84      1.0000 0.80853  0.11052  0.88812  Biso   1.000  O
  C123     1.0000 0.93926  0.10811  0.15960  Biso   1.000  C
  H81      1.0000 0.96170  0.14410  0.18200  Biso   1.000  H
  C124     1.0000 0.89543  0.11261  0.07190  Biso   1.000  C
  H82      1.0000 0.88890  0.15060  0.03140  Biso   1.000  H
  O85      1.0000 0.83105  0.92806  0.35183  Biso   1.000  O
  C125     1.0000 0.86112  0.06061  0.04410  Biso   1.000  C
  O86      1.0000 0.78724  0.86938  0.21076  Biso   1.000  O
  C126     1.0000 0.87363  0.00338  0.09690  Biso   1.000  C
  H83      1.0000 0.84960  0.96810  0.07630  Biso   1.000  H
  O87      1.0000 0.00873  0.87496  0.38732  Biso   1.000  O
  C127     1.0000 0.92078  0.99775  0.17890  Biso   1.000  C
  O88      1.0000 0.08463  0.85915  0.25880  Biso   1.000  O
  C128     1.0000 0.80951  0.06793  0.95750  Biso   1.000  C
  C129     1.0000 0.89461  0.88755  0.19910  Biso   1.000  C
  H84      1.0000 0.88890  0.88600  0.11260  Biso   1.000  H
  H85      1.0000 0.91300  0.84770  0.22440  Biso   1.000  H
  C130     1.0000 0.83218  0.89552  0.25760  Biso   1.000  C
  C131     1.0000 0.00162  0.92003  0.19450  Biso   1.000  C
  H86      1.0000 0.00010  0.89610  0.12010  Biso   1.000  H
  H87      1.0000 0.02620  0.95800  0.17980  Biso   1.000  H
  C132     1.0000 0.03396  0.88140  0.28820  Biso   1.000  C
  H88      1.0000 0.73780  0.03950  0.91440  Biso   1.000  H
  Sm12     1.0000 0.42776  0.43618  0.96942  Biso   1.000  Sm
  O89      1.0000 0.50522  0.50742  0.88353  Biso   1.000  O
  N12      1.0000 0.43745  0.43805  0.72830  Biso   1.000  N
  C133     1.0000 0.49328  0.55599  0.82230  Biso   1.000  C
  O90      1.0000 0.26566  0.52663  0.46182  Biso   1.000  O
  O91      1.0000 0.51452  0.60749  0.85364  Biso   1.000  O
  C134     1.0000 0.45175  0.55224  0.71660  Biso   1.000  C
  O92      1.0000 0.30853  0.61052  0.38812  Biso   1.000  O
  C135     1.0000 0.43926  0.60811  0.65960  Biso   1.000  C
  H89      1.0000 0.46170  0.64410  0.68200  Biso   1.000  H
  C136     1.0000 0.39543  0.61261  0.57190  Biso   1.000  C
  H90      1.0000 0.38890  0.65060  0.53140  Biso   1.000  H
  O93      1.0000 0.33105  0.42806  0.85183  Biso   1.000  O
  C137     1.0000 0.36112  0.56061  0.54410  Biso   1.000  C
  O94      1.0000 0.28724  0.36938  0.71076  Biso   1.000  O
  C138     1.0000 0.37363  0.50338  0.59690  Biso   1.000  C
  H91      1.0000 0.34960  0.46810  0.57630  Biso   1.000  H
  O95      1.0000 0.50873  0.37496  0.88732  Biso   1.000  O
  C139     1.0000 0.42078  0.49775  0.67890  Biso   1.000  C
  O96      1.0000 0.58463  0.35915  0.75880  Biso   1.000  O
  C140     1.0000 0.30951  0.56793  0.45750  Biso   1.000  C
  C141     1.0000 0.39461  0.38755  0.69910  Biso   1.000  C
  H92      1.0000 0.38890  0.38600  0.61260  Biso   1.000  H
  H93      1.0000 0.41300  0.34770  0.72440  Biso   1.000  H
  C142     1.0000 0.33218  0.39552  0.75760  Biso   1.000  C
  C143     1.0000 0.50162  0.42003  0.69450  Biso   1.000  C
  H94      1.0000 0.50010  0.39610  0.62010  Biso   1.000  H
  H95      1.0000 0.52620  0.45800  0.67980  Biso   1.000  H
  C144     1.0000 0.53396  0.38140  0.78820  Biso   1.000  C
  H96      1.0000 0.23780  0.53950  0.41440  Biso   1.000  H
  Sm13     1.0000 0.18618  0.32224  0.71942  Biso   1.000  Sm
  O97      1.0000 0.25742  0.24478  0.63353  Biso   1.000  O
  N13      1.0000 0.18805  0.31255  0.47830  Biso   1.000  N
  C145     1.0000 0.30599  0.25672  0.57230  Biso   1.000  C
  O98      1.0000 0.27663  0.48434  0.21182  Biso   1.000  O
  O99      1.0000 0.35749  0.23548  0.60364  Biso   1.000  O
  C146     1.0000 0.30224  0.29825  0.46660  Biso   1.000  C
  O100     1.0000 0.36052  0.44147  0.13812  Biso   1.000  O
  C147     1.0000 0.35811  0.31074  0.40960  Biso   1.000  C
  H97      1.0000 0.39410  0.28830  0.43200  Biso   1.000  H
  C148     1.0000 0.36261  0.35457  0.32190  Biso   1.000  C
  H98      1.0000 0.40060  0.36110  0.28140  Biso   1.000  H
  O101     1.0000 0.17806  0.41895  0.60183  Biso   1.000  O
  C149     1.0000 0.31061  0.38888  0.29410  Biso   1.000  C
  O102     1.0000 0.11938  0.46276  0.46076  Biso   1.000  O
  C150     1.0000 0.25338  0.37637  0.34690  Biso   1.000  C
  H99      1.0000 0.21810  0.40040  0.32630  Biso   1.000  H
  O103     1.0000 0.12496  0.24127  0.63732  Biso   1.000  O
  C151     1.0000 0.24775  0.32922  0.42890  Biso   1.000  C
  O104     1.0000 0.10915  0.16537  0.50880  Biso   1.000  O
  C152     1.0000 0.31793  0.44049  0.20750  Biso   1.000  C
  C153     1.0000 0.13755  0.35539  0.44910  Biso   1.000  C
  H100     1.0000 0.13600  0.36110  0.36260  Biso   1.000  H
  H101     1.0000 0.09770  0.33700  0.47440  Biso   1.000  H
  C154     1.0000 0.14552  0.41782  0.50760  Biso   1.000  C
  C155     1.0000 0.17003  0.24838  0.44450  Biso   1.000  C
  H102     1.0000 0.14610  0.24990  0.37010  Biso   1.000  H
  H103     1.0000 0.20800  0.22380  0.42980  Biso   1.000  H
  C156     1.0000 0.13140  0.21604  0.53820  Biso   1.000  C
  H104     1.0000 0.28950  0.51220  0.16440  Biso   1.000  H
  Sm14     1.0000 0.68618  0.82224  0.21942  Biso   1.000  Sm
  O105     1.0000 0.75742  0.74478  0.13353  Biso   1.000  O
  N14      1.0000 0.68805  0.81255  0.97830  Biso   1.000  N
  C157     1.0000 0.80599  0.75672  0.07230  Biso   1.000  C
  O106     1.0000 0.77663  0.98434  0.71182  Biso   1.000  O
  O107     1.0000 0.85749  0.73548  0.10364  Biso   1.000  O
  C158     1.0000 0.80224  0.79825  0.96660  Biso   1.000  C
  O108     1.0000 0.86052  0.94147  0.63812  Biso   1.000  O
  C159     1.0000 0.85811  0.81074  0.90960  Biso   1.000  C
  H105     1.0000 0.89410  0.78830  0.93200  Biso   1.000  H
  C160     1.0000 0.86261  0.85457  0.82190  Biso   1.000  C
  H106     1.0000 0.90060  0.86110  0.78140  Biso   1.000  H
  O109     1.0000 0.67806  0.91895  0.10183  Biso   1.000  O
  C161     1.0000 0.81061  0.88888  0.79410  Biso   1.000  C
  O110     1.0000 0.61938  0.96276  0.96076  Biso   1.000  O
  C162     1.0000 0.75338  0.87637  0.84690  Biso   1.000  C
  H107     1.0000 0.71810  0.90040  0.82630  Biso   1.000  H
  O111     1.0000 0.62496  0.74127  0.13732  Biso   1.000  O
  C163     1.0000 0.74775  0.82922  0.92890  Biso   1.000  C
  O112     1.0000 0.60915  0.66537  0.00880  Biso   1.000  O
  C164     1.0000 0.81793  0.94049  0.70750  Biso   1.000  C
  C165     1.0000 0.63755  0.85539  0.94910  Biso   1.000  C
  H108     1.0000 0.63600  0.86110  0.86260  Biso   1.000  H
  H109     1.0000 0.59770  0.83700  0.97440  Biso   1.000  H
  C166     1.0000 0.64552  0.91782  0.00760  Biso   1.000  C
  C167     1.0000 0.67003  0.74838  0.94450  Biso   1.000  C
  H110     1.0000 0.64610  0.74990  0.87010  Biso   1.000  H
  H111     1.0000 0.70800  0.72380  0.92980  Biso   1.000  H
  C168     1.0000 0.63140  0.71604  0.03820  Biso   1.000  C
  H112     1.0000 0.78950  0.01220  0.66440  Biso   1.000  H
  Sm15     1.0000 0.31382  0.67776  0.21942  Biso   1.000  Sm
  O113     1.0000 0.24258  0.75522  0.13353  Biso   1.000  O
  N15      1.0000 0.31195  0.68745  0.97830  Biso   1.000  N
  C169     1.0000 0.19401  0.74328  0.07230  Biso   1.000  C
  O114     1.0000 0.22337  0.51566  0.71182  Biso   1.000  O
  O115     1.0000 0.14251  0.76452  0.10364  Biso   1.000  O
  C170     1.0000 0.19776  0.70175  0.96660  Biso   1.000  C
  O116     1.0000 0.13948  0.55853  0.63812  Biso   1.000  O
  C171     1.0000 0.14189  0.68926  0.90960  Biso   1.000  C
  H113     1.0000 0.10590  0.71170  0.93200  Biso   1.000  H
  C172     1.0000 0.13739  0.64543  0.82190  Biso   1.000  C
  H114     1.0000 0.09940  0.63890  0.78140  Biso   1.000  H
  O117     1.0000 0.32194  0.58105  0.10183  Biso   1.000  O
  C173     1.0000 0.18939  0.61112  0.79410  Biso   1.000  C
  O118     1.0000 0.38062  0.53724  0.96076  Biso   1.000  O
  C174     1.0000 0.24662  0.62363  0.84690  Biso   1.000  C
  H115     1.0000 0.28190  0.59960  0.82630  Biso   1.000  H
  O119     1.0000 0.37504  0.75873  0.13732  Biso   1.000  O
  C175     1.0000 0.25225  0.67078  0.92890  Biso   1.000  C
  O120     1.0000 0.39085  0.83463  0.00880  Biso   1.000  O
  C176     1.0000 0.18207  0.55951  0.70750  Biso   1.000  C
  C177     1.0000 0.36245  0.64461  0.94910  Biso   1.000  C
  H116     1.0000 0.36400  0.63890  0.86260  Biso   1.000  H
  H117     1.0000 0.40230  0.66300  0.97440  Biso   1.000  H
  C178     1.0000 0.35448  0.58218  0.00760  Biso   1.000  C
  C179     1.0000 0.32997  0.75162  0.94450  Biso   1.000  C
  H118     1.0000 0.35390  0.75010  0.87010  Biso   1.000  H
  H119     1.0000 0.29200  0.77620  0.92980  Biso   1.000  H
  C180     1.0000 0.36860  0.78396  0.03820  Biso   1.000  C
  H120     1.0000 0.21050  0.48780  0.66440  Biso   1.000  H
  Sm16     1.0000 0.81382  0.17776  0.71942  Biso   1.000  Sm
  O121     1.0000 0.74258  0.25522  0.63353  Biso   1.000  O
  N16      1.0000 0.81195  0.18745  0.47830  Biso   1.000  N
  C181     1.0000 0.69401  0.24328  0.57230  Biso   1.000  C
  O122     1.0000 0.72337  0.01566  0.21182  Biso   1.000  O
  O123     1.0000 0.64251  0.26452  0.60364  Biso   1.000  O
  C182     1.0000 0.69776  0.20175  0.46660  Biso   1.000  C
  O124     1.0000 0.63948  0.05853  0.13812  Biso   1.000  O
  C183     1.0000 0.64189  0.18926  0.40960  Biso   1.000  C
  H121     1.0000 0.60590  0.21170  0.43200  Biso   1.000  H
  C184     1.0000 0.63739  0.14543  0.32190  Biso   1.000  C
  H122     1.0000 0.59940  0.13890  0.28140  Biso   1.000  H
  O125     1.0000 0.82194  0.08105  0.60183  Biso   1.000  O
  C185     1.0000 0.68939  0.11112  0.29410  Biso   1.000  C
  O126     1.0000 0.88062  0.03724  0.46076  Biso   1.000  O
  C186     1.0000 0.74662  0.12363  0.34690  Biso   1.000  C
  H123     1.0000 0.78190  0.09960  0.32630  Biso   1.000  H
  O127     1.0000 0.87504  0.25873  0.63732  Biso   1.000  O
  C187     1.0000 0.75225  0.17078  0.42890  Biso   1.000  C
  O128     1.0000 0.89085  0.33463  0.50880  Biso   1.000  O
  C188     1.0000 0.68207  0.05951  0.20750  Biso   1.000  C
  C189     1.0000 0.86245  0.14461  0.44910  Biso   1.000  C
  H124     1.0000 0.86400  0.13890  0.36260  Biso   1.000  H
  H125     1.0000 0.90230  0.16300  0.47440  Biso   1.000  H
  C190     1.0000 0.85448  0.08218  0.50760  Biso   1.000  C
  C191     1.0000 0.82997  0.25162  0.44450  Biso   1.000  C
  H126     1.0000 0.85390  0.25010  0.37010  Biso   1.000  H
  H127     1.0000 0.79200  0.27620  0.42980  Biso   1.000  H
  C192     1.0000 0.86860  0.28396  0.53820  Biso   1.000  C
  H128     1.0000 0.71050  0.98780  0.16440  Biso   1.000  H
