data_image0
_cell_length_a       21.6024
_cell_length_b       21.6024
_cell_length_c       11.3824
_cell_angle_alpha    90
_cell_angle_beta     90
_cell_angle_gamma    90

_symmetry_space_group_name_H-M    "P 1"
_symmetry_int_tables_number       1

loop_
  _symmetry_equiv_pos_as_xyz
  'x, y, z'

loop_
  _atom_site_label
  _atom_site_occupancy
  _atom_site_fract_x
  _atom_site_fract_y
  _atom_site_fract_z
  _atom_site_thermal_displace_type
  _atom_site_B_iso_or_equiv
  _atom_site_type_symbol
  Eu1      1.0000 0.42799  0.56379  0.53109  Biso   1.000  Eu
  O1       1.0000 0.38052  0.46331  0.53950  Biso   1.000  O
  O2       1.0000 0.32190  0.41881  0.39830  Biso   1.000  O
  N1       1.0000 0.31167  0.31232  0.52140  Biso   1.000  N
  O3       1.0000 0.14213  0.23551  0.39550  Biso   1.000  O
  O4       1.0000 0.37479  0.24124  0.36190  Biso   1.000  O
  O5       1.0000 0.24216  0.24466  0.36590  Biso   1.000  O
  C1       1.0000 0.19734  0.29821  0.53350  Biso   1.000  C
  C2       1.0000 0.24638  0.37627  0.65400  Biso   1.000  C
  H1       1.0000 0.28160  0.40020  0.67510  Biso   1.000  H
  O6       1.0000 0.39116  0.16500  0.48980  Biso   1.000  O
  C3       1.0000 0.25205  0.32890  0.57040  Biso   1.000  C
  C4       1.0000 0.36854  0.21613  0.46150  Biso   1.000  C
  C5       1.0000 0.36260  0.35498  0.55110  Biso   1.000  C
  H2       1.0000 0.40240  0.33660  0.52560  Biso   1.000  H
  H3       1.0000 0.36430  0.36050  0.63740  Biso   1.000  H
  O7       1.0000 0.13906  0.44141  0.86260  Biso   1.000  O
  C6       1.0000 0.18179  0.44016  0.79340  Biso   1.000  C
  C7       1.0000 0.18903  0.38852  0.70660  Biso   1.000  C
  C8       1.0000 0.19337  0.25657  0.42660  Biso   1.000  C
  C9       1.0000 0.14136  0.30983  0.59090  Biso   1.000  C
  H4       1.0000 0.10550  0.28700  0.56930  Biso   1.000  H
  C10      1.0000 0.13720  0.35400  0.67870  Biso   1.000  C
  H5       1.0000 0.09930  0.36040  0.71920  Biso   1.000  H
  C11      1.0000 0.32997  0.24819  0.55520  Biso   1.000  C
  H6       1.0000 0.29220  0.22350  0.57000  Biso   1.000  H
  H7       1.0000 0.35400  0.24980  0.62920  Biso   1.000  H
  O8       1.0000 0.22305  0.48413  0.78860  Biso   1.000  O
  C12      1.0000 0.35450  0.41788  0.49280  Biso   1.000  C
  H8       1.0000 0.21000  0.51920  0.81300  Biso   1.000  H
  Eu2      1.0000 0.92799  0.06379  0.03109  Biso   1.000  Eu
  O9       1.0000 0.88052  0.96331  0.03950  Biso   1.000  O
  O10      1.0000 0.82190  0.91881  0.89830  Biso   1.000  O
  N2       1.0000 0.81167  0.81232  0.02140  Biso   1.000  N
  O11      1.0000 0.64213  0.73551  0.89550  Biso   1.000  O
  O12      1.0000 0.87479  0.74124  0.86190  Biso   1.000  O
  O13      1.0000 0.74216  0.74466  0.86590  Biso   1.000  O
  C13      1.0000 0.69734  0.79821  0.03350  Biso   1.000  C
  C14      1.0000 0.74638  0.87627  0.15400  Biso   1.000  C
  H9       1.0000 0.78160  0.90020  0.17510  Biso   1.000  H
  O14      1.0000 0.89116  0.66500  0.98980  Biso   1.000  O
  C15      1.0000 0.75205  0.82890  0.07040  Biso   1.000  C
  C16      1.0000 0.86854  0.71613  0.96150  Biso   1.000  C
  C17      1.0000 0.86260  0.85498  0.05110  Biso   1.000  C
  H10      1.0000 0.90240  0.83660  0.02560  Biso   1.000  H
  H11      1.0000 0.86430  0.86050  0.13740  Biso   1.000  H
  O15      1.0000 0.63906  0.94141  0.36260  Biso   1.000  O
  C18      1.0000 0.68179  0.94016  0.29340  Biso   1.000  C
  C19      1.0000 0.68903  0.88852  0.20660  Biso   1.000  C
  C20      1.0000 0.69337  0.75657  0.92660  Biso   1.000  C
  C21      1.0000 0.64136  0.80983  0.09090  Biso   1.000  C
  H12      1.0000 0.60550  0.78700  0.06930  Biso   1.000  H
  C22      1.0000 0.63720  0.85400  0.17870  Biso   1.000  C
  H13      1.0000 0.59930  0.86040  0.21920  Biso   1.000  H
  C23      1.0000 0.82997  0.74819  0.05520  Biso   1.000  C
  H14      1.0000 0.79220  0.72350  0.07000  Biso   1.000  H
  H15      1.0000 0.85400  0.74980  0.12920  Biso   1.000  H
  O16      1.0000 0.72305  0.98413  0.28860  Biso   1.000  O
  C24      1.0000 0.85450  0.91788  0.99280  Biso   1.000  C
  H16      1.0000 0.71000  0.01920  0.31300  Biso   1.000  H
  Eu3      1.0000 0.07201  0.43621  0.03109  Biso   1.000  Eu
  O17      1.0000 0.11948  0.53669  0.03950  Biso   1.000  O
  O18      1.0000 0.17810  0.58119  0.89830  Biso   1.000  O
  N3       1.0000 0.18833  0.68768  0.02140  Biso   1.000  N
  O19      1.0000 0.35787  0.76449  0.89550  Biso   1.000  O
  O20      1.0000 0.12521  0.75876  0.86190  Biso   1.000  O
  O21      1.0000 0.25784  0.75534  0.86590  Biso   1.000  O
  C25      1.0000 0.30266  0.70179  0.03350  Biso   1.000  C
  C26      1.0000 0.25362  0.62373  0.15400  Biso   1.000  C
  H17      1.0000 0.21840  0.59980  0.17510  Biso   1.000  H
  O22      1.0000 0.10884  0.83500  0.98980  Biso   1.000  O
  C27      1.0000 0.24795  0.67110  0.07040  Biso   1.000  C
  C28      1.0000 0.13146  0.78387  0.96150  Biso   1.000  C
  C29      1.0000 0.13740  0.64502  0.05110  Biso   1.000  C
  H18      1.0000 0.09760  0.66340  0.02560  Biso   1.000  H
  H19      1.0000 0.13570  0.63950  0.13740  Biso   1.000  H
  O23      1.0000 0.36094  0.55859  0.36260  Biso   1.000  O
  C30      1.0000 0.31821  0.55984  0.29340  Biso   1.000  C
  C31      1.0000 0.31097  0.61148  0.20660  Biso   1.000  C
  C32      1.0000 0.30663  0.74343  0.92660  Biso   1.000  C
  C33      1.0000 0.35864  0.69017  0.09090  Biso   1.000  C
  H20      1.0000 0.39450  0.71300  0.06930  Biso   1.000  H
  C34      1.0000 0.36280  0.64600  0.17870  Biso   1.000  C
  H21      1.0000 0.40070  0.63960  0.21920  Biso   1.000  H
  C35      1.0000 0.17003  0.75181  0.05520  Biso   1.000  C
  H22      1.0000 0.20780  0.77650  0.07000  Biso   1.000  H
  H23      1.0000 0.14600  0.75020  0.12920  Biso   1.000  H
  O24      1.0000 0.27695  0.51587  0.28860  Biso   1.000  O
  C36      1.0000 0.14550  0.58212  0.99280  Biso   1.000  C
  H24      1.0000 0.29000  0.48080  0.31300  Biso   1.000  H
  Eu4      1.0000 0.57201  0.93621  0.53109  Biso   1.000  Eu
  O25      1.0000 0.61948  0.03669  0.53950  Biso   1.000  O
  O26      1.0000 0.67810  0.08119  0.39830  Biso   1.000  O
  N4       1.0000 0.68833  0.18768  0.52140  Biso   1.000  N
  O27      1.0000 0.85787  0.26449  0.39550  Biso   1.000  O
  O28      1.0000 0.62521  0.25876  0.36190  Biso   1.000  O
  O29      1.0000 0.75784  0.25534  0.36590  Biso   1.000  O
  C37      1.0000 0.80266  0.20179  0.53350  Biso   1.000  C
  C38      1.0000 0.75362  0.12373  0.65400  Biso   1.000  C
  H25      1.0000 0.71840  0.09980  0.67510  Biso   1.000  H
  O30      1.0000 0.60884  0.33500  0.48980  Biso   1.000  O
  C39      1.0000 0.74795  0.17110  0.57040  Biso   1.000  C
  C40      1.0000 0.63146  0.28387  0.46150  Biso   1.000  C
  C41      1.0000 0.63740  0.14502  0.55110  Biso   1.000  C
  H26      1.0000 0.59760  0.16340  0.52560  Biso   1.000  H
  H27      1.0000 0.63570  0.13950  0.63740  Biso   1.000  H
  O31      1.0000 0.86094  0.05859  0.86260  Biso   1.000  O
  C42      1.0000 0.81821  0.05984  0.79340  Biso   1.000  C
  C43      1.0000 0.81097  0.11148  0.70660  Biso   1.000  C
  C44      1.0000 0.80663  0.24343  0.42660  Biso   1.000  C
  C45      1.0000 0.85864  0.19017  0.59090  Biso   1.000  C
  H28      1.0000 0.89450  0.21300  0.56930  Biso   1.000  H
  C46      1.0000 0.86280  0.14600  0.67870  Biso   1.000  C
  H29      1.0000 0.90070  0.13960  0.71920  Biso   1.000  H
  C47      1.0000 0.67003  0.25181  0.55520  Biso   1.000  C
  H30      1.0000 0.70780  0.27650  0.57000  Biso   1.000  H
  H31      1.0000 0.64600  0.25020  0.62920  Biso   1.000  H
  O32      1.0000 0.77695  0.01587  0.78860  Biso   1.000  O
  C48      1.0000 0.64550  0.08212  0.49280  Biso   1.000  C
  H32      1.0000 0.79000  0.98080  0.81300  Biso   1.000  H
  Eu5      1.0000 0.18621  0.67799  0.78109  Biso   1.000  Eu
  O33      1.0000 0.28669  0.63052  0.78950  Biso   1.000  O
  O34      1.0000 0.33119  0.57190  0.64830  Biso   1.000  O
  N5       1.0000 0.43768  0.56167  0.77140  Biso   1.000  N
  O35      1.0000 0.51449  0.39213  0.64550  Biso   1.000  O
  O36      1.0000 0.50876  0.62479  0.61190  Biso   1.000  O
  O37      1.0000 0.50534  0.49216  0.61590  Biso   1.000  O
  C49      1.0000 0.45179  0.44734  0.78350  Biso   1.000  C
  C50      1.0000 0.37373  0.49638  0.90400  Biso   1.000  C
  H33      1.0000 0.34980  0.53160  0.92510  Biso   1.000  H
  O38      1.0000 0.58500  0.64116  0.73980  Biso   1.000  O
  C51      1.0000 0.42110  0.50205  0.82040  Biso   1.000  C
  C52      1.0000 0.53387  0.61854  0.71150  Biso   1.000  C
  C53      1.0000 0.39502  0.61260  0.80110  Biso   1.000  C
  H34      1.0000 0.41340  0.65240  0.77560  Biso   1.000  H
  H35      1.0000 0.38950  0.61430  0.88740  Biso   1.000  H
  O39      1.0000 0.30859  0.38906  0.11260  Biso   1.000  O
  C54      1.0000 0.30984  0.43179  0.04340  Biso   1.000  C
  C55      1.0000 0.36148  0.43903  0.95660  Biso   1.000  C
  C56      1.0000 0.49343  0.44337  0.67660  Biso   1.000  C
  C57      1.0000 0.44017  0.39136  0.84090  Biso   1.000  C
  H36      1.0000 0.46300  0.35550  0.81930  Biso   1.000  H
  C58      1.0000 0.39600  0.38720  0.92870  Biso   1.000  C
  H37      1.0000 0.38960  0.34930  0.96920  Biso   1.000  H
  C59      1.0000 0.50181  0.57997  0.80520  Biso   1.000  C
  H38      1.0000 0.52650  0.54220  0.82000  Biso   1.000  H
  H39      1.0000 0.50020  0.60400  0.87920  Biso   1.000  H
  O40      1.0000 0.26587  0.47305  0.03860  Biso   1.000  O
  C60      1.0000 0.33212  0.60450  0.74280  Biso   1.000  C
  H40      1.0000 0.23080  0.46000  0.06300  Biso   1.000  H
  Eu6      1.0000 0.68621  0.17799  0.28109  Biso   1.000  Eu
  O41      1.0000 0.78669  0.13052  0.28950  Biso   1.000  O
  O42      1.0000 0.83119  0.07190  0.14830  Biso   1.000  O
  N6       1.0000 0.93768  0.06167  0.27140  Biso   1.000  N
  O43      1.0000 0.01449  0.89213  0.14550  Biso   1.000  O
  O44      1.0000 0.00876  0.12479  0.11190  Biso   1.000  O
  O45      1.0000 0.00534  0.99216  0.11590  Biso   1.000  O
  C61      1.0000 0.95179  0.94734  0.28350  Biso   1.000  C
  C62      1.0000 0.87373  0.99638  0.40400  Biso   1.000  C
  H41      1.0000 0.84980  0.03160  0.42510  Biso   1.000  H
  O46      1.0000 0.08500  0.14116  0.23980  Biso   1.000  O
  C63      1.0000 0.92110  0.00205  0.32040  Biso   1.000  C
  C64      1.0000 0.03387  0.11854  0.21150  Biso   1.000  C
  C65      1.0000 0.89502  0.11260  0.30110  Biso   1.000  C
  H42      1.0000 0.91340  0.15240  0.27560  Biso   1.000  H
  H43      1.0000 0.88950  0.11430  0.38740  Biso   1.000  H
  O47      1.0000 0.80859  0.88906  0.61260  Biso   1.000  O
  C66      1.0000 0.80984  0.93179  0.54340  Biso   1.000  C
  C67      1.0000 0.86148  0.93903  0.45660  Biso   1.000  C
  C68      1.0000 0.99343  0.94337  0.17660  Biso   1.000  C
  C69      1.0000 0.94017  0.89136  0.34090  Biso   1.000  C
  H44      1.0000 0.96300  0.85550  0.31930  Biso   1.000  H
  C70      1.0000 0.89600  0.88720  0.42870  Biso   1.000  C
  H45      1.0000 0.88960  0.84930  0.46920  Biso   1.000  H
  C71      1.0000 0.00181  0.07997  0.30520  Biso   1.000  C
  H46      1.0000 0.02650  0.04220  0.32000  Biso   1.000  H
  H47      1.0000 0.00020  0.10400  0.37920  Biso   1.000  H
  O48      1.0000 0.76587  0.97305  0.53860  Biso   1.000  O
  C72      1.0000 0.83212  0.10450  0.24280  Biso   1.000  C
  H48      1.0000 0.73080  0.96000  0.56300  Biso   1.000  H
  Eu7      1.0000 0.31379  0.32201  0.28109  Biso   1.000  Eu
  O49      1.0000 0.21331  0.36948  0.28950  Biso   1.000  O
  O50      1.0000 0.16881  0.42810  0.14830  Biso   1.000  O
  N7       1.0000 0.06232  0.43833  0.27140  Biso   1.000  N
  O51      1.0000 0.98551  0.60787  0.14550  Biso   1.000  O
  O52      1.0000 0.99124  0.37521  0.11190  Biso   1.000  O
  O53      1.0000 0.99466  0.50784  0.11590  Biso   1.000  O
  C73      1.0000 0.04821  0.55266  0.28350  Biso   1.000  C
  C74      1.0000 0.12627  0.50362  0.40400  Biso   1.000  C
  H49      1.0000 0.15020  0.46840  0.42510  Biso   1.000  H
  O54      1.0000 0.91500  0.35884  0.23980  Biso   1.000  O
  C75      1.0000 0.07890  0.49795  0.32040  Biso   1.000  C
  C76      1.0000 0.96613  0.38146  0.21150  Biso   1.000  C
  C77      1.0000 0.10498  0.38740  0.30110  Biso   1.000  C
  H50      1.0000 0.08660  0.34760  0.27560  Biso   1.000  H
  H51      1.0000 0.11050  0.38570  0.38740  Biso   1.000  H
  O55      1.0000 0.19141  0.61094  0.61260  Biso   1.000  O
  C78      1.0000 0.19016  0.56821  0.54340  Biso   1.000  C
  C79      1.0000 0.13852  0.56097  0.45660  Biso   1.000  C
  C80      1.0000 0.00657  0.55663  0.17660  Biso   1.000  C
  C81      1.0000 0.05983  0.60864  0.34090  Biso   1.000  C
  H52      1.0000 0.03700  0.64450  0.31930  Biso   1.000  H
  C82      1.0000 0.10400  0.61280  0.42870  Biso   1.000  C
  H53      1.0000 0.11040  0.65070  0.46920  Biso   1.000  H
  C83      1.0000 0.99819  0.42003  0.30520  Biso   1.000  C
  H54      1.0000 0.97350  0.45780  0.32000  Biso   1.000  H
  H55      1.0000 0.99980  0.39600  0.37920  Biso   1.000  H
  O56      1.0000 0.23413  0.52695  0.53860  Biso   1.000  O
  C84      1.0000 0.16788  0.39550  0.24280  Biso   1.000  C
  H56      1.0000 0.26920  0.54000  0.56300  Biso   1.000  H
  Eu8      1.0000 0.81379  0.82201  0.78109  Biso   1.000  Eu
  O57      1.0000 0.71331  0.86948  0.78950  Biso   1.000  O
  O58      1.0000 0.66881  0.92810  0.64830  Biso   1.000  O
  N8       1.0000 0.56232  0.93833  0.77140  Biso   1.000  N
  O59      1.0000 0.48551  0.10787  0.64550  Biso   1.000  O
  O60      1.0000 0.49124  0.87521  0.61190  Biso   1.000  O
  O61      1.0000 0.49466  0.00784  0.61590  Biso   1.000  O
  C85      1.0000 0.54821  0.05266  0.78350  Biso   1.000  C
  C86      1.0000 0.62627  0.00362  0.90400  Biso   1.000  C
  H57      1.0000 0.65020  0.96840  0.92510  Biso   1.000  H
  O62      1.0000 0.41500  0.85884  0.73980  Biso   1.000  O
  C87      1.0000 0.57890  0.99795  0.82040  Biso   1.000  C
  C88      1.0000 0.46613  0.88146  0.71150  Biso   1.000  C
  C89      1.0000 0.60498  0.88740  0.80110  Biso   1.000  C
  H58      1.0000 0.58660  0.84760  0.77560  Biso   1.000  H
  H59      1.0000 0.61050  0.88570  0.88740  Biso   1.000  H
  O63      1.0000 0.69141  0.11094  0.11260  Biso   1.000  O
  C90      1.0000 0.69016  0.06821  0.04340  Biso   1.000  C
  C91      1.0000 0.63852  0.06097  0.95660  Biso   1.000  C
  C92      1.0000 0.50657  0.05663  0.67660  Biso   1.000  C
  C93      1.0000 0.55983  0.10864  0.84090  Biso   1.000  C
  H60      1.0000 0.53700  0.14450  0.81930  Biso   1.000  H
  C94      1.0000 0.60400  0.11280  0.92870  Biso   1.000  C
  H61      1.0000 0.61040  0.15070  0.96920  Biso   1.000  H
  C95      1.0000 0.49819  0.92003  0.80520  Biso   1.000  C
  H62      1.0000 0.47350  0.95780  0.82000  Biso   1.000  H
  H63      1.0000 0.49980  0.89600  0.87920  Biso   1.000  H
  O64      1.0000 0.73413  0.02695  0.03860  Biso   1.000  O
  C96      1.0000 0.66788  0.89550  0.74280  Biso   1.000  C
  H64      1.0000 0.76920  0.04000  0.06300  Biso   1.000  H
  Eu9      1.0000 0.57201  0.43621  0.46891  Biso   1.000  Eu
  O65      1.0000 0.61948  0.53669  0.46050  Biso   1.000  O
  O66      1.0000 0.67810  0.58119  0.60170  Biso   1.000  O
  N9       1.0000 0.68833  0.68768  0.47860  Biso   1.000  N
  O67      1.0000 0.85787  0.76449  0.60450  Biso   1.000  O
  O68      1.0000 0.62521  0.75876  0.63810  Biso   1.000  O
  O69      1.0000 0.75784  0.75534  0.63410  Biso   1.000  O
  C97      1.0000 0.80266  0.70179  0.46650  Biso   1.000  C
  C98      1.0000 0.75362  0.62373  0.34600  Biso   1.000  C
  H65      1.0000 0.71840  0.59980  0.32490  Biso   1.000  H
  O70      1.0000 0.60884  0.83500  0.51020  Biso   1.000  O
  C99      1.0000 0.74795  0.67110  0.42960  Biso   1.000  C
  C100     1.0000 0.63146  0.78387  0.53850  Biso   1.000  C
  C101     1.0000 0.63740  0.64502  0.44890  Biso   1.000  C
  H66      1.0000 0.59760  0.66340  0.47440  Biso   1.000  H
  H67      1.0000 0.63570  0.63950  0.36260  Biso   1.000  H
  O71      1.0000 0.86094  0.55859  0.13740  Biso   1.000  O
  C102     1.0000 0.81821  0.55984  0.20660  Biso   1.000  C
  C103     1.0000 0.81097  0.61148  0.29340  Biso   1.000  C
  C104     1.0000 0.80663  0.74343  0.57340  Biso   1.000  C
  C105     1.0000 0.85864  0.69017  0.40910  Biso   1.000  C
  H68      1.0000 0.89450  0.71300  0.43070  Biso   1.000  H
  C106     1.0000 0.86280  0.64600  0.32130  Biso   1.000  C
  H69      1.0000 0.90070  0.63960  0.28080  Biso   1.000  H
  C107     1.0000 0.67003  0.75181  0.44480  Biso   1.000  C
  H70      1.0000 0.70780  0.77650  0.43000  Biso   1.000  H
  H71      1.0000 0.64600  0.75020  0.37080  Biso   1.000  H
  O72      1.0000 0.77695  0.51587  0.21140  Biso   1.000  O
  C108     1.0000 0.64550  0.58212  0.50720  Biso   1.000  C
  H72      1.0000 0.79000  0.48080  0.18700  Biso   1.000  H
  Eu10     1.0000 0.07201  0.93621  0.96891  Biso   1.000  Eu
  O73      1.0000 0.11948  0.03669  0.96050  Biso   1.000  O
  O74      1.0000 0.17810  0.08119  0.10170  Biso   1.000  O
  N10      1.0000 0.18833  0.18768  0.97860  Biso   1.000  N
  O75      1.0000 0.35787  0.26449  0.10450  Biso   1.000  O
  O76      1.0000 0.12521  0.25876  0.13810  Biso   1.000  O
  O77      1.0000 0.25784  0.25534  0.13410  Biso   1.000  O
  C109     1.0000 0.30266  0.20179  0.96650  Biso   1.000  C
  C110     1.0000 0.25362  0.12373  0.84600  Biso   1.000  C
  H73      1.0000 0.21840  0.09980  0.82490  Biso   1.000  H
  O78      1.0000 0.10884  0.33500  0.01020  Biso   1.000  O
  C111     1.0000 0.24795  0.17110  0.92960  Biso   1.000  C
  C112     1.0000 0.13146  0.28387  0.03850  Biso   1.000  C
  C113     1.0000 0.13740  0.14502  0.94890  Biso   1.000  C
  H74      1.0000 0.09760  0.16340  0.97440  Biso   1.000  H
  H75      1.0000 0.13570  0.13950  0.86260  Biso   1.000  H
  O79      1.0000 0.36094  0.05859  0.63740  Biso   1.000  O
  C114     1.0000 0.31821  0.05984  0.70660  Biso   1.000  C
  C115     1.0000 0.31097  0.11148  0.79340  Biso   1.000  C
  C116     1.0000 0.30663  0.24343  0.07340  Biso   1.000  C
  C117     1.0000 0.35864  0.19017  0.90910  Biso   1.000  C
  H76      1.0000 0.39450  0.21300  0.93070  Biso   1.000  H
  C118     1.0000 0.36280  0.14600  0.82130  Biso   1.000  C
  H77      1.0000 0.40070  0.13960  0.78080  Biso   1.000  H
  C119     1.0000 0.17003  0.25181  0.94480  Biso   1.000  C
  H78      1.0000 0.20780  0.27650  0.93000  Biso   1.000  H
  H79      1.0000 0.14600  0.25020  0.87080  Biso   1.000  H
  O80      1.0000 0.27695  0.01587  0.71140  Biso   1.000  O
  C120     1.0000 0.14550  0.08212  0.00720  Biso   1.000  C
  H80      1.0000 0.29000  0.98080  0.68700  Biso   1.000  H
  Eu11     1.0000 0.92799  0.56379  0.96891  Biso   1.000  Eu
  O81      1.0000 0.88052  0.46331  0.96050  Biso   1.000  O
  O82      1.0000 0.82190  0.41881  0.10170  Biso   1.000  O
  N11      1.0000 0.81167  0.31232  0.97860  Biso   1.000  N
  O83      1.0000 0.64213  0.23551  0.10450  Biso   1.000  O
  O84      1.0000 0.87479  0.24124  0.13810  Biso   1.000  O
  O85      1.0000 0.74216  0.24466  0.13410  Biso   1.000  O
  C121     1.0000 0.69734  0.29821  0.96650  Biso   1.000  C
  C122     1.0000 0.74638  0.37627  0.84600  Biso   1.000  C
  H81      1.0000 0.78160  0.40020  0.82490  Biso   1.000  H
  O86      1.0000 0.89116  0.16500  0.01020  Biso   1.000  O
  C123     1.0000 0.75205  0.32890  0.92960  Biso   1.000  C
  C124     1.0000 0.86854  0.21613  0.03850  Biso   1.000  C
  C125     1.0000 0.86260  0.35498  0.94890  Biso   1.000  C
  H82      1.0000 0.90240  0.33660  0.97440  Biso   1.000  H
  H83      1.0000 0.86430  0.36050  0.86260  Biso   1.000  H
  O87      1.0000 0.63906  0.44141  0.63740  Biso   1.000  O
  C126     1.0000 0.68179  0.44016  0.70660  Biso   1.000  C
  C127     1.0000 0.68903  0.38852  0.79340  Biso   1.000  C
  C128     1.0000 0.69337  0.25657  0.07340  Biso   1.000  C
  C129     1.0000 0.64136  0.30983  0.90910  Biso   1.000  C
  H84      1.0000 0.60550  0.28700  0.93070  Biso   1.000  H
  C130     1.0000 0.63720  0.35400  0.82130  Biso   1.000  C
  H85      1.0000 0.59930  0.36040  0.78080  Biso   1.000  H
  C131     1.0000 0.82997  0.24819  0.94480  Biso   1.000  C
  H86      1.0000 0.79220  0.22350  0.93000  Biso   1.000  H
  H87      1.0000 0.85400  0.24980  0.87080  Biso   1.000  H
  O88      1.0000 0.72305  0.48413  0.71140  Biso   1.000  O
  C132     1.0000 0.85450  0.41788  0.00720  Biso   1.000  C
  H88      1.0000 0.71000  0.51920  0.68700  Biso   1.000  H
  Eu12     1.0000 0.42799  0.06379  0.46891  Biso   1.000  Eu
  O89      1.0000 0.38052  0.96331  0.46050  Biso   1.000  O
  O90      1.0000 0.32190  0.91881  0.60170  Biso   1.000  O
  N12      1.0000 0.31167  0.81232  0.47860  Biso   1.000  N
  O91      1.0000 0.14213  0.73551  0.60450  Biso   1.000  O
  O92      1.0000 0.37479  0.74124  0.63810  Biso   1.000  O
  O93      1.0000 0.24216  0.74466  0.63410  Biso   1.000  O
  C133     1.0000 0.19734  0.79821  0.46650  Biso   1.000  C
  C134     1.0000 0.24638  0.87627  0.34600  Biso   1.000  C
  H89      1.0000 0.28160  0.90020  0.32490  Biso   1.000  H
  O94      1.0000 0.39116  0.66500  0.51020  Biso   1.000  O
  C135     1.0000 0.25205  0.82890  0.42960  Biso   1.000  C
  C136     1.0000 0.36854  0.71613  0.53850  Biso   1.000  C
  C137     1.0000 0.36260  0.85498  0.44890  Biso   1.000  C
  H90      1.0000 0.40240  0.83660  0.47440  Biso   1.000  H
  H91      1.0000 0.36430  0.86050  0.36260  Biso   1.000  H
  O95      1.0000 0.13906  0.94141  0.13740  Biso   1.000  O
  C138     1.0000 0.18179  0.94016  0.20660  Biso   1.000  C
  C139     1.0000 0.18903  0.88852  0.29340  Biso   1.000  C
  C140     1.0000 0.19337  0.75657  0.57340  Biso   1.000  C
  C141     1.0000 0.14136  0.80983  0.40910  Biso   1.000  C
  H92      1.0000 0.10550  0.78700  0.43070  Biso   1.000  H
  C142     1.0000 0.13720  0.85400  0.32130  Biso   1.000  C
  H93      1.0000 0.09930  0.86040  0.28080  Biso   1.000  H
  C143     1.0000 0.32997  0.74819  0.44480  Biso   1.000  C
  H94      1.0000 0.29220  0.72350  0.43000  Biso   1.000  H
  H95      1.0000 0.35400  0.74980  0.37080  Biso   1.000  H
  O96      1.0000 0.22305  0.98413  0.21140  Biso   1.000  O
  C144     1.0000 0.35450  0.91788  0.50720  Biso   1.000  C
  H96      1.0000 0.21000  0.01920  0.18700  Biso   1.000  H
  Eu13     1.0000 0.81379  0.32201  0.21891  Biso   1.000  Eu
  O97      1.0000 0.71331  0.36948  0.21050  Biso   1.000  O
  O98      1.0000 0.66881  0.42810  0.35170  Biso   1.000  O
  N13      1.0000 0.56232  0.43833  0.22860  Biso   1.000  N
  O99      1.0000 0.48551  0.60787  0.35450  Biso   1.000  O
  O100     1.0000 0.49124  0.37521  0.38810  Biso   1.000  O
  O101     1.0000 0.49466  0.50784  0.38410  Biso   1.000  O
  C145     1.0000 0.54821  0.55266  0.21650  Biso   1.000  C
  C146     1.0000 0.62627  0.50362  0.09600  Biso   1.000  C
  H97      1.0000 0.65020  0.46840  0.07490  Biso   1.000  H
  O102     1.0000 0.41500  0.35884  0.26020  Biso   1.000  O
  C147     1.0000 0.57890  0.49795  0.17960  Biso   1.000  C
  C148     1.0000 0.46613  0.38146  0.28850  Biso   1.000  C
  C149     1.0000 0.60498  0.38740  0.19890  Biso   1.000  C
  H98      1.0000 0.58660  0.34760  0.22440  Biso   1.000  H
  H99      1.0000 0.61050  0.38570  0.11260  Biso   1.000  H
  O103     1.0000 0.69141  0.61094  0.88740  Biso   1.000  O
  C150     1.0000 0.69016  0.56821  0.95660  Biso   1.000  C
  C151     1.0000 0.63852  0.56097  0.04340  Biso   1.000  C
  C152     1.0000 0.50657  0.55663  0.32340  Biso   1.000  C
  C153     1.0000 0.55983  0.60864  0.15910  Biso   1.000  C
  H100     1.0000 0.53700  0.64450  0.18070  Biso   1.000  H
  C154     1.0000 0.60400  0.61280  0.07130  Biso   1.000  C
  H101     1.0000 0.61040  0.65070  0.03080  Biso   1.000  H
  C155     1.0000 0.49819  0.42003  0.19480  Biso   1.000  C
  H102     1.0000 0.47350  0.45780  0.18000  Biso   1.000  H
  H103     1.0000 0.49980  0.39600  0.12080  Biso   1.000  H
  O104     1.0000 0.73413  0.52695  0.96140  Biso   1.000  O
  C156     1.0000 0.66788  0.39550  0.25720  Biso   1.000  C
  H104     1.0000 0.76920  0.54000  0.93700  Biso   1.000  H
  Eu14     1.0000 0.31379  0.82201  0.71891  Biso   1.000  Eu
  O105     1.0000 0.21331  0.86948  0.71050  Biso   1.000  O
  O106     1.0000 0.16881  0.92810  0.85170  Biso   1.000  O
  N14      1.0000 0.06232  0.93833  0.72860  Biso   1.000  N
  O107     1.0000 0.98551  0.10787  0.85450  Biso   1.000  O
  O108     1.0000 0.99124  0.87521  0.88810  Biso   1.000  O
  O109     1.0000 0.99466  0.00784  0.88410  Biso   1.000  O
  C157     1.0000 0.04821  0.05266  0.71650  Biso   1.000  C
  C158     1.0000 0.12627  0.00362  0.59600  Biso   1.000  C
  H105     1.0000 0.15020  0.96840  0.57490  Biso   1.000  H
  O110     1.0000 0.91500  0.85884  0.76020  Biso   1.000  O
  C159     1.0000 0.07890  0.99795  0.67960  Biso   1.000  C
  C160     1.0000 0.96613  0.88146  0.78850  Biso   1.000  C
  C161     1.0000 0.10498  0.88740  0.69890  Biso   1.000  C
  H106     1.0000 0.08660  0.84760  0.72440  Biso   1.000  H
  H107     1.0000 0.11050  0.88570  0.61260  Biso   1.000  H
  O111     1.0000 0.19141  0.11094  0.38740  Biso   1.000  O
  C162     1.0000 0.19016  0.06821  0.45660  Biso   1.000  C
  C163     1.0000 0.13852  0.06097  0.54340  Biso   1.000  C
  C164     1.0000 0.00657  0.05663  0.82340  Biso   1.000  C
  C165     1.0000 0.05983  0.10864  0.65910  Biso   1.000  C
  H108     1.0000 0.03700  0.14450  0.68070  Biso   1.000  H
  C166     1.0000 0.10400  0.11280  0.57130  Biso   1.000  C
  H109     1.0000 0.11040  0.15070  0.53080  Biso   1.000  H
  C167     1.0000 0.99819  0.92003  0.69480  Biso   1.000  C
  H110     1.0000 0.97350  0.95780  0.68000  Biso   1.000  H
  H111     1.0000 0.99980  0.89600  0.62080  Biso   1.000  H
  O112     1.0000 0.23413  0.02695  0.46140  Biso   1.000  O
  C168     1.0000 0.16788  0.89550  0.75720  Biso   1.000  C
  H112     1.0000 0.26920  0.04000  0.43700  Biso   1.000  H
  Eu15     1.0000 0.68621  0.67799  0.71891  Biso   1.000  Eu
  O113     1.0000 0.78669  0.63052  0.71050  Biso   1.000  O
  O114     1.0000 0.83119  0.57190  0.85170  Biso   1.000  O
  N15      1.0000 0.93768  0.56167  0.72860  Biso   1.000  N
  O115     1.0000 0.01449  0.39213  0.85450  Biso   1.000  O
  O116     1.0000 0.00876  0.62479  0.88810  Biso   1.000  O
  O117     1.0000 0.00534  0.49216  0.88410  Biso   1.000  O
  C169     1.0000 0.95179  0.44734  0.71650  Biso   1.000  C
  C170     1.0000 0.87373  0.49638  0.59600  Biso   1.000  C
  H113     1.0000 0.84980  0.53160  0.57490  Biso   1.000  H
  O118     1.0000 0.08500  0.64116  0.76020  Biso   1.000  O
  C171     1.0000 0.92110  0.50205  0.67960  Biso   1.000  C
  C172     1.0000 0.03387  0.61854  0.78850  Biso   1.000  C
  C173     1.0000 0.89502  0.61260  0.69890  Biso   1.000  C
  H114     1.0000 0.91340  0.65240  0.72440  Biso   1.000  H
  H115     1.0000 0.88950  0.61430  0.61260  Biso   1.000  H
  O119     1.0000 0.80859  0.38906  0.38740  Biso   1.000  O
  C174     1.0000 0.80984  0.43179  0.45660  Biso   1.000  C
  C175     1.0000 0.86148  0.43903  0.54340  Biso   1.000  C
  C176     1.0000 0.99343  0.44337  0.82340  Biso   1.000  C
  C177     1.0000 0.94017  0.39136  0.65910  Biso   1.000  C
  H116     1.0000 0.96300  0.35550  0.68070  Biso   1.000  H
  C178     1.0000 0.89600  0.38720  0.57130  Biso   1.000  C
  H117     1.0000 0.88960  0.34930  0.53080  Biso   1.000  H
  C179     1.0000 0.00181  0.57997  0.69480  Biso   1.000  C
  H118     1.0000 0.02650  0.54220  0.68000  Biso   1.000  H
  H119     1.0000 0.00020  0.60400  0.62080  Biso   1.000  H
  O120     1.0000 0.76587  0.47305  0.46140  Biso   1.000  O
  C180     1.0000 0.83212  0.60450  0.75720  Biso   1.000  C
  H120     1.0000 0.73080  0.46000  0.43700  Biso   1.000  H
  Eu16     1.0000 0.18621  0.17799  0.21891  Biso   1.000  Eu
  O121     1.0000 0.28669  0.13052  0.21050  Biso   1.000  O
  O122     1.0000 0.33119  0.07190  0.35170  Biso   1.000  O
  N16      1.0000 0.43768  0.06167  0.22860  Biso   1.000  N
  O123     1.0000 0.51449  0.89213  0.35450  Biso   1.000  O
  O124     1.0000 0.50876  0.12479  0.38810  Biso   1.000  O
  O125     1.0000 0.50534  0.99216  0.38410  Biso   1.000  O
  C181     1.0000 0.45179  0.94734  0.21650  Biso   1.000  C
  C182     1.0000 0.37373  0.99638  0.09600  Biso   1.000  C
  H121     1.0000 0.34980  0.03160  0.07490  Biso   1.000  H
  O126     1.0000 0.58500  0.14116  0.26020  Biso   1.000  O
  C183     1.0000 0.42110  0.00205  0.17960  Biso   1.000  C
  C184     1.0000 0.53387  0.11854  0.28850  Biso   1.000  C
  C185     1.0000 0.39502  0.11260  0.19890  Biso   1.000  C
  H122     1.0000 0.41340  0.15240  0.22440  Biso   1.000  H
  H123     1.0000 0.38950  0.11430  0.11260  Biso   1.000  H
  O127     1.0000 0.30859  0.88906  0.88740  Biso   1.000  O
  C186     1.0000 0.30984  0.93179  0.95660  Biso   1.000  C
  C187     1.0000 0.36148  0.93903  0.04340  Biso   1.000  C
  C188     1.0000 0.49343  0.94337  0.32340  Biso   1.000  C
  C189     1.0000 0.44017  0.89136  0.15910  Biso   1.000  C
  H124     1.0000 0.46300  0.85550  0.18070  Biso   1.000  H
  C190     1.0000 0.39600  0.88720  0.07130  Biso   1.000  C
  H125     1.0000 0.38960  0.84930  0.03080  Biso   1.000  H
  C191     1.0000 0.50181  0.07997  0.19480  Biso   1.000  C
  H126     1.0000 0.52650  0.04220  0.18000  Biso   1.000  H
  H127     1.0000 0.50020  0.10400  0.12080  Biso   1.000  H
  O128     1.0000 0.26587  0.97305  0.96140  Biso   1.000  O
  C192     1.0000 0.33212  0.10450  0.25720  Biso   1.000  C
  H128     1.0000 0.23080  0.96000  0.93700  Biso   1.000  H
