data_WEFXEM_clean
_audit_creation_date              2014-07-02
_audit_creation_method            'Materials Studio'
_symmetry_space_group_name_H-M    'P1'
_symmetry_Int_Tables_number       1
_symmetry_cell_setting            triclinic
loop_
_symmetry_equiv_pos_as_xyz
  x,y,z
_cell_length_a                    7.4530
_cell_length_b                    15.0032
_cell_length_c                    17.6120
_cell_angle_alpha                 90.0000
_cell_angle_beta                  91.2922
_cell_angle_gamma                 90.0000
loop_
_atom_site_label
_atom_site_type_symbol
_atom_site_fract_x
_atom_site_fract_y
_atom_site_fract_z
_atom_site_U_iso_or_equiv
_atom_site_adp_type
_atom_site_occupancy
Ni1    Ni    0.00000   0.00000   0.00000   0.01267  Uiso   1.00
Ni2    Ni    0.00000   0.50000   0.50000   0.01267  Uiso   1.00
H1     H     0.10563   0.86654   0.28209   0.01267  Uiso   1.00
H2     H     0.47719   0.66993   0.29964   0.01267  Uiso   1.00
H3     H     0.63383   0.73294   0.19925   0.01267  Uiso   1.00
H4     H     0.41175   0.84021   0.02306   0.01267  Uiso   1.00
H5     H     0.63892   0.92260   0.95029   0.01267  Uiso   1.00
H6     H     0.77563   0.93946   0.17120   0.01267  Uiso   1.00
H7     H     0.25616   0.59087   0.36233   0.01267  Uiso   1.00
H8     H     0.91987   0.71962   0.49879   0.01267  Uiso   1.00
H9     H     0.03538   0.82842   0.40609   0.01267  Uiso   1.00
H10    H     0.89437   0.36654   0.21791   0.01267  Uiso   1.00
H11    H     0.52281   0.16993   0.20036   0.01267  Uiso   1.00
H12    H     0.36617   0.23294   0.30075   0.01267  Uiso   1.00
H13    H     0.58825   0.34021   0.47694   0.01267  Uiso   1.00
H14    H     0.36108   0.42260   0.54971   0.01267  Uiso   1.00
H15    H     0.22437   0.43946   0.32880   0.01267  Uiso   1.00
H16    H     0.74384   0.09087   0.13767   0.01267  Uiso   1.00
H17    H     0.08013   0.21962   0.00121   0.01267  Uiso   1.00
H18    H     0.96462   0.32842   0.09391   0.01267  Uiso   1.00
H19    H     0.89437   0.13346   0.71791   0.01267  Uiso   1.00
H20    H     0.52281   0.33007   0.70036   0.01267  Uiso   1.00
H21    H     0.36617   0.26706   0.80075   0.01267  Uiso   1.00
H22    H     0.58825   0.15979   0.97694   0.01267  Uiso   1.00
H23    H     0.36108   0.07740   0.04971   0.01267  Uiso   1.00
H24    H     0.22437   0.06054   0.82880   0.01267  Uiso   1.00
H25    H     0.74384   0.40913   0.63767   0.01267  Uiso   1.00
H26    H     0.08013   0.28038   0.50121   0.01267  Uiso   1.00
H27    H     0.96462   0.17158   0.59391   0.01267  Uiso   1.00
H28    H     0.10563   0.63346   0.78209   0.01267  Uiso   1.00
H29    H     0.47719   0.83007   0.79964   0.01267  Uiso   1.00
H30    H     0.63383   0.76706   0.69925   0.01267  Uiso   1.00
H31    H     0.41175   0.65979   0.52306   0.01267  Uiso   1.00
H32    H     0.63892   0.57740   0.45029   0.01267  Uiso   1.00
H33    H     0.77563   0.56054   0.67120   0.01267  Uiso   1.00
H34    H     0.25616   0.90913   0.86233   0.01267  Uiso   1.00
H35    H     0.91987   0.78038   0.99879   0.01267  Uiso   1.00
H36    H     0.03538   0.67158   0.90609   0.01267  Uiso   1.00
C1     C     0.46277   0.83717   0.18104   0.01267  Uiso   1.00
C2     C     0.30589   0.87685   0.20564   0.01267  Uiso   1.00
C3     C     0.21285   0.83942   0.26528   0.01267  Uiso   1.00
C4     C     0.27669   0.76231   0.30030   0.01267  Uiso   1.00
C5     C     0.43357   0.72263   0.27570   0.01267  Uiso   1.00
C6     C     0.52661   0.76006   0.21606   0.01267  Uiso   1.00
C7     C     0.55983   0.87622   0.11883   0.01267  Uiso   1.00
C8     C     0.51344   0.87049   0.04386   0.01267  Uiso   1.00
C9     C     0.71324   0.92499   0.12521   0.01267  Uiso   1.00
C10    C     0.17963   0.72326   0.36251   0.01267  Uiso   1.00
C11    C     0.18674   0.63652   0.38479   0.01267  Uiso   1.00
C12    C     0.06550   0.76696   0.40882   0.01267  Uiso   1.00
C13    C     0.53723   0.33717   0.31896   0.01267  Uiso   1.00
C14    C     0.69411   0.37685   0.29436   0.01267  Uiso   1.00
C15    C     0.78715   0.33942   0.23472   0.01267  Uiso   1.00
C16    C     0.72331   0.26231   0.19970   0.01267  Uiso   1.00
C17    C     0.56643   0.22263   0.22430   0.01267  Uiso   1.00
C18    C     0.47339   0.26006   0.28394   0.01267  Uiso   1.00
C19    C     0.44017   0.37622   0.38117   0.01267  Uiso   1.00
C20    C     0.48656   0.37049   0.45614   0.01267  Uiso   1.00
C21    C     0.28676   0.42499   0.37479   0.01267  Uiso   1.00
C22    C     0.82037   0.22326   0.13749   0.01267  Uiso   1.00
C23    C     0.81326   0.13652   0.11521   0.01267  Uiso   1.00
C24    C     0.93450   0.26696   0.09118   0.01267  Uiso   1.00
C25    C     0.53723   0.16283   0.81896   0.01267  Uiso   1.00
C26    C     0.69411   0.12315   0.79436   0.01267  Uiso   1.00
C27    C     0.78715   0.16058   0.73472   0.01267  Uiso   1.00
C28    C     0.72331   0.23769   0.69970   0.01267  Uiso   1.00
C29    C     0.56643   0.27737   0.72430   0.01267  Uiso   1.00
C30    C     0.47339   0.23994   0.78394   0.01267  Uiso   1.00
C31    C     0.44017   0.12378   0.88117   0.01267  Uiso   1.00
C32    C     0.48656   0.12951   0.95614   0.01267  Uiso   1.00
C33    C     0.28676   0.07501   0.87479   0.01267  Uiso   1.00
C34    C     0.82037   0.27674   0.63749   0.01267  Uiso   1.00
C35    C     0.81326   0.36348   0.61521   0.01267  Uiso   1.00
C36    C     0.93450   0.23304   0.59118   0.01267  Uiso   1.00
C37    C     0.46277   0.66283   0.68104   0.01267  Uiso   1.00
C38    C     0.30589   0.62315   0.70564   0.01267  Uiso   1.00
C39    C     0.21285   0.66058   0.76528   0.01267  Uiso   1.00
C40    C     0.27669   0.73769   0.80030   0.01267  Uiso   1.00
C41    C     0.43357   0.77737   0.77570   0.01267  Uiso   1.00
C42    C     0.52661   0.73994   0.71606   0.01267  Uiso   1.00
C43    C     0.55983   0.62378   0.61883   0.01267  Uiso   1.00
C44    C     0.51344   0.62951   0.54386   0.01267  Uiso   1.00
C45    C     0.71324   0.57501   0.62521   0.01267  Uiso   1.00
C46    C     0.17963   0.77674   0.86251   0.01267  Uiso   1.00
C47    C     0.18674   0.86348   0.88479   0.01267  Uiso   1.00
C48    C     0.06550   0.73304   0.90882   0.01267  Uiso   1.00
S1     S     0.22461   0.97504   0.16104   0.01267  Uiso   1.00
S2     S     0.77539   0.47504   0.33896   0.01267  Uiso   1.00
S3     S     0.77539   0.02496   0.83896   0.01267  Uiso   1.00
S4     S     0.22461   0.52496   0.66104   0.01267  Uiso   1.00
N1     N     0.63817   0.91573   0.00391   0.01267  Uiso   1.00
N2     N     0.76166   0.94941   0.05418   0.01267  Uiso   1.00
N3     N     0.07700   0.62660   0.44487   0.01267  Uiso   1.00
N4     N     0.00208   0.70721   0.45972   0.01267  Uiso   1.00
N5     N     0.36183   0.41573   0.49609   0.01267  Uiso   1.00
N6     N     0.23834   0.44941   0.44582   0.01267  Uiso   1.00
N7     N     0.92300   0.12660   0.05513   0.01267  Uiso   1.00
N8     N     0.99792   0.20721   0.04028   0.01267  Uiso   1.00
N9     N     0.36183   0.08427   0.99609   0.01267  Uiso   1.00
N10    N     0.23834   0.05059   0.94582   0.01267  Uiso   1.00
N11    N     0.92300   0.37340   0.55513   0.01267  Uiso   1.00
N12    N     0.99792   0.29279   0.54028   0.01267  Uiso   1.00
N13    N     0.63817   0.58427   0.50391   0.01267  Uiso   1.00
N14    N     0.76166   0.55059   0.55418   0.01267  Uiso   1.00
N15    N     0.07700   0.87340   0.94487   0.01267  Uiso   1.00
N16    N     0.00208   0.79279   0.95972   0.01267  Uiso   1.00
O1     O     0.17871   0.95559   0.07816   0.01267  Uiso   1.00
O2     O     0.05743   0.00687   0.20081   0.01267  Uiso   1.00
O3     O     0.36794   0.04701   0.16596   0.01267  Uiso   1.00
O4     O     0.82129   0.45559   0.42184   0.01267  Uiso   1.00
O5     O     0.94257   0.50687   0.29919   0.01267  Uiso   1.00
O6     O     0.63206   0.54701   0.33404   0.01267  Uiso   1.00
O7     O     0.82129   0.04441   0.92184   0.01267  Uiso   1.00
O8     O     0.94257   0.99313   0.79919   0.01267  Uiso   1.00
O9     O     0.63206   0.95299   0.83404   0.01267  Uiso   1.00
O10    O     0.17871   0.54441   0.57816   0.01267  Uiso   1.00
O11    O     0.05743   0.49313   0.70081   0.01267  Uiso   1.00
O12    O     0.36794   0.45299   0.66596   0.01267  Uiso   1.00
