data_WEGDIX_charged
_audit_creation_date              2014-07-02
_audit_creation_method            'Materials Studio'
_symmetry_space_group_name_H-M    'P1'
_symmetry_Int_Tables_number       1
_symmetry_cell_setting            triclinic
loop_
_symmetry_equiv_pos_as_xyz
  x,y,z
_cell_length_a                    7.8398
_cell_length_b                    14.4250
_cell_length_c                    14.4884
_cell_angle_alpha                 90.7600
_cell_angle_beta                  97.9070
_cell_angle_gamma                 105.5060
loop_
_atom_site_label
_atom_site_type_symbol
_atom_site_fract_x
_atom_site_fract_y
_atom_site_fract_z
_atom_site_U_iso_or_equiv
_atom_site_adp_type
_atom_site_occupancy
Cd1    Cd    0.72442   0.96382   0.99341   0.01267  Uiso   1.00
Cd2    Cd    0.55861   0.47297   0.64643   0.01267  Uiso   1.00
Cd3    Cd    0.27558   0.03618   0.00659   0.01267  Uiso   1.00
Cd4    Cd    0.44139   0.52703   0.35357   0.01267  Uiso   1.00
H1     H     0.61920   0.75920   0.85440   0.01267  Uiso   1.00
H2     H     0.01120   0.63120   0.90440   0.01267  Uiso   1.00
H3     H     0.15220   0.74910   0.01960   0.01267  Uiso   1.00
H4     H     0.64330   0.77970   0.14050   0.01267  Uiso   1.00
H5     H     0.43300   0.86660   0.34830   0.01267  Uiso   1.00
H6     H     0.46700   0.01490   0.28340   0.01267  Uiso   1.00
H7     H     0.38080   0.24080   0.14560   0.01267  Uiso   1.00
H8     H     0.98880   0.36880   0.09560   0.01267  Uiso   1.00
H9     H     0.84780   0.25090   0.98040   0.01267  Uiso   1.00
H10    H     0.35670   0.22030   0.85950   0.01267  Uiso   1.00
H11    H     0.56700   0.13340   0.65170   0.01267  Uiso   1.00
H12    H     0.53300   0.98510   0.71660   0.01267  Uiso   1.00
C1     C     0.72810   0.75690   0.88770   0.01267  Uiso   1.00
C2     C     0.79640   0.68310   0.86600   0.01267  Uiso   1.00
C3     C     0.95980   0.68030   0.91680   0.01267  Uiso   1.00
C4     C     0.04370   0.75060   0.98520   0.01267  Uiso   1.00
C5     C     0.96710   0.82410   0.00330   0.01267  Uiso   1.00
C6     C     0.70110   0.60780   0.78920   0.01267  Uiso   1.00
C7     C     0.60450   0.82690   0.16920   0.01267  Uiso   1.00
C8     C     0.53250   0.80570   0.25020   0.01267  Uiso   1.00
C9     C     0.48090   0.87770   0.29300   0.01267  Uiso   1.00
C10    C     0.49990   0.96600   0.25410   0.01267  Uiso   1.00
C11    C     0.56950   0.98090   0.16990   0.01267  Uiso   1.00
C12    C     0.50660   0.70680   0.28730   0.01267  Uiso   1.00
C13    C     0.27190   0.24310   0.11230   0.01267  Uiso   1.00
C14    C     0.20360   0.31690   0.13400   0.01267  Uiso   1.00
C15    C     0.04020   0.31970   0.08320   0.01267  Uiso   1.00
C16    C     0.95630   0.24940   0.01480   0.01267  Uiso   1.00
C17    C     0.03290   0.17590   0.99670   0.01267  Uiso   1.00
C18    C     0.29890   0.39220   0.21080   0.01267  Uiso   1.00
C19    C     0.39550   0.17310   0.83080   0.01267  Uiso   1.00
C20    C     0.46750   0.19430   0.74980   0.01267  Uiso   1.00
C21    C     0.51910   0.12230   0.70700   0.01267  Uiso   1.00
C22    C     0.50010   0.03400   0.74590   0.01267  Uiso   1.00
C23    C     0.43050   0.01910   0.83010   0.01267  Uiso   1.00
C24    C     0.49340   0.29320   0.71270   0.01267  Uiso   1.00
S1     S     0.06364   0.91431   0.09086   0.01267  Uiso   1.00
S2     S     0.59361   0.08717   0.11109   0.01267  Uiso   1.00
S3     S     0.78248   0.56658   0.50273   0.01267  Uiso   1.00
S4     S     0.93636   0.08569   0.90914   0.01267  Uiso   1.00
S5     S     0.40639   0.91283   0.88891   0.01267  Uiso   1.00
S6     S     0.21752   0.43342   0.49727   0.01267  Uiso   1.00
N1     N     0.80900   0.82640   0.95430   0.01267  Uiso   1.00
N2     N     0.62190   0.91110   0.12920   0.01267  Uiso   1.00
N3     N     0.19100   0.17360   0.04570   0.01267  Uiso   1.00
N4     N     0.37810   0.08890   0.87080   0.01267  Uiso   1.00
O1     O     0.77330   0.54470   0.77030   0.01267  Uiso   1.00
O2     O     0.55430   0.61200   0.74730   0.01267  Uiso   1.00
O3     O     0.58140   0.65120   0.25480   0.01267  Uiso   1.00
O4     O     0.41100   0.68450   0.35000   0.01267  Uiso   1.00
O5     O     0.63080   0.59650   0.53090   0.01267  Uiso   1.00
O6     O     0.81320   0.48970   0.56160   0.01267  Uiso   1.00
O7     O     0.73070   0.52880   0.40359   0.01267  Uiso   1.00
O8     O     0.94180   0.64790   0.50830   0.01267  Uiso   1.00
O9     O     0.22670   0.45530   0.22970   0.01267  Uiso   1.00
O10    O     0.44570   0.38800   0.25270   0.01267  Uiso   1.00
O11    O     0.41860   0.34880   0.74520   0.01267  Uiso   1.00
O12    O     0.58900   0.31550   0.65000   0.01267  Uiso   1.00
O13    O     0.36920   0.40350   0.46910   0.01267  Uiso   1.00
O14    O     0.18680   0.51030   0.43840   0.01267  Uiso   1.00
O15    O     0.26930   0.47120   0.59641   0.01267  Uiso   1.00
O16    O     0.05820   0.35210   0.49170   0.01267  Uiso   1.00
H13    H     0.89720   0.75310   0.30810   0.01267  Uiso   1.00
H14    H     0.08010   0.78950   0.37440   0.01267  Uiso   1.00
H15    H     0.07650   0.78500   0.26590   0.01267  Uiso   1.00
H16    H     0.06470   0.63210   0.19160   0.01267  Uiso   1.00
H17    H     0.98840   0.53870   0.24350   0.01267  Uiso   1.00
H18    H     0.86520   0.60480   0.20970   0.01267  Uiso   1.00
H19    H     0.97000   0.62610   0.36180   0.01267  Uiso   1.00
H20    H     0.15180   0.65920   0.34090   0.01267  Uiso   1.00
C25    C     0.02140   0.75430   0.31690   0.01267  Uiso   1.00
C26    C     0.98480   0.60400   0.23450   0.01267  Uiso   1.00
N5     N     0.03720   0.65710   0.32020   0.01267  Uiso   1.00
H21    H     0.70320   0.30460   0.23820   0.01267  Uiso   1.00
H22    H     0.89900   0.36600   0.27450   0.01267  Uiso   1.00
H23    H     0.84080   0.25570   0.29210   0.01267  Uiso   1.00
H24    H     0.67900   0.20620   0.42810   0.01267  Uiso   1.00
H25    H     0.58570   0.27850   0.46770   0.01267  Uiso   1.00
H26    H     0.51900   0.23190   0.36630   0.01267  Uiso   1.00
H27    H     0.69560   0.38450   0.36890   0.01267  Uiso   1.00
H28    H     0.84440   0.35570   0.41970   0.01267  Uiso   1.00
C27    C     0.80220   0.31350   0.28760   0.01267  Uiso   1.00
C28    C     0.62210   0.25640   0.41270   0.01267  Uiso   1.00
N6     N     0.74610   0.33550   0.37670   0.01267  Uiso   1.00
H29    H     0.10280   0.24690   0.69190   0.01267  Uiso   1.00
H30    H     0.91990   0.21050   0.62560   0.01267  Uiso   1.00
H31    H     0.92350   0.21500   0.73410   0.01267  Uiso   1.00
H32    H     0.93530   0.36790   0.80840   0.01267  Uiso   1.00
H33    H     0.01160   0.46130   0.75650   0.01267  Uiso   1.00
H34    H     0.13480   0.39520   0.79030   0.01267  Uiso   1.00
H35    H     0.03000   0.37390   0.63820   0.01267  Uiso   1.00
H36    H     0.84820   0.34080   0.65910   0.01267  Uiso   1.00
C29    C     0.97860   0.24570   0.68310   0.01267  Uiso   1.00
C30    C     0.01520   0.39600   0.76550   0.01267  Uiso   1.00
N7     N     0.96280   0.34290   0.67980   0.01267  Uiso   1.00
H37    H     0.29680   0.69540   0.76180   0.01267  Uiso   1.00
H38    H     0.10100   0.63400   0.72550   0.01267  Uiso   1.00
H39    H     0.15920   0.74430   0.70790   0.01267  Uiso   1.00
H40    H     0.32100   0.79380   0.57190   0.01267  Uiso   1.00
H41    H     0.41430   0.72150   0.53230   0.01267  Uiso   1.00
H42    H     0.48100   0.76810   0.63370   0.01267  Uiso   1.00
H43    H     0.30440   0.61550   0.63110   0.01267  Uiso   1.00
H44    H     0.15560   0.64430   0.58030   0.01267  Uiso   1.00
C31    C     0.19780   0.68650   0.71240   0.01267  Uiso   1.00
C32    C     0.37790   0.74360   0.58730   0.01267  Uiso   1.00
N8     N     0.25390   0.66450   0.62330   0.01267  Uiso   1.00
