data_WEGFUL_clean
_audit_creation_date              2014-07-02
_audit_creation_method            'Materials Studio'
_symmetry_space_group_name_H-M    'P1'
_symmetry_Int_Tables_number       1
_symmetry_cell_setting            triclinic
loop_
_symmetry_equiv_pos_as_xyz
  x,y,z
_cell_length_a                    10.2031
_cell_length_b                    11.4588
_cell_length_c                    17.5346
_cell_angle_alpha                 90.0000
_cell_angle_beta                  90.0000
_cell_angle_gamma                 109.8740
loop_
_atom_site_label
_atom_site_type_symbol
_atom_site_fract_x
_atom_site_fract_y
_atom_site_fract_z
_atom_site_U_iso_or_equiv
_atom_site_adp_type
_atom_site_occupancy
Eu1    Eu    0.49060   0.31895   0.99272   0.01267  Uiso   1.00
Eu2    Eu    0.50940   0.18105   0.49272   0.01267  Uiso   1.00
Eu3    Eu    0.50940   0.68105   0.00728   0.01267  Uiso   1.00
Eu4    Eu    0.49060   0.81895   0.50728   0.01267  Uiso   1.00
H1     H     0.40080   0.36540   0.71490   0.01267  Uiso   1.00
H2     H     0.44840   0.46330   0.59860   0.01267  Uiso   1.00
H3     H     0.64500   0.78340   0.69790   0.01267  Uiso   1.00
H4     H     0.58910   0.69430   0.81660   0.01267  Uiso   1.00
H5     H     0.01840   0.21140   0.00860   0.01267  Uiso   1.00
H6     H     0.78080   0.15360   0.02620   0.01267  Uiso   1.00
H7     H     0.82540   0.47230   0.12550   0.01267  Uiso   1.00
H8     H     0.06320   0.53890   0.10700   0.01267  Uiso   1.00
H9     H     0.59920   0.13460   0.21490   0.01267  Uiso   1.00
H10    H     0.55160   0.03670   0.09860   0.01267  Uiso   1.00
H11    H     0.35500   0.71660   0.19790   0.01267  Uiso   1.00
H12    H     0.41090   0.80570   0.31660   0.01267  Uiso   1.00
H13    H     0.98160   0.28860   0.50860   0.01267  Uiso   1.00
H14    H     0.21920   0.34640   0.52620   0.01267  Uiso   1.00
H15    H     0.17460   0.02770   0.62550   0.01267  Uiso   1.00
H16    H     0.93680   0.96110   0.60700   0.01267  Uiso   1.00
H17    H     0.59920   0.63460   0.28510   0.01267  Uiso   1.00
H18    H     0.55160   0.53670   0.40140   0.01267  Uiso   1.00
H19    H     0.35500   0.21660   0.30210   0.01267  Uiso   1.00
H20    H     0.41090   0.30570   0.18340   0.01267  Uiso   1.00
H21    H     0.98160   0.78860   0.99140   0.01267  Uiso   1.00
H22    H     0.21920   0.84640   0.97380   0.01267  Uiso   1.00
H23    H     0.17460   0.52770   0.87450   0.01267  Uiso   1.00
H24    H     0.93680   0.46110   0.89300   0.01267  Uiso   1.00
H25    H     0.40080   0.86540   0.78510   0.01267  Uiso   1.00
H26    H     0.44840   0.96330   0.90140   0.01267  Uiso   1.00
H27    H     0.64500   0.28340   0.80210   0.01267  Uiso   1.00
H28    H     0.58910   0.19430   0.68340   0.01267  Uiso   1.00
H29    H     0.01840   0.71140   0.49140   0.01267  Uiso   1.00
H30    H     0.78080   0.65360   0.47380   0.01267  Uiso   1.00
H31    H     0.82540   0.97230   0.37450   0.01267  Uiso   1.00
H32    H     0.06320   0.03890   0.39300   0.01267  Uiso   1.00
C1     C     0.46200   0.45750   0.85600   0.01267  Uiso   1.00
C2     C     0.49140   0.52000   0.77890   0.01267  Uiso   1.00
C3     C     0.44910   0.45020   0.71220   0.01267  Uiso   1.00
C4     C     0.47960   0.50860   0.64300   0.01267  Uiso   1.00
C5     C     0.59470   0.69910   0.70190   0.01267  Uiso   1.00
C6     C     0.56280   0.64590   0.77290   0.01267  Uiso   1.00
C7     C     0.22290   0.42660   0.03820   0.01267  Uiso   1.00
C8     C     0.06970   0.38310   0.05450   0.01267  Uiso   1.00
C9     C     0.98110   0.26640   0.03140   0.01267  Uiso   1.00
C10    C     0.83900   0.23160   0.04180   0.01267  Uiso   1.00
C11    C     0.86570   0.42140   0.10040   0.01267  Uiso   1.00
C12    C     0.00800   0.46060   0.09020   0.01267  Uiso   1.00
C13    C     0.53800   0.04250   0.35600   0.01267  Uiso   1.00
C14    C     0.50860   0.98000   0.27890   0.01267  Uiso   1.00
C15    C     0.55090   0.04980   0.21220   0.01267  Uiso   1.00
C16    C     0.52040   0.99140   0.14300   0.01267  Uiso   1.00
C17    C     0.40530   0.80090   0.20190   0.01267  Uiso   1.00
C18    C     0.43720   0.85410   0.27290   0.01267  Uiso   1.00
C19    C     0.77710   0.07340   0.53820   0.01267  Uiso   1.00
C20    C     0.93030   0.11690   0.55450   0.01267  Uiso   1.00
C21    C     0.01890   0.23360   0.53140   0.01267  Uiso   1.00
C22    C     0.16100   0.26840   0.54180   0.01267  Uiso   1.00
C23    C     0.13430   0.07860   0.60040   0.01267  Uiso   1.00
C24    C     0.99200   0.03940   0.59020   0.01267  Uiso   1.00
C25    C     0.53800   0.54250   0.14400   0.01267  Uiso   1.00
C26    C     0.50860   0.48000   0.22110   0.01267  Uiso   1.00
C27    C     0.55090   0.54980   0.28780   0.01267  Uiso   1.00
C28    C     0.52040   0.49140   0.35700   0.01267  Uiso   1.00
C29    C     0.40530   0.30090   0.29810   0.01267  Uiso   1.00
C30    C     0.43720   0.35410   0.22710   0.01267  Uiso   1.00
C31    C     0.77710   0.57340   0.96180   0.01267  Uiso   1.00
C32    C     0.93030   0.61690   0.94550   0.01267  Uiso   1.00
C33    C     0.01890   0.73360   0.96860   0.01267  Uiso   1.00
C34    C     0.16100   0.76840   0.95820   0.01267  Uiso   1.00
C35    C     0.13430   0.57860   0.89960   0.01267  Uiso   1.00
C36    C     0.99200   0.53940   0.90980   0.01267  Uiso   1.00
C37    C     0.46200   0.95750   0.64400   0.01267  Uiso   1.00
C38    C     0.49140   0.02000   0.72110   0.01267  Uiso   1.00
C39    C     0.44910   0.95020   0.78780   0.01267  Uiso   1.00
C40    C     0.47960   0.00860   0.85700   0.01267  Uiso   1.00
C41    C     0.59470   0.19910   0.79810   0.01267  Uiso   1.00
C42    C     0.56280   0.14590   0.72710   0.01267  Uiso   1.00
C43    C     0.22290   0.92660   0.46180   0.01267  Uiso   1.00
C44    C     0.06970   0.88310   0.44550   0.01267  Uiso   1.00
C45    C     0.98110   0.76640   0.46860   0.01267  Uiso   1.00
C46    C     0.83900   0.73160   0.45820   0.01267  Uiso   1.00
C47    C     0.86570   0.92140   0.39960   0.01267  Uiso   1.00
C48    C     0.00800   0.96060   0.40980   0.01267  Uiso   1.00
N1     N     0.26820   0.09090   0.03190   0.01267  Uiso   1.00
N2     N     0.55400   0.63050   0.63810   0.01267  Uiso   1.00
N3     N     0.78530   0.31080   0.07460   0.01267  Uiso   1.00
N4     N     0.73180   0.40910   0.53190   0.01267  Uiso   1.00
N5     N     0.44600   0.86950   0.13810   0.01267  Uiso   1.00
N6     N     0.21470   0.18920   0.57460   0.01267  Uiso   1.00
N7     N     0.73180   0.90910   0.96810   0.01267  Uiso   1.00
N8     N     0.44600   0.36950   0.36190   0.01267  Uiso   1.00
N9     N     0.21470   0.68920   0.92540   0.01267  Uiso   1.00
N10    N     0.26820   0.59090   0.46810   0.01267  Uiso   1.00
N11    N     0.55400   0.13050   0.86190   0.01267  Uiso   1.00
N12    N     0.78530   0.81080   0.42540   0.01267  Uiso   1.00
O1     O     0.35300   0.15530   0.08200   0.01267  Uiso   1.00
O2     O     0.29640   0.11840   0.96310   0.01267  Uiso   1.00
O3     O     0.43920   0.34350   0.85900   0.01267  Uiso   1.00
O4     O     0.47450   0.52270   0.91480   0.01267  Uiso   1.00
O5     O     0.58760   0.68300   0.57070   0.01267  Uiso   1.00
O6     O     0.27140   0.34630   0.01510   0.01267  Uiso   1.00
O7     O     0.28970   0.54090   0.04770   0.01267  Uiso   1.00
O8     O     0.64630   0.27450   0.08210   0.01267  Uiso   1.00
O9     O     0.16820   0.00510   0.04900   0.01267  Uiso   1.00
O10    O     0.64700   0.34470   0.58200   0.01267  Uiso   1.00
O11    O     0.70360   0.38160   0.46310   0.01267  Uiso   1.00
O12    O     0.56080   0.15650   0.35900   0.01267  Uiso   1.00
O13    O     0.52550   0.97730   0.41480   0.01267  Uiso   1.00
O14    O     0.41240   0.81700   0.07070   0.01267  Uiso   1.00
O15    O     0.72860   0.15370   0.51510   0.01267  Uiso   1.00
O16    O     0.71030   0.95910   0.54770   0.01267  Uiso   1.00
O17    O     0.35370   0.22550   0.58210   0.01267  Uiso   1.00
O18    O     0.83180   0.49490   0.54900   0.01267  Uiso   1.00
O19    O     0.64700   0.84470   0.91800   0.01267  Uiso   1.00
O20    O     0.70360   0.88160   0.03690   0.01267  Uiso   1.00
O21    O     0.56080   0.65650   0.14100   0.01267  Uiso   1.00
O22    O     0.52550   0.47730   0.08520   0.01267  Uiso   1.00
O23    O     0.41240   0.31700   0.42930   0.01267  Uiso   1.00
O24    O     0.72860   0.65370   0.98490   0.01267  Uiso   1.00
O25    O     0.71030   0.45910   0.95230   0.01267  Uiso   1.00
O26    O     0.35370   0.72550   0.91790   0.01267  Uiso   1.00
O27    O     0.83180   0.99490   0.95100   0.01267  Uiso   1.00
O28    O     0.35300   0.65530   0.41800   0.01267  Uiso   1.00
O29    O     0.29640   0.61840   0.53690   0.01267  Uiso   1.00
O30    O     0.43920   0.84350   0.64100   0.01267  Uiso   1.00
O31    O     0.47450   0.02270   0.58520   0.01267  Uiso   1.00
O32    O     0.58760   0.18300   0.92930   0.01267  Uiso   1.00
O33    O     0.27140   0.84630   0.48490   0.01267  Uiso   1.00
O34    O     0.28970   0.04090   0.45230   0.01267  Uiso   1.00
O35    O     0.64630   0.77450   0.41790   0.01267  Uiso   1.00
O36    O     0.16820   0.50510   0.45100   0.01267  Uiso   1.00
