data_WEGGAS_clean
_audit_creation_date              2014-07-02
_audit_creation_method            'Materials Studio'
_symmetry_space_group_name_H-M    'P1'
_symmetry_Int_Tables_number       1
_symmetry_cell_setting            triclinic
loop_
_symmetry_equiv_pos_as_xyz
  x,y,z
_cell_length_a                    10.1792
_cell_length_b                    11.4268
_cell_length_c                    17.5193
_cell_angle_alpha                 90.0000
_cell_angle_beta                  90.0000
_cell_angle_gamma                 110.0350
loop_
_atom_site_label
_atom_site_type_symbol
_atom_site_fract_x
_atom_site_fract_y
_atom_site_fract_z
_atom_site_U_iso_or_equiv
_atom_site_adp_type
_atom_site_occupancy
Tb1    Tb    0.01038   0.18171   0.50725   0.01267  Uiso   1.00
Tb2    Tb    0.98962   0.31829   0.00725   0.01267  Uiso   1.00
Tb3    Tb    0.98962   0.81829   0.49275   0.01267  Uiso   1.00
Tb4    Tb    0.01038   0.68171   0.99275   0.01267  Uiso   1.00
H1     H     0.91040   0.30380   0.81610   0.01267  Uiso   1.00
H2     H     0.10100   0.63520   0.71640   0.01267  Uiso   1.00
H3     H     0.85610   0.21520   0.69750   0.01267  Uiso   1.00
H4     H     0.05450   0.53940   0.59900   0.01267  Uiso   1.00
H5     H     0.43420   0.96080   0.39220   0.01267  Uiso   1.00
H6     H     0.47930   0.28760   0.49110   0.01267  Uiso   1.00
H7     H     0.67570   0.02680   0.37450   0.01267  Uiso   1.00
H8     H     0.72000   0.34460   0.47780   0.01267  Uiso   1.00
H9     H     0.08960   0.19620   0.31610   0.01267  Uiso   1.00
H10    H     0.89900   0.86480   0.21640   0.01267  Uiso   1.00
H11    H     0.14390   0.28480   0.19750   0.01267  Uiso   1.00
H12    H     0.94550   0.96060   0.09900   0.01267  Uiso   1.00
H13    H     0.56580   0.53920   0.89220   0.01267  Uiso   1.00
H14    H     0.52070   0.21240   0.99110   0.01267  Uiso   1.00
H15    H     0.32430   0.47320   0.87450   0.01267  Uiso   1.00
H16    H     0.28000   0.15540   0.97780   0.01267  Uiso   1.00
H17    H     0.08960   0.69620   0.18390   0.01267  Uiso   1.00
H18    H     0.89900   0.36480   0.28360   0.01267  Uiso   1.00
H19    H     0.14390   0.78480   0.30250   0.01267  Uiso   1.00
H20    H     0.94550   0.46060   0.40100   0.01267  Uiso   1.00
H21    H     0.56580   0.03920   0.60780   0.01267  Uiso   1.00
H22    H     0.52070   0.71240   0.50890   0.01267  Uiso   1.00
H23    H     0.32430   0.97320   0.62550   0.01267  Uiso   1.00
H24    H     0.28000   0.65540   0.52220   0.01267  Uiso   1.00
H25    H     0.91040   0.80380   0.68390   0.01267  Uiso   1.00
H26    H     0.10100   0.13520   0.78360   0.01267  Uiso   1.00
H27    H     0.85610   0.71520   0.80250   0.01267  Uiso   1.00
H28    H     0.05450   0.03940   0.90100   0.01267  Uiso   1.00
H29    H     0.43420   0.46080   0.10780   0.01267  Uiso   1.00
H30    H     0.47930   0.78760   0.00890   0.01267  Uiso   1.00
H31    H     0.67570   0.52680   0.12550   0.01267  Uiso   1.00
H32    H     0.72000   0.84460   0.02220   0.01267  Uiso   1.00
C1     C     0.03890   0.54180   0.85670   0.01267  Uiso   1.00
C2     C     0.01100   0.47960   0.77930   0.01267  Uiso   1.00
C3     C     0.93800   0.35270   0.77260   0.01267  Uiso   1.00
C4     C     0.05300   0.54990   0.71320   0.01267  Uiso   1.00
C5     C     0.90680   0.29980   0.70180   0.01267  Uiso   1.00
C6     C     0.02330   0.49290   0.64320   0.01267  Uiso   1.00
C7     C     0.27510   0.07210   0.46190   0.01267  Uiso   1.00
C8     C     0.43010   0.11600   0.44540   0.01267  Uiso   1.00
C9     C     0.49030   0.03880   0.40960   0.01267  Uiso   1.00
C10    C     0.51740   0.23240   0.46910   0.01267  Uiso   1.00
C11    C     0.63530   0.07780   0.39950   0.01267  Uiso   1.00
C12    C     0.66160   0.26750   0.46030   0.01267  Uiso   1.00
C13    C     0.96110   0.95820   0.35670   0.01267  Uiso   1.00
C14    C     0.98900   0.02040   0.27930   0.01267  Uiso   1.00
C15    C     0.06200   0.14730   0.27260   0.01267  Uiso   1.00
C16    C     0.94700   0.95010   0.21320   0.01267  Uiso   1.00
C17    C     0.09320   0.20020   0.20180   0.01267  Uiso   1.00
C18    C     0.97670   0.00710   0.14320   0.01267  Uiso   1.00
C19    C     0.72490   0.42790   0.96190   0.01267  Uiso   1.00
C20    C     0.56990   0.38400   0.94540   0.01267  Uiso   1.00
C21    C     0.50970   0.46120   0.90960   0.01267  Uiso   1.00
C22    C     0.48260   0.26760   0.96910   0.01267  Uiso   1.00
C23    C     0.36470   0.42220   0.89950   0.01267  Uiso   1.00
C24    C     0.33840   0.23250   0.96030   0.01267  Uiso   1.00
C25    C     0.96110   0.45820   0.14330   0.01267  Uiso   1.00
C26    C     0.98900   0.52040   0.22070   0.01267  Uiso   1.00
C27    C     0.06200   0.64730   0.22740   0.01267  Uiso   1.00
C28    C     0.94700   0.45010   0.28680   0.01267  Uiso   1.00
C29    C     0.09320   0.70020   0.29820   0.01267  Uiso   1.00
C30    C     0.97670   0.50710   0.35680   0.01267  Uiso   1.00
C31    C     0.72490   0.92790   0.53810   0.01267  Uiso   1.00
C32    C     0.56990   0.88400   0.55460   0.01267  Uiso   1.00
C33    C     0.50970   0.96120   0.59040   0.01267  Uiso   1.00
C34    C     0.48260   0.76760   0.53090   0.01267  Uiso   1.00
C35    C     0.36470   0.92220   0.60050   0.01267  Uiso   1.00
C36    C     0.33840   0.73250   0.53970   0.01267  Uiso   1.00
C37    C     0.03890   0.04180   0.64330   0.01267  Uiso   1.00
C38    C     0.01100   0.97960   0.72070   0.01267  Uiso   1.00
C39    C     0.93800   0.85270   0.72740   0.01267  Uiso   1.00
C40    C     0.05300   0.04990   0.78680   0.01267  Uiso   1.00
C41    C     0.90680   0.79980   0.79820   0.01267  Uiso   1.00
C42    C     0.02330   0.99290   0.85680   0.01267  Uiso   1.00
C43    C     0.27510   0.57210   0.03810   0.01267  Uiso   1.00
C44    C     0.43010   0.61600   0.05460   0.01267  Uiso   1.00
C45    C     0.49030   0.53880   0.09040   0.01267  Uiso   1.00
C46    C     0.51740   0.73240   0.03090   0.01267  Uiso   1.00
C47    C     0.63530   0.57780   0.10050   0.01267  Uiso   1.00
C48    C     0.66160   0.76750   0.03970   0.01267  Uiso   1.00
N1     N     0.94900   0.36960   0.63760   0.01267  Uiso   1.00
N2     N     0.71560   0.18930   0.42620   0.01267  Uiso   1.00
N3     N     0.23190   0.40830   0.46750   0.01267  Uiso   1.00
N4     N     0.05100   0.13040   0.13760   0.01267  Uiso   1.00
N5     N     0.28440   0.31070   0.92620   0.01267  Uiso   1.00
N6     N     0.76810   0.09170   0.96750   0.01267  Uiso   1.00
N7     N     0.05100   0.63040   0.36240   0.01267  Uiso   1.00
N8     N     0.28440   0.81070   0.57380   0.01267  Uiso   1.00
N9     N     0.76810   0.59170   0.53250   0.01267  Uiso   1.00
N10    N     0.94900   0.86960   0.86240   0.01267  Uiso   1.00
N11    N     0.71560   0.68930   0.07380   0.01267  Uiso   1.00
N12    N     0.23190   0.90830   0.03250   0.01267  Uiso   1.00
O1     O     0.91570   0.31860   0.56970   0.01267  Uiso   1.00
O2     O     0.02550   0.47410   0.91520   0.01267  Uiso   1.00
O3     O     0.06200   0.65560   0.86100   0.01267  Uiso   1.00
O4     O     0.22730   0.15330   0.48610   0.01267  Uiso   1.00
O5     O     0.20840   0.95760   0.45200   0.01267  Uiso   1.00
O6     O     0.85450   0.22500   0.41900   0.01267  Uiso   1.00
O7     O     0.20580   0.38020   0.53760   0.01267  Uiso   1.00
O8     O     0.14560   0.34270   0.41820   0.01267  Uiso   1.00
O9     O     0.33340   0.49500   0.45190   0.01267  Uiso   1.00
O10    O     0.08430   0.18140   0.06970   0.01267  Uiso   1.00
O11    O     0.97450   0.02590   0.41520   0.01267  Uiso   1.00
O12    O     0.93800   0.84440   0.36100   0.01267  Uiso   1.00
O13    O     0.77270   0.34670   0.98610   0.01267  Uiso   1.00
O14    O     0.79160   0.54240   0.95200   0.01267  Uiso   1.00
O15    O     0.14550   0.27500   0.91900   0.01267  Uiso   1.00
O16    O     0.79420   0.11980   0.03760   0.01267  Uiso   1.00
O17    O     0.85440   0.15730   0.91820   0.01267  Uiso   1.00
O18    O     0.66660   0.00500   0.95190   0.01267  Uiso   1.00
O19    O     0.08430   0.68140   0.43030   0.01267  Uiso   1.00
O20    O     0.97450   0.52590   0.08480   0.01267  Uiso   1.00
O21    O     0.93800   0.34440   0.13900   0.01267  Uiso   1.00
O22    O     0.77270   0.84670   0.51390   0.01267  Uiso   1.00
O23    O     0.79160   0.04240   0.54800   0.01267  Uiso   1.00
O24    O     0.14550   0.77500   0.58100   0.01267  Uiso   1.00
O25    O     0.79420   0.61980   0.46240   0.01267  Uiso   1.00
O26    O     0.85440   0.65730   0.58180   0.01267  Uiso   1.00
O27    O     0.66660   0.50500   0.54810   0.01267  Uiso   1.00
O28    O     0.91570   0.81860   0.93030   0.01267  Uiso   1.00
O29    O     0.02550   0.97410   0.58480   0.01267  Uiso   1.00
O30    O     0.06200   0.15560   0.63900   0.01267  Uiso   1.00
O31    O     0.22730   0.65330   0.01390   0.01267  Uiso   1.00
O32    O     0.20840   0.45760   0.04800   0.01267  Uiso   1.00
O33    O     0.85450   0.72500   0.08100   0.01267  Uiso   1.00
O34    O     0.20580   0.88020   0.96240   0.01267  Uiso   1.00
O35    O     0.14560   0.84270   0.08180   0.01267  Uiso   1.00
O36    O     0.33340   0.99500   0.04810   0.01267  Uiso   1.00
