data_image0
_cell_length_a       20.2459
_cell_length_b       20.2459
_cell_length_c       23.016
_cell_angle_alpha    90
_cell_angle_beta     90
_cell_angle_gamma    120

_symmetry_space_group_name_H-M    "P 1"
_symmetry_int_tables_number       1

loop_
  _symmetry_equiv_pos_as_xyz
  'x, y, z'

loop_
  _atom_site_label
  _atom_site_occupancy
  _atom_site_fract_x
  _atom_site_fract_y
  _atom_site_fract_z
  _atom_site_thermal_displace_type
  _atom_site_B_iso_or_equiv
  _atom_site_type_symbol
  P1       1.0000 0.11139  0.78807  0.00350  Biso   1.000  P
  P2       1.0000 0.31204  0.88550  0.10997  Biso   1.000  P
  P3       1.0000 0.11953  0.91886  0.15798  Biso   1.000  P
  Al1      1.0000 0.22115  0.95141  0.04924  Biso   1.000  Al
  Al2      1.0000 0.13940  0.77780  0.13402  Biso   1.000  Al
  O1       1.0000 0.13570  0.75350  0.95735  Biso   1.000  O
  O2       1.0000 0.16300  0.87510  0.00589  Biso   1.000  O
  O3       1.0000 0.03050  0.77300  0.99330  Biso   1.000  O
  O4       1.0000 0.11060  0.75440  0.06297  Biso   1.000  O
  O5       1.0000 0.23810  0.82070  0.13580  Biso   1.000  O
  O6       1.0000 0.36150  0.93040  0.16150  Biso   1.000  O
  O7       1.0000 0.35160  0.85600  0.07260  Biso   1.000  O
  O8       1.0000 0.16270  0.96250  0.21130  Biso   1.000  O
  O9       1.0000 0.29380  0.93920  0.07620  Biso   1.000  O
  O10      1.0000 0.10980  0.83770  0.16170  Biso   1.000  O
  O11      1.0000 0.17010  0.96040  0.10510  Biso   1.000  O
  O12      1.0000 0.04410  0.91270  0.15290  Biso   1.000  O
  P4       1.0000 0.77806  0.12140  0.33683  Biso   1.000  P
  P5       1.0000 0.97871  0.21883  0.44330  Biso   1.000  P
  P6       1.0000 0.78620  0.25219  0.49131  Biso   1.000  P
  Al3      1.0000 0.88782  0.28474  0.38257  Biso   1.000  Al
  Al4      1.0000 0.80607  0.11113  0.46735  Biso   1.000  Al
  O13      1.0000 0.80237  0.08683  0.29068  Biso   1.000  O
  O14      1.0000 0.82967  0.20843  0.33922  Biso   1.000  O
  O15      1.0000 0.69717  0.10633  0.32663  Biso   1.000  O
  O16      1.0000 0.77727  0.08773  0.39630  Biso   1.000  O
  O17      1.0000 0.90477  0.15403  0.46913  Biso   1.000  O
  O18      1.0000 0.02817  0.26373  0.49483  Biso   1.000  O
  O19      1.0000 0.01827  0.18933  0.40593  Biso   1.000  O
  O20      1.0000 0.82937  0.29583  0.54463  Biso   1.000  O
  O21      1.0000 0.96047  0.27253  0.40953  Biso   1.000  O
  O22      1.0000 0.77647  0.17103  0.49503  Biso   1.000  O
  O23      1.0000 0.83677  0.29373  0.43843  Biso   1.000  O
  O24      1.0000 0.71077  0.24603  0.48623  Biso   1.000  O
  P7       1.0000 0.44472  0.45474  0.67017  Biso   1.000  P
  P8       1.0000 0.64537  0.55217  0.77664  Biso   1.000  P
  P9       1.0000 0.45286  0.58553  0.82465  Biso   1.000  P
  Al5      1.0000 0.55448  0.61808  0.71591  Biso   1.000  Al
  Al6      1.0000 0.47273  0.44447  0.80069  Biso   1.000  Al
  O25      1.0000 0.46903  0.42017  0.62402  Biso   1.000  O
  O26      1.0000 0.49633  0.54177  0.67256  Biso   1.000  O
  O27      1.0000 0.36383  0.43967  0.65997  Biso   1.000  O
  O28      1.0000 0.44393  0.42107  0.72964  Biso   1.000  O
  O29      1.0000 0.57143  0.48737  0.80247  Biso   1.000  O
  O30      1.0000 0.69483  0.59707  0.82817  Biso   1.000  O
  O31      1.0000 0.68493  0.52267  0.73927  Biso   1.000  O
  O32      1.0000 0.49603  0.62917  0.87797  Biso   1.000  O
  O33      1.0000 0.62713  0.60587  0.74287  Biso   1.000  O
  O34      1.0000 0.44313  0.50437  0.82837  Biso   1.000  O
  O35      1.0000 0.50343  0.62707  0.77177  Biso   1.000  O
  O36      1.0000 0.37743  0.57937  0.81957  Biso   1.000  O
  P10      1.0000 0.21193  0.32332  0.00350  Biso   1.000  P
  P11      1.0000 0.11450  0.42654  0.10997  Biso   1.000  P
  P12      1.0000 0.08114  0.20067  0.15798  Biso   1.000  P
  Al7      1.0000 0.04859  0.26974  0.04924  Biso   1.000  Al
  Al8      1.0000 0.22220  0.36160  0.13402  Biso   1.000  Al
  O37      1.0000 0.24650  0.38220  0.95735  Biso   1.000  O
  O38      1.0000 0.12490  0.28790  0.00589  Biso   1.000  O
  O39      1.0000 0.22700  0.25750  0.99330  Biso   1.000  O
  O40      1.0000 0.24560  0.35620  0.06297  Biso   1.000  O
  O41      1.0000 0.17930  0.41740  0.13580  Biso   1.000  O
  O42      1.0000 0.06960  0.43110  0.16150  Biso   1.000  O
  O43      1.0000 0.14400  0.49560  0.07260  Biso   1.000  O
  O44      1.0000 0.03750  0.20020  0.21130  Biso   1.000  O
  O45      1.0000 0.06080  0.35460  0.07620  Biso   1.000  O
  O46      1.0000 0.16230  0.27210  0.16170  Biso   1.000  O
  O47      1.0000 0.03960  0.20970  0.10510  Biso   1.000  O
  O48      1.0000 0.08730  0.13140  0.15290  Biso   1.000  O
  P13      1.0000 0.87860  0.65665  0.33683  Biso   1.000  P
  P14      1.0000 0.78117  0.75987  0.44330  Biso   1.000  P
  P15      1.0000 0.74781  0.53400  0.49131  Biso   1.000  P
  Al9      1.0000 0.71526  0.60307  0.38257  Biso   1.000  Al
  Al10     1.0000 0.88887  0.69493  0.46735  Biso   1.000  Al
  O49      1.0000 0.91317  0.71553  0.29068  Biso   1.000  O
  O50      1.0000 0.79157  0.62123  0.33922  Biso   1.000  O
  O51      1.0000 0.89367  0.59083  0.32663  Biso   1.000  O
  O52      1.0000 0.91227  0.68953  0.39630  Biso   1.000  O
  O53      1.0000 0.84597  0.75073  0.46913  Biso   1.000  O
  O54      1.0000 0.73627  0.76443  0.49483  Biso   1.000  O
  O55      1.0000 0.81067  0.82893  0.40593  Biso   1.000  O
  O56      1.0000 0.70417  0.53353  0.54463  Biso   1.000  O
  O57      1.0000 0.72747  0.68793  0.40953  Biso   1.000  O
  O58      1.0000 0.82897  0.60543  0.49503  Biso   1.000  O
  O59      1.0000 0.70627  0.54303  0.43843  Biso   1.000  O
  O60      1.0000 0.75397  0.46473  0.48623  Biso   1.000  O
  P16      1.0000 0.54526  0.98999  0.67017  Biso   1.000  P
  P17      1.0000 0.44783  0.09321  0.77664  Biso   1.000  P
  P18      1.0000 0.41447  0.86734  0.82465  Biso   1.000  P
  Al11     1.0000 0.38192  0.93641  0.71591  Biso   1.000  Al
  Al12     1.0000 0.55553  0.02827  0.80069  Biso   1.000  Al
  O61      1.0000 0.57983  0.04887  0.62402  Biso   1.000  O
  O62      1.0000 0.45823  0.95457  0.67256  Biso   1.000  O
  O63      1.0000 0.56033  0.92417  0.65997  Biso   1.000  O
  O64      1.0000 0.57893  0.02287  0.72964  Biso   1.000  O
  O65      1.0000 0.51263  0.08407  0.80247  Biso   1.000  O
  O66      1.0000 0.40293  0.09777  0.82817  Biso   1.000  O
  O67      1.0000 0.47733  0.16227  0.73927  Biso   1.000  O
  O68      1.0000 0.37083  0.86687  0.87797  Biso   1.000  O
  O69      1.0000 0.39413  0.02127  0.74287  Biso   1.000  O
  O70      1.0000 0.49563  0.93877  0.82837  Biso   1.000  O
  O71      1.0000 0.37293  0.87637  0.77177  Biso   1.000  O
  O72      1.0000 0.42063  0.79807  0.81957  Biso   1.000  O
  P19      1.0000 0.67668  0.88861  0.00350  Biso   1.000  P
  P20      1.0000 0.57346  0.68796  0.10997  Biso   1.000  P
  P21      1.0000 0.79933  0.88047  0.15798  Biso   1.000  P
  Al13     1.0000 0.73026  0.77885  0.04924  Biso   1.000  Al
  Al14     1.0000 0.63840  0.86060  0.13402  Biso   1.000  Al
  O73      1.0000 0.61780  0.86430  0.95735  Biso   1.000  O
  O74      1.0000 0.71210  0.83700  0.00589  Biso   1.000  O
  O75      1.0000 0.74250  0.96950  0.99330  Biso   1.000  O
  O76      1.0000 0.64380  0.88940  0.06297  Biso   1.000  O
  O77      1.0000 0.58260  0.76190  0.13580  Biso   1.000  O
  O78      1.0000 0.56890  0.63850  0.16150  Biso   1.000  O
  O79      1.0000 0.50440  0.64840  0.07260  Biso   1.000  O
  O80      1.0000 0.79980  0.83730  0.21130  Biso   1.000  O
  O81      1.0000 0.64540  0.70620  0.07620  Biso   1.000  O
  O82      1.0000 0.72790  0.89020  0.16170  Biso   1.000  O
  O83      1.0000 0.79030  0.82990  0.10510  Biso   1.000  O
  O84      1.0000 0.86860  0.95590  0.15290  Biso   1.000  O
  P22      1.0000 0.34335  0.22194  0.33683  Biso   1.000  P
  P23      1.0000 0.24013  0.02129  0.44330  Biso   1.000  P
  P24      1.0000 0.46600  0.21380  0.49131  Biso   1.000  P
  Al15     1.0000 0.39693  0.11218  0.38257  Biso   1.000  Al
  Al16     1.0000 0.30507  0.19393  0.46735  Biso   1.000  Al
  O85      1.0000 0.28447  0.19763  0.29068  Biso   1.000  O
  O86      1.0000 0.37877  0.17033  0.33922  Biso   1.000  O
  O87      1.0000 0.40917  0.30283  0.32663  Biso   1.000  O
  O88      1.0000 0.31047  0.22273  0.39630  Biso   1.000  O
  O89      1.0000 0.24927  0.09523  0.46913  Biso   1.000  O
  O90      1.0000 0.23557  0.97183  0.49483  Biso   1.000  O
  O91      1.0000 0.17107  0.98173  0.40593  Biso   1.000  O
  O92      1.0000 0.46647  0.17063  0.54463  Biso   1.000  O
  O93      1.0000 0.31207  0.03953  0.40953  Biso   1.000  O
  O94      1.0000 0.39457  0.22353  0.49503  Biso   1.000  O
  O95      1.0000 0.45697  0.16323  0.43843  Biso   1.000  O
  O96      1.0000 0.53527  0.28923  0.48623  Biso   1.000  O
  P25      1.0000 0.01001  0.55528  0.67017  Biso   1.000  P
  P26      1.0000 0.90679  0.35463  0.77664  Biso   1.000  P
  P27      1.0000 0.13266  0.54714  0.82465  Biso   1.000  P
  Al17     1.0000 0.06359  0.44552  0.71591  Biso   1.000  Al
  Al18     1.0000 0.97173  0.52727  0.80069  Biso   1.000  Al
  O97      1.0000 0.95113  0.53097  0.62402  Biso   1.000  O
  O98      1.0000 0.04543  0.50367  0.67256  Biso   1.000  O
  O99      1.0000 0.07583  0.63617  0.65997  Biso   1.000  O
  O100     1.0000 0.97713  0.55607  0.72964  Biso   1.000  O
  O101     1.0000 0.91593  0.42857  0.80247  Biso   1.000  O
  O102     1.0000 0.90223  0.30517  0.82817  Biso   1.000  O
  O103     1.0000 0.83773  0.31507  0.73927  Biso   1.000  O
  O104     1.0000 0.13313  0.50397  0.87797  Biso   1.000  O
  O105     1.0000 0.97873  0.37287  0.74287  Biso   1.000  O
  O106     1.0000 0.06123  0.55687  0.82837  Biso   1.000  O
  O107     1.0000 0.12363  0.49657  0.77177  Biso   1.000  O
  O108     1.0000 0.20193  0.62257  0.81957  Biso   1.000  O
  P28      1.0000 0.88861  0.21193  0.99650  Biso   1.000  P
  P29      1.0000 0.68796  0.11450  0.89003  Biso   1.000  P
  P30      1.0000 0.88047  0.08114  0.84202  Biso   1.000  P
  Al19     1.0000 0.77885  0.04859  0.95076  Biso   1.000  Al
  Al20     1.0000 0.86060  0.22220  0.86598  Biso   1.000  Al
  O109     1.0000 0.86430  0.24650  0.04265  Biso   1.000  O
  O110     1.0000 0.83700  0.12490  0.99411  Biso   1.000  O
  O111     1.0000 0.96950  0.22700  0.00670  Biso   1.000  O
  O112     1.0000 0.88940  0.24560  0.93703  Biso   1.000  O
  O113     1.0000 0.76190  0.17930  0.86420  Biso   1.000  O
  O114     1.0000 0.63850  0.06960  0.83850  Biso   1.000  O
  O115     1.0000 0.64840  0.14400  0.92740  Biso   1.000  O
  O116     1.0000 0.83730  0.03750  0.78870  Biso   1.000  O
  O117     1.0000 0.70620  0.06080  0.92380  Biso   1.000  O
  O118     1.0000 0.89020  0.16230  0.83830  Biso   1.000  O
  O119     1.0000 0.82990  0.03960  0.89490  Biso   1.000  O
  O120     1.0000 0.95590  0.08730  0.84710  Biso   1.000  O
  P31      1.0000 0.55528  0.54526  0.32983  Biso   1.000  P
  P32      1.0000 0.35463  0.44783  0.22336  Biso   1.000  P
  P33      1.0000 0.54714  0.41447  0.17535  Biso   1.000  P
  Al21     1.0000 0.44552  0.38192  0.28409  Biso   1.000  Al
  Al22     1.0000 0.52727  0.55553  0.19931  Biso   1.000  Al
  O121     1.0000 0.53097  0.57983  0.37598  Biso   1.000  O
  O122     1.0000 0.50367  0.45823  0.32744  Biso   1.000  O
  O123     1.0000 0.63617  0.56033  0.34003  Biso   1.000  O
  O124     1.0000 0.55607  0.57893  0.27036  Biso   1.000  O
  O125     1.0000 0.42857  0.51263  0.19753  Biso   1.000  O
  O126     1.0000 0.30517  0.40293  0.17183  Biso   1.000  O
  O127     1.0000 0.31507  0.47733  0.26073  Biso   1.000  O
  O128     1.0000 0.50397  0.37083  0.12203  Biso   1.000  O
  O129     1.0000 0.37287  0.39413  0.25713  Biso   1.000  O
  O130     1.0000 0.55687  0.49563  0.17163  Biso   1.000  O
  O131     1.0000 0.49657  0.37293  0.22823  Biso   1.000  O
  O132     1.0000 0.62257  0.42063  0.18043  Biso   1.000  O
  P34      1.0000 0.22194  0.87860  0.66317  Biso   1.000  P
  P35      1.0000 0.02129  0.78117  0.55670  Biso   1.000  P
  P36      1.0000 0.21380  0.74781  0.50869  Biso   1.000  P
  Al23     1.0000 0.11218  0.71526  0.61743  Biso   1.000  Al
  Al24     1.0000 0.19393  0.88887  0.53265  Biso   1.000  Al
  O133     1.0000 0.19763  0.91317  0.70932  Biso   1.000  O
  O134     1.0000 0.17033  0.79157  0.66078  Biso   1.000  O
  O135     1.0000 0.30283  0.89367  0.67337  Biso   1.000  O
  O136     1.0000 0.22273  0.91227  0.60370  Biso   1.000  O
  O137     1.0000 0.09523  0.84597  0.53087  Biso   1.000  O
  O138     1.0000 0.97183  0.73627  0.50517  Biso   1.000  O
  O139     1.0000 0.98173  0.81067  0.59407  Biso   1.000  O
  O140     1.0000 0.17063  0.70417  0.45537  Biso   1.000  O
  O141     1.0000 0.03953  0.72747  0.59047  Biso   1.000  O
  O142     1.0000 0.22353  0.82897  0.50497  Biso   1.000  O
  O143     1.0000 0.16323  0.70627  0.56157  Biso   1.000  O
  O144     1.0000 0.28923  0.75397  0.51377  Biso   1.000  O
  P37      1.0000 0.78807  0.67668  0.99650  Biso   1.000  P
  P38      1.0000 0.88550  0.57346  0.89003  Biso   1.000  P
  P39      1.0000 0.91886  0.79933  0.84202  Biso   1.000  P
  Al25     1.0000 0.95141  0.73026  0.95076  Biso   1.000  Al
  Al26     1.0000 0.77780  0.63840  0.86598  Biso   1.000  Al
  O145     1.0000 0.75350  0.61780  0.04265  Biso   1.000  O
  O146     1.0000 0.87510  0.71210  0.99411  Biso   1.000  O
  O147     1.0000 0.77300  0.74250  0.00670  Biso   1.000  O
  O148     1.0000 0.75440  0.64380  0.93703  Biso   1.000  O
  O149     1.0000 0.82070  0.58260  0.86420  Biso   1.000  O
  O150     1.0000 0.93040  0.56890  0.83850  Biso   1.000  O
  O151     1.0000 0.85600  0.50440  0.92740  Biso   1.000  O
  O152     1.0000 0.96250  0.79980  0.78870  Biso   1.000  O
  O153     1.0000 0.93920  0.64540  0.92380  Biso   1.000  O
  O154     1.0000 0.83770  0.72790  0.83830  Biso   1.000  O
  O155     1.0000 0.96040  0.79030  0.89490  Biso   1.000  O
  O156     1.0000 0.91270  0.86860  0.84710  Biso   1.000  O
  P40      1.0000 0.45474  0.01001  0.32983  Biso   1.000  P
  P41      1.0000 0.55217  0.90679  0.22336  Biso   1.000  P
  P42      1.0000 0.58553  0.13266  0.17535  Biso   1.000  P
  Al27     1.0000 0.61808  0.06359  0.28409  Biso   1.000  Al
  Al28     1.0000 0.44447  0.97173  0.19931  Biso   1.000  Al
  O157     1.0000 0.42017  0.95113  0.37598  Biso   1.000  O
  O158     1.0000 0.54177  0.04543  0.32744  Biso   1.000  O
  O159     1.0000 0.43967  0.07583  0.34003  Biso   1.000  O
  O160     1.0000 0.42107  0.97713  0.27036  Biso   1.000  O
  O161     1.0000 0.48737  0.91593  0.19753  Biso   1.000  O
  O162     1.0000 0.59707  0.90223  0.17183  Biso   1.000  O
  O163     1.0000 0.52267  0.83773  0.26073  Biso   1.000  O
  O164     1.0000 0.62917  0.13313  0.12203  Biso   1.000  O
  O165     1.0000 0.60587  0.97873  0.25713  Biso   1.000  O
  O166     1.0000 0.50437  0.06123  0.17163  Biso   1.000  O
  O167     1.0000 0.62707  0.12363  0.22823  Biso   1.000  O
  O168     1.0000 0.57937  0.20193  0.18043  Biso   1.000  O
  P43      1.0000 0.12140  0.34335  0.66317  Biso   1.000  P
  P44      1.0000 0.21883  0.24013  0.55670  Biso   1.000  P
  P45      1.0000 0.25219  0.46600  0.50869  Biso   1.000  P
  Al29     1.0000 0.28474  0.39693  0.61743  Biso   1.000  Al
  Al30     1.0000 0.11113  0.30507  0.53265  Biso   1.000  Al
  O169     1.0000 0.08683  0.28447  0.70932  Biso   1.000  O
  O170     1.0000 0.20843  0.37877  0.66078  Biso   1.000  O
  O171     1.0000 0.10633  0.40917  0.67337  Biso   1.000  O
  O172     1.0000 0.08773  0.31047  0.60370  Biso   1.000  O
  O173     1.0000 0.15403  0.24927  0.53087  Biso   1.000  O
  O174     1.0000 0.26373  0.23557  0.50517  Biso   1.000  O
  O175     1.0000 0.18933  0.17107  0.59407  Biso   1.000  O
  O176     1.0000 0.29583  0.46647  0.45537  Biso   1.000  O
  O177     1.0000 0.27253  0.31207  0.59047  Biso   1.000  O
  O178     1.0000 0.17103  0.39457  0.50497  Biso   1.000  O
  O179     1.0000 0.29373  0.45697  0.56157  Biso   1.000  O
  O180     1.0000 0.24603  0.53527  0.51377  Biso   1.000  O
  P46      1.0000 0.32332  0.11139  0.99650  Biso   1.000  P
  P47      1.0000 0.42654  0.31204  0.89003  Biso   1.000  P
  P48      1.0000 0.20067  0.11953  0.84202  Biso   1.000  P
  Al31     1.0000 0.26974  0.22115  0.95076  Biso   1.000  Al
  Al32     1.0000 0.36160  0.13940  0.86598  Biso   1.000  Al
  O181     1.0000 0.38220  0.13570  0.04265  Biso   1.000  O
  O182     1.0000 0.28790  0.16300  0.99411  Biso   1.000  O
  O183     1.0000 0.25750  0.03050  0.00670  Biso   1.000  O
  O184     1.0000 0.35620  0.11060  0.93703  Biso   1.000  O
  O185     1.0000 0.41740  0.23810  0.86420  Biso   1.000  O
  O186     1.0000 0.43110  0.36150  0.83850  Biso   1.000  O
  O187     1.0000 0.49560  0.35160  0.92740  Biso   1.000  O
  O188     1.0000 0.20020  0.16270  0.78870  Biso   1.000  O
  O189     1.0000 0.35460  0.29380  0.92380  Biso   1.000  O
  O190     1.0000 0.27210  0.10980  0.83830  Biso   1.000  O
  O191     1.0000 0.20970  0.17010  0.89490  Biso   1.000  O
  O192     1.0000 0.13140  0.04410  0.84710  Biso   1.000  O
  P49      1.0000 0.98999  0.44472  0.32983  Biso   1.000  P
  P50      1.0000 0.09321  0.64537  0.22336  Biso   1.000  P
  P51      1.0000 0.86734  0.45286  0.17535  Biso   1.000  P
  Al33     1.0000 0.93641  0.55448  0.28409  Biso   1.000  Al
  Al34     1.0000 0.02827  0.47273  0.19931  Biso   1.000  Al
  O193     1.0000 0.04887  0.46903  0.37598  Biso   1.000  O
  O194     1.0000 0.95457  0.49633  0.32744  Biso   1.000  O
  O195     1.0000 0.92417  0.36383  0.34003  Biso   1.000  O
  O196     1.0000 0.02287  0.44393  0.27036  Biso   1.000  O
  O197     1.0000 0.08407  0.57143  0.19753  Biso   1.000  O
  O198     1.0000 0.09777  0.69483  0.17183  Biso   1.000  O
  O199     1.0000 0.16227  0.68493  0.26073  Biso   1.000  O
  O200     1.0000 0.86687  0.49603  0.12203  Biso   1.000  O
  O201     1.0000 0.02127  0.62713  0.25713  Biso   1.000  O
  O202     1.0000 0.93877  0.44313  0.17163  Biso   1.000  O
  O203     1.0000 0.87637  0.50343  0.22823  Biso   1.000  O
  O204     1.0000 0.79807  0.37743  0.18043  Biso   1.000  O
  P52      1.0000 0.65665  0.77806  0.66317  Biso   1.000  P
  P53      1.0000 0.75987  0.97871  0.55670  Biso   1.000  P
  P54      1.0000 0.53400  0.78620  0.50869  Biso   1.000  P
  Al35     1.0000 0.60307  0.88782  0.61743  Biso   1.000  Al
  Al36     1.0000 0.69493  0.80607  0.53265  Biso   1.000  Al
  O205     1.0000 0.71553  0.80237  0.70932  Biso   1.000  O
  O206     1.0000 0.62123  0.82967  0.66078  Biso   1.000  O
  O207     1.0000 0.59083  0.69717  0.67337  Biso   1.000  O
  O208     1.0000 0.68953  0.77727  0.60370  Biso   1.000  O
  O209     1.0000 0.75073  0.90477  0.53087  Biso   1.000  O
  O210     1.0000 0.76443  0.02817  0.50517  Biso   1.000  O
  O211     1.0000 0.82893  0.01827  0.59407  Biso   1.000  O
  O212     1.0000 0.53353  0.82937  0.45537  Biso   1.000  O
  O213     1.0000 0.68793  0.96047  0.59047  Biso   1.000  O
  O214     1.0000 0.60543  0.77647  0.50497  Biso   1.000  O
  O215     1.0000 0.54303  0.83677  0.56157  Biso   1.000  O
  O216     1.0000 0.46473  0.71077  0.51377  Biso   1.000  O
