data_WEHNAA_clean
_audit_creation_date              2015-05-15
_audit_creation_method            'Materials Studio'
_symmetry_space_group_name_H-M    'P1'
_symmetry_Int_Tables_number       1
_symmetry_cell_setting            triclinic
loop_
_symmetry_equiv_pos_as_xyz
  x,y,z
_cell_length_a                    15.3915
_cell_length_b                    15.3915
_cell_length_c                    9.7030
_cell_angle_alpha                 95.2220
_cell_angle_beta                  95.2220
_cell_angle_gamma                 32.5133
loop_
_atom_site_label
_atom_site_type_symbol
_atom_site_fract_x
_atom_site_fract_y
_atom_site_fract_z
_atom_site_U_iso_or_equiv
_atom_site_adp_type
_atom_site_occupancy
P1     P     0.27638   0.42458   0.93890   0.01267  Uiso   1.00
P2     P     0.80074   0.77274   0.75990   0.01267  Uiso   1.00
C3     C     0.44250   0.20970   0.95970   0.01267  Uiso   1.00
C4     C     0.67520   0.93120   0.89230   0.01267  Uiso   1.00
C5     C     0.63486   0.11366   0.82330   0.01267  Uiso   1.00
C6     C     0.75770   0.03830   0.93480   0.01267  Uiso   1.00
C7     C     0.84319   0.04719   0.90970   0.01267  Uiso   1.00
C8     C     0.96659   0.98359   0.00960   0.01267  Uiso   1.00
N9     N     0.55525   0.09625   0.84370   0.01267  Uiso   1.00
O10    O     0.14052   0.49872   0.01690   0.01267  Uiso   1.00
O11    O     0.33266   0.46766   0.00490   0.01267  Uiso   1.00
O12    O     0.23700   0.46700   0.78910   0.01267  Uiso   1.00
O13    O     0.69720   0.83960   0.63240   0.01267  Uiso   1.00
O14    O     0.87236   0.62996   0.81360   0.01267  Uiso   1.00
O15    O     0.92273   0.73573   0.71950   0.01267  Uiso   1.00
H16    H     0.94499   0.30316   0.78067   0.00000  Uiso   1.00
H17    H     0.75151   0.46404   0.67951   0.00000  Uiso   1.00
H18    H     0.09406   0.14978   0.55736   0.00000  Uiso   1.00
H19    H     0.89689   0.30478   0.46193   0.00000  Uiso   1.00
H20    H     0.82037   0.25270   0.60631   0.00000  Uiso   1.00
H21    H     0.02196   0.08771   0.69048   0.00000  Uiso   1.00
H22    H     0.15308   0.92697   0.48781   0.00000  Uiso   1.00
H23    H     0.96490   0.08535   0.38233   0.00000  Uiso   1.00
H24    H     0.10257   0.24290   0.52432   0.00000  Uiso   1.00
H25    H     0.05913   0.39730   0.55844   0.00000  Uiso   1.00
H26    H     0.17253   0.51715   0.55517   0.00000  Uiso   1.00
H27    H     0.18499   0.39272   0.47943   0.00000  Uiso   1.00
P28    P     0.57542   0.72362   0.56110   0.01267  Uiso   1.00
P29    P     0.22726   0.19926   0.74010   0.01267  Uiso   1.00
C30    C     0.79030   0.55750   0.54030   0.01267  Uiso   1.00
C31    C     0.06880   0.32480   0.60770   0.01267  Uiso   1.00
C32    C     0.88634   0.36514   0.67670   0.01267  Uiso   1.00
C33    C     0.96170   0.24230   0.56520   0.01267  Uiso   1.00
C34    C     0.95281   0.15681   0.59030   0.01267  Uiso   1.00
C35    C     0.01641   0.03341   0.49040   0.01267  Uiso   1.00
N36    N     0.90375   0.44475   0.65630   0.01267  Uiso   1.00
O37    O     0.50128   0.85948   0.48310   0.01267  Uiso   1.00
O38    O     0.53234   0.66734   0.49510   0.01267  Uiso   1.00
O39    O     0.53300   0.76300   0.71090   0.01267  Uiso   1.00
O40    O     0.16040   0.30280   0.86760   0.01267  Uiso   1.00
O41    O     0.37004   0.12764   0.68640   0.01267  Uiso   1.00
O42    O     0.26427   0.07727   0.78050   0.01267  Uiso   1.00
H43    H     0.69684   0.05501   0.71933   0.00000  Uiso   1.00
H44    H     0.53596   0.24849   0.82049   0.00000  Uiso   1.00
H45    H     0.85022   0.90594   0.94264   0.00000  Uiso   1.00
H46    H     0.69522   0.10311   0.03807   0.00000  Uiso   1.00
H47    H     0.74730   0.17963   0.89369   0.00000  Uiso   1.00
H48    H     0.91229   0.97804   0.80952   0.00000  Uiso   1.00
H49    H     0.07303   0.84692   0.01219   0.00000  Uiso   1.00
H50    H     0.91465   0.03510   0.11767   0.00000  Uiso   1.00
H51    H     0.75710   0.89743   0.97568   0.00000  Uiso   1.00
H52    H     0.60270   0.94087   0.94156   0.00000  Uiso   1.00
H53    H     0.48285   0.82747   0.94483   0.00000  Uiso   1.00
H54    H     0.60728   0.81501   0.02057   0.00000  Uiso   1.00
P55    P     0.72362   0.57542   0.06110   0.01267  Uiso   1.00
P56    P     0.19926   0.22726   0.24010   0.01267  Uiso   1.00
C57    C     0.55750   0.79030   0.04030   0.01267  Uiso   1.00
C58    C     0.32480   0.06880   0.10770   0.01267  Uiso   1.00
C59    C     0.36514   0.88634   0.17670   0.01267  Uiso   1.00
C60    C     0.24230   0.96170   0.06520   0.01267  Uiso   1.00
C61    C     0.15681   0.95281   0.09030   0.01267  Uiso   1.00
C62    C     0.03341   0.01641   0.99040   0.01267  Uiso   1.00
N63    N     0.44475   0.90375   0.15630   0.01267  Uiso   1.00
O64    O     0.85948   0.50128   0.98310   0.01267  Uiso   1.00
O65    O     0.66734   0.53234   0.99510   0.01267  Uiso   1.00
O66    O     0.76300   0.53300   0.21090   0.01267  Uiso   1.00
O67    O     0.30280   0.16040   0.36760   0.01267  Uiso   1.00
O68    O     0.12764   0.37004   0.18640   0.01267  Uiso   1.00
O69    O     0.07727   0.26427   0.28050   0.01267  Uiso   1.00
H70    H     0.05501   0.69684   0.21933   0.00000  Uiso   1.00
H71    H     0.24849   0.53596   0.32049   0.00000  Uiso   1.00
H72    H     0.90594   0.85022   0.44264   0.00000  Uiso   1.00
H73    H     0.10311   0.69522   0.53807   0.00000  Uiso   1.00
H74    H     0.17963   0.74730   0.39369   0.00000  Uiso   1.00
H75    H     0.97804   0.91229   0.30952   0.00000  Uiso   1.00
H76    H     0.84692   0.07303   0.51219   0.00000  Uiso   1.00
H77    H     0.03510   0.91465   0.61767   0.00000  Uiso   1.00
H78    H     0.89743   0.75710   0.47568   0.00000  Uiso   1.00
H79    H     0.94087   0.60270   0.44156   0.00000  Uiso   1.00
H80    H     0.82747   0.48285   0.44483   0.00000  Uiso   1.00
H81    H     0.81501   0.60728   0.52057   0.00000  Uiso   1.00
P82    P     0.42458   0.27638   0.43890   0.01267  Uiso   1.00
P83    P     0.77274   0.80074   0.25990   0.01267  Uiso   1.00
C84    C     0.20970   0.44250   0.45970   0.01267  Uiso   1.00
C85    C     0.93120   0.67520   0.39230   0.01267  Uiso   1.00
C86    C     0.11366   0.63486   0.32330   0.01267  Uiso   1.00
C87    C     0.03830   0.75770   0.43480   0.01267  Uiso   1.00
C88    C     0.04719   0.84319   0.40970   0.01267  Uiso   1.00
C89    C     0.98359   0.96659   0.50960   0.01267  Uiso   1.00
N90    N     0.09625   0.55525   0.34370   0.01267  Uiso   1.00
O91    O     0.49872   0.14052   0.51690   0.01267  Uiso   1.00
O92    O     0.46766   0.33266   0.50490   0.01267  Uiso   1.00
O93    O     0.46700   0.23700   0.28910   0.01267  Uiso   1.00
O94    O     0.83960   0.69720   0.13240   0.01267  Uiso   1.00
O95    O     0.62996   0.87236   0.31360   0.01267  Uiso   1.00
O96    O     0.73573   0.92273   0.21950   0.01267  Uiso   1.00
H97    H     0.30316   0.94499   0.28067   0.00000  Uiso   1.00
H98    H     0.46404   0.75151   0.17951   0.00000  Uiso   1.00
H99    H     0.14978   0.09406   0.05736   0.00000  Uiso   1.00
H100   H     0.30478   0.89689   0.96193   0.00000  Uiso   1.00
H101   H     0.25270   0.82037   0.10631   0.00000  Uiso   1.00
H102   H     0.08771   0.02196   0.19048   0.00000  Uiso   1.00
H103   H     0.92697   0.15308   0.98781   0.00000  Uiso   1.00
H104   H     0.08535   0.96490   0.88233   0.00000  Uiso   1.00
H105   H     0.24290   0.10257   0.02432   0.00000  Uiso   1.00
H106   H     0.39730   0.05913   0.05844   0.00000  Uiso   1.00
H107   H     0.51715   0.17253   0.05517   0.00000  Uiso   1.00
H108   H     0.39272   0.18499   0.97943   0.00000  Uiso   1.00
Mg109  Mg    0.00000   0.50000   0.00000   0.01267  Uiso   1.00
Mg110  Mg    0.50000  -0.00000   0.50000   0.01267  Uiso   1.00
