data_WEHQAC_charged
_audit_creation_date              2014-07-02
_audit_creation_method            'Materials Studio'
_symmetry_space_group_name_H-M    'P1'
_symmetry_Int_Tables_number       1
_symmetry_cell_setting            triclinic
loop_
_symmetry_equiv_pos_as_xyz
  x,y,z
_cell_length_a                    15.6209
_cell_length_b                    15.6209
_cell_length_c                    19.8944
_cell_angle_alpha                 73.1029
_cell_angle_beta                  73.1033
_cell_angle_gamma                 105.0500
loop_
_atom_site_label
_atom_site_type_symbol
_atom_site_fract_x
_atom_site_fract_y
_atom_site_fract_z
_atom_site_U_iso_or_equiv
_atom_site_adp_type
_atom_site_occupancy
Ag1    Ag    0.42649   0.67649   0.14702   0.01267  Uiso   1.00
Ag2    Ag    0.32352   0.57351   0.35297   0.01267  Uiso   1.00
Ag3    Ag    0.57351   0.32351   0.85298   0.01267  Uiso   1.00
Ag4    Ag    0.67649   0.42649   0.64702   0.01267  Uiso   1.00
H1     H     0.40230   0.53650   0.06980   0.01267  Uiso   1.00
H2     H     0.42420   0.54020   0.94960   0.01267  Uiso   1.00
H3     H     0.29370   0.48530   0.92020   0.01267  Uiso   1.00
H4     H     0.11550   0.42350   0.13300   0.01267  Uiso   1.00
H5     H     0.01120   0.37300   0.87300   0.01267  Uiso   1.00
H6     H     0.86890   0.31550   0.85860   0.01267  Uiso   1.00
H7     H     0.72040   0.28400   0.07100   0.01267  Uiso   1.00
H8     H     0.86260   0.34040   0.08460   0.01267  Uiso   1.00
H9     H     0.52790   0.89370   0.06980   0.01267  Uiso   1.00
H10    H     0.62620   0.01020   0.94960   0.01267  Uiso   1.00
H11    H     0.78610   0.09450   0.92020   0.01267  Uiso   1.00
H12    H     0.75150   0.94350   0.13300   0.01267  Uiso   1.00
H13    H     0.11580   0.25400   0.87300   0.01267  Uiso   1.00
H14    H     0.27250   0.32590   0.85860   0.01267  Uiso   1.00
H15    H     0.20860   0.14500   0.07100   0.01267  Uiso   1.00
H16    H     0.05280   0.07500   0.08460   0.01267  Uiso   1.00
H17    H     0.46350   0.59770   0.43020   0.01267  Uiso   1.00
H18    H     0.45980   0.57580   0.55040   0.01267  Uiso   1.00
H19    H     0.51470   0.70630   0.57980   0.01267  Uiso   1.00
H20    H     0.57650   0.88450   0.36700   0.01267  Uiso   1.00
H21    H     0.62700   0.98880   0.62700   0.01267  Uiso   1.00
H22    H     0.68450   0.13110   0.64140   0.01267  Uiso   1.00
H23    H     0.71600   0.27960   0.42900   0.01267  Uiso   1.00
H24    H     0.65960   0.13740   0.41540   0.01267  Uiso   1.00
H25    H     0.10630   0.47210   0.43020   0.01267  Uiso   1.00
H26    H     0.98980   0.37380   0.55040   0.01267  Uiso   1.00
H27    H     0.90550   0.21390   0.57980   0.01267  Uiso   1.00
H28    H     0.05650   0.24850   0.36700   0.01267  Uiso   1.00
H29    H     0.74600   0.88420   0.62700   0.01267  Uiso   1.00
H30    H     0.67410   0.72750   0.64140   0.01267  Uiso   1.00
H31    H     0.85500   0.79140   0.42900   0.01267  Uiso   1.00
H32    H     0.92500   0.94720   0.41540   0.01267  Uiso   1.00
H33    H     0.59770   0.46350   0.93020   0.01267  Uiso   1.00
H34    H     0.57580   0.45980   0.05040   0.01267  Uiso   1.00
H35    H     0.70630   0.51470   0.07980   0.01267  Uiso   1.00
H36    H     0.88450   0.57650   0.86700   0.01267  Uiso   1.00
H37    H     0.98880   0.62700   0.12700   0.01267  Uiso   1.00
H38    H     0.13110   0.68450   0.14140   0.01267  Uiso   1.00
H39    H     0.27960   0.71600   0.92900   0.01267  Uiso   1.00
H40    H     0.13740   0.65960   0.91540   0.01267  Uiso   1.00
H41    H     0.47210   0.10630   0.93020   0.01267  Uiso   1.00
H42    H     0.37380   0.98980   0.05040   0.01267  Uiso   1.00
H43    H     0.21390   0.90550   0.07980   0.01267  Uiso   1.00
H44    H     0.24850   0.05650   0.86700   0.01267  Uiso   1.00
H45    H     0.88420   0.74600   0.12700   0.01267  Uiso   1.00
H46    H     0.72750   0.67410   0.14140   0.01267  Uiso   1.00
H47    H     0.79140   0.85500   0.92900   0.01267  Uiso   1.00
H48    H     0.94720   0.92500   0.91540   0.01267  Uiso   1.00
H49    H     0.53650   0.40230   0.56980   0.01267  Uiso   1.00
H50    H     0.54020   0.42420   0.44960   0.01267  Uiso   1.00
H51    H     0.48530   0.29370   0.42020   0.01267  Uiso   1.00
H52    H     0.42350   0.11550   0.63300   0.01267  Uiso   1.00
H53    H     0.37300   0.01120   0.37300   0.01267  Uiso   1.00
H54    H     0.31550   0.86890   0.35860   0.01267  Uiso   1.00
H55    H     0.28400   0.72040   0.57100   0.01267  Uiso   1.00
H56    H     0.34040   0.86260   0.58460   0.01267  Uiso   1.00
H57    H     0.89370   0.52790   0.56980   0.01267  Uiso   1.00
H58    H     0.01020   0.62620   0.44960   0.01267  Uiso   1.00
H59    H     0.09450   0.78610   0.42020   0.01267  Uiso   1.00
H60    H     0.94350   0.75150   0.63300   0.01267  Uiso   1.00
H61    H     0.25400   0.11580   0.37300   0.01267  Uiso   1.00
H62    H     0.32590   0.27250   0.35860   0.01267  Uiso   1.00
H63    H     0.14500   0.20860   0.57100   0.01267  Uiso   1.00
H64    H     0.07500   0.05280   0.58460   0.01267  Uiso   1.00
C1     C     0.24118   0.47908   0.18954   0.01267  Uiso   1.00
C2     C     0.25695   0.47971   0.11334   0.01267  Uiso   1.00
C3     C     0.34920   0.51460   0.05840   0.01267  Uiso   1.00
C4     C     0.36201   0.51661   0.98678   0.01267  Uiso   1.00
C5     C     0.28361   0.48401   0.96898   0.01267  Uiso   1.00
C6     C     0.19134   0.44974   0.02272   0.01267  Uiso   1.00
C7     C     0.17766   0.44710   0.09584   0.01267  Uiso   1.00
C8     C     0.10857   0.41917   0.00486   0.01267  Uiso   1.00
C9     C     0.03832   0.39432   0.99296   0.01267  Uiso   1.00
C10    C     0.95030   0.36030   0.98200   0.01267  Uiso   1.00
C11    C     0.95240   0.35420   0.91300   0.01267  Uiso   1.00
C12    C     0.86740   0.32040   0.90440   0.01267  Uiso   1.00
C13    C     0.78070   0.29390   0.96320   0.01267  Uiso   1.00
C14    C     0.69212   0.26232   0.95296   0.01267  Uiso   1.00
C15    C     0.77890   0.30150   0.03100   0.01267  Uiso   1.00
C16    C     0.86420   0.33500   0.03900   0.01267  Uiso   1.00
C17    C     0.56928   0.83138   0.18954   0.01267  Uiso   1.00
C18    C     0.62971   0.90695   0.11334   0.01267  Uiso   1.00
C19    C     0.59240   0.92700   0.05840   0.01267  Uiso   1.00
C20    C     0.65121   0.99661   0.98678   0.01267  Uiso   1.00
C21    C     0.74741   0.04701   0.96898   0.01267  Uiso   1.00
C22    C     0.78594   0.02754   0.02272   0.01267  Uiso   1.00
C23    C     0.72650   0.95706   0.09584   0.01267  Uiso   1.00
C24    C     0.88657   0.07597   0.00486   0.01267  Uiso   1.00
C25    C     0.96872   0.11272   0.99296   0.01267  Uiso   1.00
C26    C     0.06770   0.15770   0.98200   0.01267  Uiso   1.00
C27    C     0.13460   0.23280   0.91300   0.01267  Uiso   1.00
C28    C     0.22820   0.27520   0.90440   0.01267  Uiso   1.00
C29    C     0.25610   0.24290   0.96320   0.01267  Uiso   1.00
C30    C     0.35492   0.28472   0.95296   0.01267  Uiso   1.00
C31    C     0.19010   0.16750   0.03100   0.01267  Uiso   1.00
C32    C     0.09680   0.12600   0.03900   0.01267  Uiso   1.00
C33    C     0.52092   0.75882   0.31046   0.01267  Uiso   1.00
C34    C     0.52029   0.74305   0.38666   0.01267  Uiso   1.00
C35    C     0.48540   0.65080   0.44160   0.01267  Uiso   1.00
C36    C     0.48339   0.63799   0.51322   0.01267  Uiso   1.00
C37    C     0.51599   0.71639   0.53102   0.01267  Uiso   1.00
C38    C     0.55026   0.80866   0.47728   0.01267  Uiso   1.00
C39    C     0.55290   0.82234   0.40416   0.01267  Uiso   1.00
C40    C     0.58083   0.89143   0.49514   0.01267  Uiso   1.00
C41    C     0.60568   0.96168   0.50704   0.01267  Uiso   1.00
C42    C     0.63970   0.04970   0.51800   0.01267  Uiso   1.00
C43    C     0.64580   0.04760   0.58700   0.01267  Uiso   1.00
C44    C     0.67960   0.13260   0.59560   0.01267  Uiso   1.00
C45    C     0.70610   0.21930   0.53680   0.01267  Uiso   1.00
C46    C     0.73768   0.30788   0.54704   0.01267  Uiso   1.00
C47    C     0.69850   0.22110   0.46900   0.01267  Uiso   1.00
C48    C     0.66500   0.13580   0.46100   0.01267  Uiso   1.00
C49    C     0.16862   0.43072   0.31046   0.01267  Uiso   1.00
C50    C     0.09305   0.37029   0.38666   0.01267  Uiso   1.00
C51    C     0.07300   0.40760   0.44160   0.01267  Uiso   1.00
C52    C     0.00339   0.34879   0.51322   0.01267  Uiso   1.00
C53    C     0.95299   0.25259   0.53102   0.01267  Uiso   1.00
C54    C     0.97246   0.21406   0.47728   0.01267  Uiso   1.00
C55    C     0.04294   0.27350   0.40416   0.01267  Uiso   1.00
C56    C     0.92403   0.11343   0.49514   0.01267  Uiso   1.00
C57    C     0.88728   0.03128   0.50704   0.01267  Uiso   1.00
C58    C     0.84230   0.93230   0.51800   0.01267  Uiso   1.00
C59    C     0.76720   0.86540   0.58700   0.01267  Uiso   1.00
C60    C     0.72480   0.77180   0.59560   0.01267  Uiso   1.00
C61    C     0.75710   0.74390   0.53680   0.01267  Uiso   1.00
C62    C     0.71528   0.64508   0.54704   0.01267  Uiso   1.00
C63    C     0.83250   0.80990   0.46900   0.01267  Uiso   1.00
C64    C     0.87400   0.90320   0.46100   0.01267  Uiso   1.00
C65    C     0.75882   0.52092   0.81046   0.01267  Uiso   1.00
C66    C     0.74305   0.52029   0.88666   0.01267  Uiso   1.00
C67    C     0.65080   0.48540   0.94160   0.01267  Uiso   1.00
C68    C     0.63799   0.48339   0.01322   0.01267  Uiso   1.00
C69    C     0.71639   0.51599   0.03102   0.01267  Uiso   1.00
C70    C     0.80866   0.55026   0.97728   0.01267  Uiso   1.00
C71    C     0.82234   0.55290   0.90416   0.01267  Uiso   1.00
C72    C     0.89143   0.58083   0.99514   0.01267  Uiso   1.00
C73    C     0.96168   0.60568   0.00704   0.01267  Uiso   1.00
C74    C     0.04970   0.63970   0.01800   0.01267  Uiso   1.00
C75    C     0.04760   0.64580   0.08700   0.01267  Uiso   1.00
C76    C     0.13260   0.67960   0.09560   0.01267  Uiso   1.00
C77    C     0.21930   0.70610   0.03680   0.01267  Uiso   1.00
C78    C     0.30788   0.73768   0.04704   0.01267  Uiso   1.00
C79    C     0.22110   0.69850   0.96900   0.01267  Uiso   1.00
C80    C     0.13580   0.66500   0.96100   0.01267  Uiso   1.00
C81    C     0.43072   0.16862   0.81046   0.01267  Uiso   1.00
C82    C     0.37029   0.09305   0.88666   0.01267  Uiso   1.00
C83    C     0.40760   0.07300   0.94160   0.01267  Uiso   1.00
C84    C     0.34879   0.00339   0.01322   0.01267  Uiso   1.00
C85    C     0.25259   0.95299   0.03102   0.01267  Uiso   1.00
C86    C     0.21406   0.97246   0.97728   0.01267  Uiso   1.00
C87    C     0.27350   0.04294   0.90416   0.01267  Uiso   1.00
C88    C     0.11343   0.92403   0.99514   0.01267  Uiso   1.00
C89    C     0.03128   0.88728   0.00704   0.01267  Uiso   1.00
C90    C     0.93230   0.84230   0.01800   0.01267  Uiso   1.00
C91    C     0.86540   0.76720   0.08700   0.01267  Uiso   1.00
C92    C     0.77180   0.72480   0.09560   0.01267  Uiso   1.00
C93    C     0.74390   0.75710   0.03680   0.01267  Uiso   1.00
C94    C     0.64508   0.71528   0.04704   0.01267  Uiso   1.00
C95    C     0.80990   0.83250   0.96900   0.01267  Uiso   1.00
C96    C     0.90320   0.87400   0.96100   0.01267  Uiso   1.00
C97    C     0.47908   0.24118   0.68954   0.01267  Uiso   1.00
C98    C     0.47971   0.25695   0.61334   0.01267  Uiso   1.00
C99    C     0.51460   0.34920   0.55840   0.01267  Uiso   1.00
C100   C     0.51661   0.36201   0.48678   0.01267  Uiso   1.00
C101   C     0.48401   0.28361   0.46898   0.01267  Uiso   1.00
C102   C     0.44974   0.19134   0.52272   0.01267  Uiso   1.00
C103   C     0.44710   0.17766   0.59584   0.01267  Uiso   1.00
C104   C     0.41917   0.10857   0.50486   0.01267  Uiso   1.00
C105   C     0.39432   0.03832   0.49296   0.01267  Uiso   1.00
C106   C     0.36030   0.95030   0.48200   0.01267  Uiso   1.00
C107   C     0.35420   0.95240   0.41300   0.01267  Uiso   1.00
C108   C     0.32040   0.86740   0.40440   0.01267  Uiso   1.00
C109   C     0.29390   0.78070   0.46320   0.01267  Uiso   1.00
C110   C     0.26232   0.69212   0.45296   0.01267  Uiso   1.00
C111   C     0.30150   0.77890   0.53100   0.01267  Uiso   1.00
C112   C     0.33500   0.86420   0.53900   0.01267  Uiso   1.00
C113   C     0.83138   0.56928   0.68954   0.01267  Uiso   1.00
C114   C     0.90695   0.62971   0.61334   0.01267  Uiso   1.00
C115   C     0.92700   0.59240   0.55840   0.01267  Uiso   1.00
C116   C     0.99661   0.65121   0.48678   0.01267  Uiso   1.00
C117   C     0.04701   0.74741   0.46898   0.01267  Uiso   1.00
C118   C     0.02754   0.78594   0.52272   0.01267  Uiso   1.00
C119   C     0.95706   0.72650   0.59584   0.01267  Uiso   1.00
C120   C     0.07597   0.88657   0.50486   0.01267  Uiso   1.00
C121   C     0.11272   0.96872   0.49296   0.01267  Uiso   1.00
C122   C     0.15770   0.06770   0.48200   0.01267  Uiso   1.00
C123   C     0.23280   0.13460   0.41300   0.01267  Uiso   1.00
C124   C     0.27520   0.22820   0.40440   0.01267  Uiso   1.00
C125   C     0.24290   0.25610   0.46320   0.01267  Uiso   1.00
C126   C     0.28472   0.35492   0.45296   0.01267  Uiso   1.00
C127   C     0.16750   0.19010   0.53100   0.01267  Uiso   1.00
C128   C     0.12600   0.09680   0.53900   0.01267  Uiso   1.00
N1     N     0.29320   0.53604   0.21024   0.01267  Uiso   1.00
N2     N     0.62274   0.23874   0.94492   0.01267  Uiso   1.00
N3     N     0.49656   0.75372   0.21024   0.01267  Uiso   1.00
N4     N     0.43234   0.31634   0.94492   0.01267  Uiso   1.00
N5     N     0.46396   0.70680   0.28976   0.01267  Uiso   1.00
N6     N     0.76126   0.37726   0.55508   0.01267  Uiso   1.00
N7     N     0.24628   0.50344   0.28976   0.01267  Uiso   1.00
N8     N     0.68366   0.56766   0.55508   0.01267  Uiso   1.00
N9     N     0.70680   0.46396   0.78976   0.01267  Uiso   1.00
N10    N     0.37726   0.76126   0.05508   0.01267  Uiso   1.00
N11    N     0.50344   0.24628   0.78976   0.01267  Uiso   1.00
N12    N     0.56766   0.68366   0.05508   0.01267  Uiso   1.00
N13    N     0.53604   0.29320   0.71024   0.01267  Uiso   1.00
N14    N     0.23874   0.62274   0.44492   0.01267  Uiso   1.00
N15    N     0.75372   0.49656   0.71024   0.01267  Uiso   1.00
N16    N     0.31634   0.43234   0.44492   0.01267  Uiso   1.00
O1     O     0.16040   0.41040   0.25000   0.01267  Uiso   1.00
O2     O     0.58960   0.83960   0.25000   0.01267  Uiso   1.00
O3     O     0.83960   0.58960   0.75000   0.01267  Uiso   1.00
O4     O     0.41040   0.16040   0.75000   0.01267  Uiso   1.00
B1     B     0.23140   0.76860   0.25000   0.01267  Uiso   1.00
F1     F     0.14880   0.66620   0.28780   0.01267  Uiso   1.00
F2     F     0.19740   0.79440   0.30360   0.01267  Uiso   1.00
F3     F     0.33380   0.85120   0.21220   0.01267  Uiso   1.00
F4     F     0.20560   0.80260   0.19640   0.01267  Uiso   1.00
B2     B     0.51860   0.48140   0.25000   0.01267  Uiso   1.00
F5     F     0.56340   0.54600   0.28780   0.01267  Uiso   1.00
F6     F     0.49900   0.40200   0.30360   0.01267  Uiso   1.00
F7     F     0.45400   0.43660   0.21220   0.01267  Uiso   1.00
F8     F     0.59800   0.50100   0.19640   0.01267  Uiso   1.00
B3     B     0.76860   0.23140   0.75000   0.01267  Uiso   1.00
F9     F     0.85120   0.33380   0.71220   0.01267  Uiso   1.00
F10    F     0.80260   0.20560   0.69640   0.01267  Uiso   1.00
F11    F     0.66620   0.14880   0.78780   0.01267  Uiso   1.00
F12    F     0.79440   0.19740   0.80360   0.01267  Uiso   1.00
B4     B     0.48140   0.51860   0.75000   0.01267  Uiso   1.00
F13    F     0.43660   0.45400   0.71220   0.01267  Uiso   1.00
F14    F     0.50100   0.59800   0.69640   0.01267  Uiso   1.00
F15    F     0.54600   0.56340   0.78780   0.01267  Uiso   1.00
F16    F     0.40200   0.49900   0.80360   0.01267  Uiso   1.00
