data_image0
_cell_length_a       6.6737
_cell_length_b       18.8769
_cell_length_c       13.5525
_cell_angle_alpha    90
_cell_angle_beta     95.266
_cell_angle_gamma    90

_symmetry_space_group_name_H-M    "P 1"
_symmetry_int_tables_number       1

loop_
  _symmetry_equiv_pos_as_xyz
  'x, y, z'

loop_
  _atom_site_label
  _atom_site_occupancy
  _atom_site_fract_x
  _atom_site_fract_y
  _atom_site_fract_z
  _atom_site_thermal_displace_type
  _atom_site_B_iso_or_equiv
  _atom_site_type_symbol
  Ag1      1.0000 0.27094  0.00853  0.94594  Biso   1.000  Ag
  N1       1.0000 0.52220  0.06900  0.89110  Biso   1.000  N
  N2       1.0000 0.50870  0.14130  0.90780  Biso   1.000  N
  N3       1.0000 0.70810  0.12230  0.78950  Biso   1.000  N
  N4       1.0000 0.09160  0.40410  0.52420  Biso   1.000  N
  N5       1.0000 0.92170  0.41460  0.57200  Biso   1.000  N
  N6       1.0000 0.00520  0.30300  0.58770  Biso   1.000  N
  C1       1.0000 0.64050  0.05950  0.82010  Biso   1.000  C
  H1       1.0000 0.67310  0.01570  0.79460  Biso   1.000  H
  C2       1.0000 0.62030  0.17070  0.84520  Biso   1.000  C
  H2       1.0000 0.63760  0.21940  0.83950  Biso   1.000  H
  C3       1.0000 0.13800  0.33710  0.53510  Biso   1.000  C
  H3       1.0000 0.24810  0.31570  0.51000  Biso   1.000  H
  C4       1.0000 0.87150  0.35360  0.60910  Biso   1.000  C
  H4       1.0000 0.76070  0.34610  0.64470  Biso   1.000  H
  C5       1.0000 0.84310  0.13330  0.70920  Biso   1.000  C
  C6       1.0000 0.85570  0.21320  0.68910  Biso   1.000  C
  H5       1.0000 0.72270  0.23170  0.66880  Biso   1.000  H
  H6       1.0000 0.90790  0.23770  0.74890  Biso   1.000  H
  C7       1.0000 0.99450  0.22540  0.60730  Biso   1.000  C
  C8       1.0000 0.91210  0.18820  0.51290  Biso   1.000  C
  H7       1.0000 0.00000  0.19650  0.46100  Biso   1.000  H
  H8       1.0000 0.77980  0.20670  0.49110  Biso   1.000  H
  C9       1.0000 0.89810  0.10830  0.53330  Biso   1.000  C
  H9       1.0000 0.84530  0.08400  0.47250  Biso   1.000  H
  C10      1.0000 0.75620  0.09540  0.61480  Biso   1.000  C
  H10      1.0000 0.62320  0.11370  0.59390  Biso   1.000  H
  H11      1.0000 0.74490  0.04500  0.62710  Biso   1.000  H
  C11      1.0000 0.05390  0.10510  0.74370  Biso   1.000  C
  H12      1.0000 0.10710  0.12960  0.80340  Biso   1.000  H
  H13      1.0000 0.04720  0.05490  0.75830  Biso   1.000  H
  C12      1.0000 0.19040  0.11760  0.66040  Biso   1.000  C
  H14      1.0000 0.32480  0.09900  0.68120  Biso   1.000  H
  C13      1.0000 0.20720  0.19740  0.64010  Biso   1.000  C
  H15      1.0000 0.29590  0.20550  0.58840  Biso   1.000  H
  H16      1.0000 0.26200  0.22180  0.69960  Biso   1.000  H
  C14      1.0000 0.10820  0.07970  0.56660  Biso   1.000  C
  H17      1.0000 0.10100  0.02920  0.57890  Biso   1.000  H
  H18      1.0000 0.19700  0.08730  0.51480  Biso   1.000  H
  Ag2      1.0000 0.72906  0.50853  0.55406  Biso   1.000  Ag
  N7       1.0000 0.47780  0.56900  0.60890  Biso   1.000  N
  N8       1.0000 0.49130  0.64130  0.59220  Biso   1.000  N
  N9       1.0000 0.29190  0.62230  0.71050  Biso   1.000  N
  N10      1.0000 0.90840  0.90410  0.97580  Biso   1.000  N
  N11      1.0000 0.07830  0.91460  0.92800  Biso   1.000  N
  N12      1.0000 0.99480  0.80300  0.91230  Biso   1.000  N
  C15      1.0000 0.35950  0.55950  0.67990  Biso   1.000  C
  H19      1.0000 0.32690  0.51570  0.70540  Biso   1.000  H
  C16      1.0000 0.37970  0.67070  0.65480  Biso   1.000  C
  H20      1.0000 0.36240  0.71940  0.66050  Biso   1.000  H
  C17      1.0000 0.86200  0.83710  0.96490  Biso   1.000  C
  H21      1.0000 0.75190  0.81570  0.99000  Biso   1.000  H
  C18      1.0000 0.12850  0.85360  0.89090  Biso   1.000  C
  H22      1.0000 0.23930  0.84610  0.85530  Biso   1.000  H
  C19      1.0000 0.15690  0.63330  0.79080  Biso   1.000  C
  C20      1.0000 0.14430  0.71320  0.81090  Biso   1.000  C
  H23      1.0000 0.27730  0.73170  0.83120  Biso   1.000  H
  H24      1.0000 0.09210  0.73770  0.75110  Biso   1.000  H
  C21      1.0000 0.00550  0.72540  0.89270  Biso   1.000  C
  C22      1.0000 0.08790  0.68820  0.98710  Biso   1.000  C
  H25      1.0000 0.00000  0.69650  0.03900  Biso   1.000  H
  H26      1.0000 0.22020  0.70670  0.00890  Biso   1.000  H
  C23      1.0000 0.10190  0.60830  0.96670  Biso   1.000  C
  H27      1.0000 0.15470  0.58400  0.02750  Biso   1.000  H
  C24      1.0000 0.24380  0.59540  0.88520  Biso   1.000  C
  H28      1.0000 0.37680  0.61370  0.90610  Biso   1.000  H
  H29      1.0000 0.25510  0.54500  0.87290  Biso   1.000  H
  C25      1.0000 0.94610  0.60510  0.75630  Biso   1.000  C
  H30      1.0000 0.89290  0.62960  0.69660  Biso   1.000  H
  H31      1.0000 0.95280  0.55490  0.74170  Biso   1.000  H
  C26      1.0000 0.80960  0.61760  0.83960  Biso   1.000  C
  H32      1.0000 0.67520  0.59900  0.81880  Biso   1.000  H
  C27      1.0000 0.79280  0.69740  0.85990  Biso   1.000  C
  H33      1.0000 0.70410  0.70550  0.91160  Biso   1.000  H
  H34      1.0000 0.73800  0.72180  0.80040  Biso   1.000  H
  C28      1.0000 0.89180  0.57970  0.93340  Biso   1.000  C
  H35      1.0000 0.89900  0.52920  0.92110  Biso   1.000  H
  H36      1.0000 0.80300  0.58730  0.98520  Biso   1.000  H
  Ag3      1.0000 0.72906  0.99147  0.05406  Biso   1.000  Ag
  N13      1.0000 0.47780  0.93100  0.10890  Biso   1.000  N
  N14      1.0000 0.49130  0.85870  0.09220  Biso   1.000  N
  N15      1.0000 0.29190  0.87770  0.21050  Biso   1.000  N
  N16      1.0000 0.90840  0.59590  0.47580  Biso   1.000  N
  N17      1.0000 0.07830  0.58540  0.42800  Biso   1.000  N
  N18      1.0000 0.99480  0.69700  0.41230  Biso   1.000  N
  C29      1.0000 0.35950  0.94050  0.17990  Biso   1.000  C
  H37      1.0000 0.32690  0.98430  0.20540  Biso   1.000  H
  C30      1.0000 0.37970  0.82930  0.15480  Biso   1.000  C
  H38      1.0000 0.36240  0.78060  0.16050  Biso   1.000  H
  C31      1.0000 0.86200  0.66290  0.46490  Biso   1.000  C
  H39      1.0000 0.75190  0.68430  0.49000  Biso   1.000  H
  C32      1.0000 0.12850  0.64640  0.39090  Biso   1.000  C
  H40      1.0000 0.23930  0.65390  0.35530  Biso   1.000  H
  C33      1.0000 0.15690  0.86670  0.29080  Biso   1.000  C
  C34      1.0000 0.14430  0.78680  0.31090  Biso   1.000  C
  H41      1.0000 0.27730  0.76830  0.33120  Biso   1.000  H
  H42      1.0000 0.09210  0.76230  0.25110  Biso   1.000  H
  C35      1.0000 0.00550  0.77460  0.39270  Biso   1.000  C
  C36      1.0000 0.08790  0.81180  0.48710  Biso   1.000  C
  H43      1.0000 0.00000  0.80350  0.53900  Biso   1.000  H
  H44      1.0000 0.22020  0.79330  0.50890  Biso   1.000  H
  C37      1.0000 0.10190  0.89170  0.46670  Biso   1.000  C
  H45      1.0000 0.15470  0.91600  0.52750  Biso   1.000  H
  C38      1.0000 0.24380  0.90460  0.38520  Biso   1.000  C
  H46      1.0000 0.37680  0.88630  0.40610  Biso   1.000  H
  H47      1.0000 0.25510  0.95500  0.37290  Biso   1.000  H
  C39      1.0000 0.94610  0.89490  0.25630  Biso   1.000  C
  H48      1.0000 0.89290  0.87040  0.19660  Biso   1.000  H
  H49      1.0000 0.95280  0.94510  0.24170  Biso   1.000  H
  C40      1.0000 0.80960  0.88240  0.33960  Biso   1.000  C
  H50      1.0000 0.67520  0.90100  0.31880  Biso   1.000  H
  C41      1.0000 0.79280  0.80260  0.35990  Biso   1.000  C
  H51      1.0000 0.70410  0.79450  0.41160  Biso   1.000  H
  H52      1.0000 0.73800  0.77820  0.30040  Biso   1.000  H
  C42      1.0000 0.89180  0.92030  0.43340  Biso   1.000  C
  H53      1.0000 0.89900  0.97080  0.42110  Biso   1.000  H
  H54      1.0000 0.80300  0.91270  0.48520  Biso   1.000  H
  Ag4      1.0000 0.27094  0.49147  0.44594  Biso   1.000  Ag
  N19      1.0000 0.52220  0.43100  0.39110  Biso   1.000  N
  N20      1.0000 0.50870  0.35870  0.40780  Biso   1.000  N
  N21      1.0000 0.70810  0.37770  0.28950  Biso   1.000  N
  N22      1.0000 0.09160  0.09590  0.02420  Biso   1.000  N
  N23      1.0000 0.92170  0.08540  0.07200  Biso   1.000  N
  N24      1.0000 0.00520  0.19700  0.08770  Biso   1.000  N
  C43      1.0000 0.64050  0.44050  0.32010  Biso   1.000  C
  H55      1.0000 0.67310  0.48430  0.29460  Biso   1.000  H
  C44      1.0000 0.62030  0.32930  0.34520  Biso   1.000  C
  H56      1.0000 0.63760  0.28060  0.33950  Biso   1.000  H
  C45      1.0000 0.13800  0.16290  0.03510  Biso   1.000  C
  H57      1.0000 0.24810  0.18430  0.01000  Biso   1.000  H
  C46      1.0000 0.87150  0.14640  0.10910  Biso   1.000  C
  H58      1.0000 0.76070  0.15390  0.14470  Biso   1.000  H
  C47      1.0000 0.84310  0.36670  0.20920  Biso   1.000  C
  C48      1.0000 0.85570  0.28680  0.18910  Biso   1.000  C
  H59      1.0000 0.72270  0.26830  0.16880  Biso   1.000  H
  H60      1.0000 0.90790  0.26230  0.24890  Biso   1.000  H
  C49      1.0000 0.99450  0.27460  0.10730  Biso   1.000  C
  C50      1.0000 0.91210  0.31180  0.01290  Biso   1.000  C
  H61      1.0000 0.00000  0.30350  0.96100  Biso   1.000  H
  H62      1.0000 0.77980  0.29330  0.99110  Biso   1.000  H
  C51      1.0000 0.89810  0.39170  0.03330  Biso   1.000  C
  H63      1.0000 0.84530  0.41600  0.97250  Biso   1.000  H
  C52      1.0000 0.75620  0.40460  0.11480  Biso   1.000  C
  H64      1.0000 0.62320  0.38630  0.09390  Biso   1.000  H
  H65      1.0000 0.74490  0.45500  0.12710  Biso   1.000  H
  C53      1.0000 0.05390  0.39490  0.24370  Biso   1.000  C
  H66      1.0000 0.10710  0.37040  0.30340  Biso   1.000  H
  H67      1.0000 0.04720  0.44510  0.25830  Biso   1.000  H
  C54      1.0000 0.19040  0.38240  0.16040  Biso   1.000  C
  H68      1.0000 0.32480  0.40100  0.18120  Biso   1.000  H
  C55      1.0000 0.20720  0.30260  0.14010  Biso   1.000  C
  H69      1.0000 0.29590  0.29450  0.08840  Biso   1.000  H
  H70      1.0000 0.26200  0.27820  0.19960  Biso   1.000  H
  C56      1.0000 0.10820  0.42030  0.06660  Biso   1.000  C
  H71      1.0000 0.10100  0.47080  0.07890  Biso   1.000  H
  H72      1.0000 0.19700  0.41270  0.01480  Biso   1.000  H
