data_image0
_cell_length_a       11.9996
_cell_length_b       21.0665
_cell_length_c       15.6477
_cell_angle_alpha    90
_cell_angle_beta     109.555
_cell_angle_gamma    90

_symmetry_space_group_name_H-M    "P 1"
_symmetry_int_tables_number       1

loop_
  _symmetry_equiv_pos_as_xyz
  'x, y, z'

loop_
  _atom_site_label
  _atom_site_occupancy
  _atom_site_fract_x
  _atom_site_fract_y
  _atom_site_fract_z
  _atom_site_thermal_displace_type
  _atom_site_B_iso_or_equiv
  _atom_site_type_symbol
  Cu1      1.0000 0.75765  0.08181  0.16413  Biso   1.000  Cu
  Br1      1.0000 0.66892  0.10828  0.98713  Biso   1.000  Br
  Br2      1.0000 0.72780  0.17800  0.92490  Biso   1.000  Br
  N1       1.0000 0.62860  0.03314  0.18890  Biso   1.000  N
  N2       1.0000 0.91050  0.12830  0.18300  Biso   1.000  N
  N3       1.0000 0.01050  0.09540  0.18590  Biso   1.000  N
  N4       1.0000 0.05180  0.19480  0.20670  Biso   1.000  N
  N5       1.0000 0.69450  0.16110  0.20450  Biso   1.000  N
  N6       1.0000 0.72690  0.17200  0.29700  Biso   1.000  N
  N7       1.0000 0.11630  0.25110  0.22470  Biso   1.000  N
  N8       1.0000 0.88110  0.04470  0.31350  Biso   1.000  N
  N9       1.0000 0.98320  0.02550  0.45350  Biso   1.000  N
  C1       1.0000 0.53580  0.05210  0.20700  Biso   1.000  C
  H1       1.0000 0.51420  0.09410  0.21120  Biso   1.000  H
  C2       1.0000 0.93700  0.18790  0.19620  Biso   1.000  C
  H2       1.0000 0.88530  0.22030  0.19820  Biso   1.000  H
  C3       1.0000 0.09650  0.13630  0.20010  Biso   1.000  C
  H3       1.0000 0.17420  0.12720  0.20480  Biso   1.000  H
  C4       1.0000 0.67930  0.22500  0.30690  Biso   1.000  C
  H4       1.0000 0.68670  0.24400  0.36220  Biso   1.000  H
  C5       1.0000 0.62850  0.20760  0.16280  Biso   1.000  C
  H5       1.0000 0.59490  0.21190  0.10020  Biso   1.000  H
  C6       1.0000 0.88470  0.05570  0.39640  Biso   1.000  C
  Cu2      1.0000 0.25765  0.58181  0.16413  Biso   1.000  Cu
  Br3      1.0000 0.16892  0.60828  0.98713  Biso   1.000  Br
  Br4      1.0000 0.22780  0.67800  0.92490  Biso   1.000  Br
  N10      1.0000 0.12860  0.53314  0.18890  Biso   1.000  N
  N11      1.0000 0.41050  0.62830  0.18300  Biso   1.000  N
  N12      1.0000 0.51050  0.59540  0.18590  Biso   1.000  N
  N13      1.0000 0.55180  0.69480  0.20670  Biso   1.000  N
  N14      1.0000 0.19450  0.66110  0.20450  Biso   1.000  N
  N15      1.0000 0.22690  0.67200  0.29700  Biso   1.000  N
  N16      1.0000 0.61630  0.75110  0.22470  Biso   1.000  N
  N17      1.0000 0.38110  0.54470  0.31350  Biso   1.000  N
  N18      1.0000 0.48320  0.52550  0.45350  Biso   1.000  N
  C7       1.0000 0.03580  0.55210  0.20700  Biso   1.000  C
  H6       1.0000 0.01420  0.59410  0.21120  Biso   1.000  H
  C8       1.0000 0.43700  0.68790  0.19620  Biso   1.000  C
  H7       1.0000 0.38530  0.72030  0.19820  Biso   1.000  H
  C9       1.0000 0.59650  0.63630  0.20010  Biso   1.000  C
  H8       1.0000 0.67420  0.62720  0.20480  Biso   1.000  H
  C10      1.0000 0.17930  0.72500  0.30690  Biso   1.000  C
  H9       1.0000 0.18670  0.74400  0.36220  Biso   1.000  H
  C11      1.0000 0.12850  0.70760  0.16280  Biso   1.000  C
  H10      1.0000 0.09490  0.71190  0.10020  Biso   1.000  H
  C12      1.0000 0.38470  0.55570  0.39640  Biso   1.000  C
  Cu3      1.0000 0.24235  0.08181  0.83587  Biso   1.000  Cu
  Br5      1.0000 0.33108  0.10828  0.01287  Biso   1.000  Br
  Br6      1.0000 0.27220  0.17800  0.07510  Biso   1.000  Br
  N19      1.0000 0.37140  0.03314  0.81110  Biso   1.000  N
  N20      1.0000 0.08950  0.12830  0.81700  Biso   1.000  N
  N21      1.0000 0.98950  0.09540  0.81410  Biso   1.000  N
  N22      1.0000 0.94820  0.19480  0.79330  Biso   1.000  N
  N23      1.0000 0.30550  0.16110  0.79550  Biso   1.000  N
  N24      1.0000 0.27310  0.17200  0.70300  Biso   1.000  N
  N25      1.0000 0.88370  0.25110  0.77530  Biso   1.000  N
  N26      1.0000 0.11890  0.04470  0.68650  Biso   1.000  N
  N27      1.0000 0.01680  0.02550  0.54650  Biso   1.000  N
  C13      1.0000 0.46420  0.05210  0.79300  Biso   1.000  C
  H11      1.0000 0.48580  0.09410  0.78880  Biso   1.000  H
  C14      1.0000 0.06300  0.18790  0.80380  Biso   1.000  C
  H12      1.0000 0.11470  0.22030  0.80180  Biso   1.000  H
  C15      1.0000 0.90350  0.13630  0.79990  Biso   1.000  C
  H13      1.0000 0.82580  0.12720  0.79520  Biso   1.000  H
  C16      1.0000 0.32070  0.22500  0.69310  Biso   1.000  C
  H14      1.0000 0.31330  0.24400  0.63780  Biso   1.000  H
  C17      1.0000 0.37150  0.20760  0.83720  Biso   1.000  C
  H15      1.0000 0.40510  0.21190  0.89980  Biso   1.000  H
  C18      1.0000 0.11530  0.05570  0.60360  Biso   1.000  C
  Cu4      1.0000 0.74235  0.58181  0.83587  Biso   1.000  Cu
  Br7      1.0000 0.83108  0.60828  0.01287  Biso   1.000  Br
  Br8      1.0000 0.77220  0.67800  0.07510  Biso   1.000  Br
  N28      1.0000 0.87140  0.53314  0.81110  Biso   1.000  N
  N29      1.0000 0.58950  0.62830  0.81700  Biso   1.000  N
  N30      1.0000 0.48950  0.59540  0.81410  Biso   1.000  N
  N31      1.0000 0.44820  0.69480  0.79330  Biso   1.000  N
  N32      1.0000 0.80550  0.66110  0.79550  Biso   1.000  N
  N33      1.0000 0.77310  0.67200  0.70300  Biso   1.000  N
  N34      1.0000 0.38370  0.75110  0.77530  Biso   1.000  N
  N35      1.0000 0.61890  0.54470  0.68650  Biso   1.000  N
  N36      1.0000 0.51680  0.52550  0.54650  Biso   1.000  N
  C19      1.0000 0.96420  0.55210  0.79300  Biso   1.000  C
  H16      1.0000 0.98580  0.59410  0.78880  Biso   1.000  H
  C20      1.0000 0.56300  0.68790  0.80380  Biso   1.000  C
  H17      1.0000 0.61470  0.72030  0.80180  Biso   1.000  H
  C21      1.0000 0.40350  0.63630  0.79990  Biso   1.000  C
  H18      1.0000 0.32580  0.62720  0.79520  Biso   1.000  H
  C22      1.0000 0.82070  0.72500  0.69310  Biso   1.000  C
  H19      1.0000 0.81330  0.74400  0.63780  Biso   1.000  H
  C23      1.0000 0.87150  0.70760  0.83720  Biso   1.000  C
  H20      1.0000 0.90510  0.71190  0.89980  Biso   1.000  H
  C24      1.0000 0.61530  0.55570  0.60360  Biso   1.000  C
  Cu5      1.0000 0.24235  0.91819  0.83587  Biso   1.000  Cu
  Br9      1.0000 0.33108  0.89172  0.01287  Biso   1.000  Br
  Br10     1.0000 0.27220  0.82200  0.07510  Biso   1.000  Br
  N37      1.0000 0.37140  0.96686  0.81110  Biso   1.000  N
  N38      1.0000 0.08950  0.87170  0.81700  Biso   1.000  N
  N39      1.0000 0.98950  0.90460  0.81410  Biso   1.000  N
  N40      1.0000 0.94820  0.80520  0.79330  Biso   1.000  N
  N41      1.0000 0.30550  0.83890  0.79550  Biso   1.000  N
  N42      1.0000 0.27310  0.82800  0.70300  Biso   1.000  N
  N43      1.0000 0.88370  0.74890  0.77530  Biso   1.000  N
  N44      1.0000 0.11890  0.95530  0.68650  Biso   1.000  N
  N45      1.0000 0.01680  0.97450  0.54650  Biso   1.000  N
  C25      1.0000 0.46420  0.94790  0.79300  Biso   1.000  C
  H21      1.0000 0.48580  0.90590  0.78880  Biso   1.000  H
  C26      1.0000 0.06300  0.81210  0.80380  Biso   1.000  C
  H22      1.0000 0.11470  0.77970  0.80180  Biso   1.000  H
  C27      1.0000 0.90350  0.86370  0.79990  Biso   1.000  C
  H23      1.0000 0.82580  0.87280  0.79520  Biso   1.000  H
  C28      1.0000 0.32070  0.77500  0.69310  Biso   1.000  C
  H24      1.0000 0.31330  0.75600  0.63780  Biso   1.000  H
  C29      1.0000 0.37150  0.79240  0.83720  Biso   1.000  C
  H25      1.0000 0.40510  0.78810  0.89980  Biso   1.000  H
  C30      1.0000 0.11530  0.94430  0.60360  Biso   1.000  C
  Cu6      1.0000 0.74235  0.41819  0.83587  Biso   1.000  Cu
  Br11     1.0000 0.83108  0.39172  0.01287  Biso   1.000  Br
  Br12     1.0000 0.77220  0.32200  0.07510  Biso   1.000  Br
  N46      1.0000 0.87140  0.46686  0.81110  Biso   1.000  N
  N47      1.0000 0.58950  0.37170  0.81700  Biso   1.000  N
  N48      1.0000 0.48950  0.40460  0.81410  Biso   1.000  N
  N49      1.0000 0.44820  0.30520  0.79330  Biso   1.000  N
  N50      1.0000 0.80550  0.33890  0.79550  Biso   1.000  N
  N51      1.0000 0.77310  0.32800  0.70300  Biso   1.000  N
  N52      1.0000 0.38370  0.24890  0.77530  Biso   1.000  N
  N53      1.0000 0.61890  0.45530  0.68650  Biso   1.000  N
  N54      1.0000 0.51680  0.47450  0.54650  Biso   1.000  N
  C31      1.0000 0.96420  0.44790  0.79300  Biso   1.000  C
  H26      1.0000 0.98580  0.40590  0.78880  Biso   1.000  H
  C32      1.0000 0.56300  0.31210  0.80380  Biso   1.000  C
  H27      1.0000 0.61470  0.27970  0.80180  Biso   1.000  H
  C33      1.0000 0.40350  0.36370  0.79990  Biso   1.000  C
  H28      1.0000 0.32580  0.37280  0.79520  Biso   1.000  H
  C34      1.0000 0.82070  0.27500  0.69310  Biso   1.000  C
  H29      1.0000 0.81330  0.25600  0.63780  Biso   1.000  H
  C35      1.0000 0.87150  0.29240  0.83720  Biso   1.000  C
  H30      1.0000 0.90510  0.28810  0.89980  Biso   1.000  H
  C36      1.0000 0.61530  0.44430  0.60360  Biso   1.000  C
  Cu7      1.0000 0.75765  0.91819  0.16413  Biso   1.000  Cu
  Br13     1.0000 0.66892  0.89172  0.98713  Biso   1.000  Br
  Br14     1.0000 0.72780  0.82200  0.92490  Biso   1.000  Br
  N55      1.0000 0.62860  0.96686  0.18890  Biso   1.000  N
  N56      1.0000 0.91050  0.87170  0.18300  Biso   1.000  N
  N57      1.0000 0.01050  0.90460  0.18590  Biso   1.000  N
  N58      1.0000 0.05180  0.80520  0.20670  Biso   1.000  N
  N59      1.0000 0.69450  0.83890  0.20450  Biso   1.000  N
  N60      1.0000 0.72690  0.82800  0.29700  Biso   1.000  N
  N61      1.0000 0.11630  0.74890  0.22470  Biso   1.000  N
  N62      1.0000 0.88110  0.95530  0.31350  Biso   1.000  N
  N63      1.0000 0.98320  0.97450  0.45350  Biso   1.000  N
  C37      1.0000 0.53580  0.94790  0.20700  Biso   1.000  C
  H31      1.0000 0.51420  0.90590  0.21120  Biso   1.000  H
  C38      1.0000 0.93700  0.81210  0.19620  Biso   1.000  C
  H32      1.0000 0.88530  0.77970  0.19820  Biso   1.000  H
  C39      1.0000 0.09650  0.86370  0.20010  Biso   1.000  C
  H33      1.0000 0.17420  0.87280  0.20480  Biso   1.000  H
  C40      1.0000 0.67930  0.77500  0.30690  Biso   1.000  C
  H34      1.0000 0.68670  0.75600  0.36220  Biso   1.000  H
  C41      1.0000 0.62850  0.79240  0.16280  Biso   1.000  C
  H35      1.0000 0.59490  0.78810  0.10020  Biso   1.000  H
  C42      1.0000 0.88470  0.94430  0.39640  Biso   1.000  C
  Cu8      1.0000 0.25765  0.41819  0.16413  Biso   1.000  Cu
  Br15     1.0000 0.16892  0.39172  0.98713  Biso   1.000  Br
  Br16     1.0000 0.22780  0.32200  0.92490  Biso   1.000  Br
  N64      1.0000 0.12860  0.46686  0.18890  Biso   1.000  N
  N65      1.0000 0.41050  0.37170  0.18300  Biso   1.000  N
  N66      1.0000 0.51050  0.40460  0.18590  Biso   1.000  N
  N67      1.0000 0.55180  0.30520  0.20670  Biso   1.000  N
  N68      1.0000 0.19450  0.33890  0.20450  Biso   1.000  N
  N69      1.0000 0.22690  0.32800  0.29700  Biso   1.000  N
  N70      1.0000 0.61630  0.24890  0.22470  Biso   1.000  N
  N71      1.0000 0.38110  0.45530  0.31350  Biso   1.000  N
  N72      1.0000 0.48320  0.47450  0.45350  Biso   1.000  N
  C43      1.0000 0.03580  0.44790  0.20700  Biso   1.000  C
  H36      1.0000 0.01420  0.40590  0.21120  Biso   1.000  H
  C44      1.0000 0.43700  0.31210  0.19620  Biso   1.000  C
  H37      1.0000 0.38530  0.27970  0.19820  Biso   1.000  H
  C45      1.0000 0.59650  0.36370  0.20010  Biso   1.000  C
  H38      1.0000 0.67420  0.37280  0.20480  Biso   1.000  H
  C46      1.0000 0.17930  0.27500  0.30690  Biso   1.000  C
  H39      1.0000 0.18670  0.25600  0.36220  Biso   1.000  H
  C47      1.0000 0.12850  0.29240  0.16280  Biso   1.000  C
  H40      1.0000 0.09490  0.28810  0.10020  Biso   1.000  H
  C48      1.0000 0.38470  0.44430  0.39640  Biso   1.000  C
  Cu9      1.0000 0.00936  0.00000  0.17987  Biso   1.000  Cu
  O1       1.0000 0.82960  0.00000  0.13610  Biso   1.000  O
  H41      1.0000 0.81020  0.00000  0.07860  Biso   1.000  H
  N73      1.0000 0.47620  0.00000  0.21880  Biso   1.000  N
  N74      1.0000 0.18840  0.00000  0.22240  Biso   1.000  N
  N75      1.0000 0.24930  0.00000  0.31510  Biso   1.000  N
  N76      1.0000 0.37240  0.00000  0.23970  Biso   1.000  N
  N77      1.0000 0.97820  0.00000  0.31610  Biso   1.000  N
  C49      1.0000 0.36100  0.00000  0.32310  Biso   1.000  C
  H42      1.0000 0.42350  0.00000  0.37780  Biso   1.000  H
  C50      1.0000 0.26170  0.00000  0.17660  Biso   1.000  C
  H43      1.0000 0.24250  0.00000  0.11390  Biso   1.000  H
  C51      1.0000 0.04090  0.00000  0.40260  Biso   1.000  C
  Cu10     1.0000 0.50936  0.50000  0.17987  Biso   1.000  Cu
  O2       1.0000 0.32960  0.50000  0.13610  Biso   1.000  O
  H44      1.0000 0.31020  0.50000  0.07860  Biso   1.000  H
  N78      1.0000 0.97620  0.50000  0.21880  Biso   1.000  N
  N79      1.0000 0.68840  0.50000  0.22240  Biso   1.000  N
  N80      1.0000 0.74930  0.50000  0.31510  Biso   1.000  N
  N81      1.0000 0.87240  0.50000  0.23970  Biso   1.000  N
  N82      1.0000 0.47820  0.50000  0.31610  Biso   1.000  N
  C52      1.0000 0.86100  0.50000  0.32310  Biso   1.000  C
  H45      1.0000 0.92350  0.50000  0.37780  Biso   1.000  H
  C53      1.0000 0.76170  0.50000  0.17660  Biso   1.000  C
  H46      1.0000 0.74250  0.50000  0.11390  Biso   1.000  H
  C54      1.0000 0.54090  0.50000  0.40260  Biso   1.000  C
  Cu11     1.0000 0.99064  0.00000  0.82013  Biso   1.000  Cu
  O3       1.0000 0.17040  0.00000  0.86390  Biso   1.000  O
  H47      1.0000 0.18980  0.00000  0.92140  Biso   1.000  H
  N83      1.0000 0.52380  0.00000  0.78120  Biso   1.000  N
  N84      1.0000 0.81160  0.00000  0.77760  Biso   1.000  N
  N85      1.0000 0.75070  0.00000  0.68490  Biso   1.000  N
  N86      1.0000 0.62760  0.00000  0.76030  Biso   1.000  N
  N87      1.0000 0.02180  0.00000  0.68390  Biso   1.000  N
  C55      1.0000 0.63900  0.00000  0.67690  Biso   1.000  C
  H48      1.0000 0.57650  0.00000  0.62220  Biso   1.000  H
  C56      1.0000 0.73830  0.00000  0.82340  Biso   1.000  C
  H49      1.0000 0.75750  0.00000  0.88610  Biso   1.000  H
  C57      1.0000 0.95910  0.00000  0.59740  Biso   1.000  C
  Cu12     1.0000 0.49064  0.50000  0.82013  Biso   1.000  Cu
  O4       1.0000 0.67040  0.50000  0.86390  Biso   1.000  O
  H50      1.0000 0.68980  0.50000  0.92140  Biso   1.000  H
  N88      1.0000 0.02380  0.50000  0.78120  Biso   1.000  N
  N89      1.0000 0.31160  0.50000  0.77760  Biso   1.000  N
  N90      1.0000 0.25070  0.50000  0.68490  Biso   1.000  N
  N91      1.0000 0.12760  0.50000  0.76030  Biso   1.000  N
  N92      1.0000 0.52180  0.50000  0.68390  Biso   1.000  N
  C58      1.0000 0.13900  0.50000  0.67690  Biso   1.000  C
  H51      1.0000 0.07650  0.50000  0.62220  Biso   1.000  H
  C59      1.0000 0.23830  0.50000  0.82340  Biso   1.000  C
  H52      1.0000 0.25750  0.50000  0.88610  Biso   1.000  H
  C60      1.0000 0.45910  0.50000  0.59740  Biso   1.000  C
  Br17     1.0000 0.00000  0.00000  0.00000  Biso   1.000  Br
  Br18     1.0000 0.50000  0.50000  0.00000  Biso   1.000  Br
