data_WELTUD_charged
_audit_creation_date              2014-07-02
_audit_creation_method            'Materials Studio'
_symmetry_space_group_name_H-M    'P1'
_symmetry_Int_Tables_number       1
_symmetry_cell_setting            triclinic
loop_
_symmetry_equiv_pos_as_xyz
  x,y,z
_cell_length_a                    12.0195
_cell_length_b                    12.2543
_cell_length_c                    28.9540
_cell_angle_alpha                 96.8760
_cell_angle_beta                  90.0000
_cell_angle_gamma                 119.3680
loop_
_atom_site_label
_atom_site_type_symbol
_atom_site_fract_x
_atom_site_fract_y
_atom_site_fract_z
_atom_site_U_iso_or_equiv
_atom_site_adp_type
_atom_site_occupancy
Cu1    Cu    0.97952   0.97820   0.04398   0.01267  Uiso   1.00
Cu2    Cu    0.13945   0.80858   0.03215   0.01267  Uiso   1.00
Cu3    Cu    0.30788   0.14758   0.04738   0.01267  Uiso   1.00
Cu4    Cu    0.20399   0.27776   0.36781   0.01267  Uiso   1.00
Cu5    Cu    0.36895   0.11544   0.37636   0.01267  Uiso   1.00
Cu6    Cu    0.90701   0.94930   0.87968   0.01267  Uiso   1.00
Cu7    Cu    0.99868   0.97820   0.54398   0.01267  Uiso   1.00
Cu8    Cu    0.66913   0.80858   0.53215   0.01267  Uiso   1.00
Cu9    Cu    0.83970   0.14758   0.54738   0.01267  Uiso   1.00
Cu10   Cu    0.07377   0.27776   0.86781   0.01267  Uiso   1.00
Cu11   Cu    0.74649   0.11544   0.87636   0.01267  Uiso   1.00
Cu12   Cu    0.04229   0.94930   0.37968   0.01267  Uiso   1.00
H1     H     0.12130   0.95580   0.99310   0.01267  Uiso   1.00
H2     H     0.21550   0.12360   0.42400   0.01267  Uiso   1.00
H3     H     0.94850   0.23660   0.04390   0.01267  Uiso   1.00
H4     H     0.32810   0.41940   0.05260   0.01267  Uiso   1.00
H5     H     0.15680   0.51560   0.12870   0.01267  Uiso   1.00
H6     H     0.13770   0.54300   0.99460   0.01267  Uiso   1.00
H7     H     0.71020   0.74120   0.06830   0.01267  Uiso   1.00
H8     H     0.90880   0.56000   0.07430   0.01267  Uiso   1.00
H9     H     0.67000   0.52640   0.15770   0.01267  Uiso   1.00
H10    H     0.57880   0.40920   0.02430   0.01267  Uiso   1.00
H11    H     0.40150   0.80580   0.06590   0.01267  Uiso   1.00
H12    H     0.58850   0.17500   0.06520   0.01267  Uiso   1.00
H13    H     0.67760   0.02340   0.14860   0.01267  Uiso   1.00
H14    H     0.71420   0.96340   0.01180   0.01267  Uiso   1.00
H15    H     0.45460   0.55460   0.36450   0.01267  Uiso   1.00
H16    H     0.65090   0.36900   0.36680   0.01267  Uiso   1.00
H17    H     0.69080   0.59000   0.28050   0.01267  Uiso   1.00
H18    H     0.79950   0.70680   0.41600   0.01267  Uiso   1.00
H19    H     0.94400   0.28320   0.34850   0.01267  Uiso   1.00
H20    H     0.76190   0.92040   0.36380   0.01267  Uiso   1.00
H21    H     0.67050   0.06660   0.27400   0.01267  Uiso   1.00
H22    H     0.64850   0.14860   0.40950   0.01267  Uiso   1.00
H23    H     0.01410   0.67580   0.33670   0.01267  Uiso   1.00
H24    H     0.39250   0.85700   0.34870   0.01267  Uiso   1.00
H25    H     0.18920   0.58280   0.25380   0.01267  Uiso   1.00
H26    H     0.20340   0.55220   0.38790   0.01267  Uiso   1.00
H27    H     0.00210   0.99620   0.17250   0.01267  Uiso   1.00
H28    H     0.37680   0.19320   0.16240   0.01267  Uiso   1.00
H29    H     0.14350   0.23500   0.25340   0.01267  Uiso   1.00
H30    H     0.31610   0.03140   0.24620   0.01267  Uiso   1.00
H31    H     0.83450   0.95580   0.49310   0.01267  Uiso   1.00
H32    H     0.90810   0.12360   0.92400   0.01267  Uiso   1.00
H33    H     0.28810   0.23660   0.54390   0.01267  Uiso   1.00
H34    H     0.09130   0.41940   0.55260   0.01267  Uiso   1.00
H35    H     0.35880   0.51560   0.62870   0.01267  Uiso   1.00
H36    H     0.40530   0.54300   0.49460   0.01267  Uiso   1.00
H37    H     0.03100   0.74120   0.56830   0.01267  Uiso   1.00
H38    H     0.65120   0.56000   0.57430   0.01267  Uiso   1.00
H39    H     0.85640   0.52640   0.65770   0.01267  Uiso   1.00
H40    H     0.83040   0.40920   0.52430   0.01267  Uiso   1.00
H41    H     0.40430   0.80580   0.56590   0.01267  Uiso   1.00
H42    H     0.58650   0.17500   0.56520   0.01267  Uiso   1.00
H43    H     0.34580   0.02340   0.64860   0.01267  Uiso   1.00
H44    H     0.24920   0.96340   0.51180   0.01267  Uiso   1.00
H45    H     0.10000   0.55460   0.86450   0.01267  Uiso   1.00
H46    H     0.71810   0.36900   0.86680   0.01267  Uiso   1.00
H47    H     0.89920   0.59000   0.78050   0.01267  Uiso   1.00
H48    H     0.90730   0.70680   0.91600   0.01267  Uiso   1.00
H49    H     0.33920   0.28320   0.84850   0.01267  Uiso   1.00
H50    H     0.15850   0.92040   0.86380   0.01267  Uiso   1.00
H51    H     0.39610   0.06660   0.77400   0.01267  Uiso   1.00
H52    H     0.50010   0.14860   0.90950   0.01267  Uiso   1.00
H53    H     0.66170   0.67580   0.83670   0.01267  Uiso   1.00
H54    H     0.46450   0.85700   0.84870   0.01267  Uiso   1.00
H55    H     0.39360   0.58280   0.75380   0.01267  Uiso   1.00
H56    H     0.34880   0.55220   0.88790   0.01267  Uiso   1.00
H57    H     0.99410   0.99620   0.67250   0.01267  Uiso   1.00
H58    H     0.81640   0.19320   0.66240   0.01267  Uiso   1.00
H59    H     0.09150   0.23500   0.75340   0.01267  Uiso   1.00
H60    H     0.71530   0.03140   0.74620   0.01267  Uiso   1.00
C1     C     0.03360   0.25320   0.04430   0.01267  Uiso   1.00
C2     C     0.24260   0.35400   0.04900   0.01267  Uiso   1.00
C3     C     0.15240   0.54640   0.10100   0.01267  Uiso   1.00
C4     C     0.14210   0.56100   0.02720   0.01267  Uiso   1.00
C5     C     0.77760   0.72300   0.06760   0.01267  Uiso   1.00
C6     C     0.88800   0.62320   0.07070   0.01267  Uiso   1.00
C7     C     0.62500   0.47800   0.12950   0.01267  Uiso   1.00
C8     C     0.57510   0.41420   0.05690   0.01267  Uiso   1.00
C9     C     0.42040   0.88880   0.06340   0.01267  Uiso   1.00
C10    C     0.52220   0.09060   0.06260   0.01267  Uiso   1.00
C11    C     0.70960   0.01120   0.12000   0.01267  Uiso   1.00
C12    C     0.73030   0.97940   0.04440   0.01267  Uiso   1.00
C13    C     0.47490   0.49000   0.36570   0.01267  Uiso   1.00
C14    C     0.58470   0.38900   0.36770   0.01267  Uiso   1.00
C15    C     0.73650   0.63860   0.30870   0.01267  Uiso   1.00
C16    C     0.79530   0.70300   0.38340   0.01267  Uiso   1.00
C17    C     0.92670   0.20240   0.35410   0.01267  Uiso   1.00
C18    C     0.82680   0.00400   0.36260   0.01267  Uiso   1.00
C19    C     0.64050   0.08340   0.30250   0.01267  Uiso   1.00
C20    C     0.62760   0.12600   0.37720   0.01267  Uiso   1.00
C21    C     0.10000   0.73980   0.34270   0.01267  Uiso   1.00
C22    C     0.30730   0.84000   0.34880   0.01267  Uiso   1.00
C23    C     0.19040   0.55200   0.28190   0.01267  Uiso   1.00
C24    C     0.19930   0.53460   0.35530   0.01267  Uiso   1.00
C25    C     0.08230   0.03700   0.15990   0.01267  Uiso   1.00
C26    C     0.28830   0.14500   0.15450   0.01267  Uiso   1.00
C27    C     0.18270   0.18960   0.26200   0.01267  Uiso   1.00
C28    C     0.27790   0.07880   0.25830   0.01267  Uiso   1.00
C29    C     0.21960   0.25320   0.54430   0.01267  Uiso   1.00
C30    C     0.11140   0.35400   0.54900   0.01267  Uiso   1.00
C31    C     0.39400   0.54640   0.60100   0.01267  Uiso   1.00
C32    C     0.41890   0.56100   0.52720   0.01267  Uiso   1.00
C33    C     0.94540   0.72300   0.56760   0.01267  Uiso   1.00
C34    C     0.73520   0.62320   0.57070   0.01267  Uiso   1.00
C35    C     0.85300   0.47800   0.62950   0.01267  Uiso   1.00
C36    C     0.83910   0.41420   0.55690   0.01267  Uiso   1.00
C37    C     0.46840   0.88880   0.56340   0.01267  Uiso   1.00
C38    C     0.56840   0.09060   0.56260   0.01267  Uiso   1.00
C39    C     0.30160   0.01120   0.62000   0.01267  Uiso   1.00
C40    C     0.24910   0.97940   0.54440   0.01267  Uiso   1.00
C41    C     0.01510   0.49000   0.86570   0.01267  Uiso   1.00
C42    C     0.80430   0.38900   0.86770   0.01267  Uiso   1.00
C43    C     0.90210   0.63860   0.80870   0.01267  Uiso   1.00
C44    C     0.90770   0.70300   0.88340   0.01267  Uiso   1.00
C45    C     0.27570   0.20240   0.85410   0.01267  Uiso   1.00
C46    C     0.17720   0.00400   0.86260   0.01267  Uiso   1.00
C47    C     0.44290   0.08340   0.80250   0.01267  Uiso   1.00
C48    C     0.49840   0.12600   0.87720   0.01267  Uiso   1.00
C49    C     0.63980   0.73980   0.84270   0.01267  Uiso   1.00
C50    C     0.53270   0.84000   0.84880   0.01267  Uiso   1.00
C51    C     0.36160   0.55200   0.78190   0.01267  Uiso   1.00
C52    C     0.33530   0.53460   0.85530   0.01267  Uiso   1.00
C53    C     0.95470   0.03700   0.65990   0.01267  Uiso   1.00
C54    C     0.85670   0.14500   0.65450   0.01267  Uiso   1.00
C55    C     0.00690   0.18960   0.76200   0.01267  Uiso   1.00
C56    C     0.80090   0.07880   0.75830   0.01267  Uiso   1.00
N1     N     0.07270   0.16800   0.03980   0.01267  Uiso   1.00
N2     N     0.20630   0.23720   0.04300   0.01267  Uiso   1.00
N3     N     0.14150   0.36940   0.04960   0.01267  Uiso   1.00
N4     N     0.15700   0.65180   0.09860   0.01267  Uiso   1.00
N5     N     0.15110   0.66200   0.05020   0.01267  Uiso   1.00
N6     N     0.14030   0.48580   0.05770   0.01267  Uiso   1.00
N7     N     0.89460   0.79900   0.05840   0.01267  Uiso   1.00
N8     N     0.96480   0.73580   0.05980   0.01267  Uiso   1.00
N9     N     0.76990   0.61560   0.07590   0.01267  Uiso   1.00
N10    N     0.48320   0.33100   0.07960   0.01267  Uiso   1.00
N11    N     0.51870   0.37560   0.12560   0.01267  Uiso   1.00
N12    N     0.66110   0.50580   0.08780   0.01267  Uiso   1.00
N13    N     0.33680   0.92380   0.05530   0.01267  Uiso   1.00
N14    N     0.40250   0.05360   0.05380   0.01267  Uiso   1.00
N15    N     0.53870   0.99140   0.06760   0.01267  Uiso   1.00
N16    N     0.83000   0.99180   0.06670   0.01267  Uiso   1.00
N17    N     0.81450   0.00840   0.11500   0.01267  Uiso   1.00
N18    N     0.65140   0.99340   0.07640   0.01267  Uiso   1.00
N19    N     0.39640   0.37620   0.37050   0.01267  Uiso   1.00
N20    N     0.46410   0.31180   0.37420   0.01267  Uiso   1.00
N21    N     0.59630   0.50300   0.36240   0.01267  Uiso   1.00
N22    N     0.84330   0.74740   0.31310   0.01267  Uiso   1.00
N23    N     0.87620   0.78700   0.36010   0.01267  Uiso   1.00
N24    N     0.70330   0.60840   0.35350   0.01267  Uiso   1.00
N25    N     0.00950   0.17180   0.36210   0.01267  Uiso   1.00
N26    N     0.94690   0.04520   0.36810   0.01267  Uiso   1.00
N27    N     0.80850   0.10120   0.35460   0.01267  Uiso   1.00
N28    N     0.53390   0.09240   0.30700   0.01267  Uiso   1.00
N29    N     0.52600   0.11180   0.35430   0.01267  Uiso   1.00
N30    N     0.69660   0.10140   0.34430   0.01267  Uiso   1.00
N31    N     0.13890   0.85760   0.35670   0.01267  Uiso   1.00
N32    N     0.27070   0.92400   0.35890   0.01267  Uiso   1.00
N33    N     0.20070   0.72360   0.33830   0.01267  Uiso   1.00
N34    N     0.18280   0.44140   0.28550   0.01267  Uiso   1.00
N35    N     0.19250   0.43480   0.33320   0.01267  Uiso   1.00
N36    N     0.19990   0.61260   0.32500   0.01267  Uiso   1.00
N37    N     0.10190   0.03980   0.11470   0.01267  Uiso   1.00
N38    N     0.23270   0.10760   0.11290   0.01267  Uiso   1.00
N39    N     0.19500   0.10160   0.18440   0.01267  Uiso   1.00
N40    N     0.21470   0.18600   0.30520   0.01267  Uiso   1.00
N41    N     0.27720   0.11600   0.30220   0.01267  Uiso   1.00
N42    N     0.21410   0.11980   0.23270   0.01267  Uiso   1.00
N43    N     0.09530   0.16800   0.53980   0.01267  Uiso   1.00
N44    N     0.03090   0.23720   0.54300   0.01267  Uiso   1.00
N45    N     0.22790   0.36940   0.54960   0.01267  Uiso   1.00
N46    N     0.49480   0.65180   0.59860   0.01267  Uiso   1.00
N47    N     0.51090   0.66200   0.55020   0.01267  Uiso   1.00
N48    N     0.34550   0.48580   0.55770   0.01267  Uiso   1.00
N49    N     0.90440   0.79900   0.55840   0.01267  Uiso   1.00
N50    N     0.77100   0.73580   0.55980   0.01267  Uiso   1.00
N51    N     0.84570   0.61560   0.57590   0.01267  Uiso   1.00
N52    N     0.84780   0.33100   0.57960   0.01267  Uiso   1.00
N53    N     0.85690   0.37560   0.62560   0.01267  Uiso   1.00
N54    N     0.84470   0.50580   0.58780   0.01267  Uiso   1.00
N55    N     0.58700   0.92380   0.55530   0.01267  Uiso   1.00
N56    N     0.65110   0.05360   0.55380   0.01267  Uiso   1.00
N57    N     0.45270   0.99140   0.56760   0.01267  Uiso   1.00
N58    N     0.16180   0.99180   0.56670   0.01267  Uiso   1.00
N59    N     0.19390   0.00840   0.61500   0.01267  Uiso   1.00
N60    N     0.34200   0.99340   0.57640   0.01267  Uiso   1.00
N61    N     0.97980   0.37620   0.87050   0.01267  Uiso   1.00
N62    N     0.84770   0.31180   0.87420   0.01267  Uiso   1.00
N63    N     0.90670   0.50300   0.86240   0.01267  Uiso   1.00
N64    N     0.90410   0.74740   0.81310   0.01267  Uiso   1.00
N65    N     0.91080   0.78700   0.86010   0.01267  Uiso   1.00
N66    N     0.90510   0.60840   0.85350   0.01267  Uiso   1.00
N67    N     0.16230   0.17180   0.86210   0.01267  Uiso   1.00
N68    N     0.09830   0.04520   0.86810   0.01267  Uiso   1.00
N69    N     0.29270   0.10120   0.85460   0.01267  Uiso   1.00
N70    N     0.55850   0.09240   0.80700   0.01267  Uiso   1.00
N71    N     0.58580   0.11180   0.85430   0.01267  Uiso   1.00
N72    N     0.40480   0.10140   0.84430   0.01267  Uiso   1.00
N73    N     0.71870   0.85760   0.85670   0.01267  Uiso   1.00
N74    N     0.65330   0.92400   0.85890   0.01267  Uiso   1.00
N75    N     0.52290   0.72360   0.83830   0.01267  Uiso   1.00
N76    N     0.25860   0.44140   0.78550   0.01267  Uiso   1.00
N77    N     0.24230   0.43480   0.83320   0.01267  Uiso   1.00
N78    N     0.41270   0.61260   0.82500   0.01267  Uiso   1.00
N79    N     0.93790   0.03980   0.61470   0.01267  Uiso   1.00
N80    N     0.87490   0.10760   0.61290   0.01267  Uiso   1.00
N81    N     0.90660   0.10160   0.68440   0.01267  Uiso   1.00
N82    N     0.97130   0.18600   0.80520   0.01267  Uiso   1.00
N83    N     0.83880   0.11600   0.80220   0.01267  Uiso   1.00
N84    N     0.90570   0.11980   0.73270   0.01267  Uiso   1.00
Cl1    Cl    0.87323   0.90526   0.95956   0.01267  Uiso   1.00
Cl2    Cl    0.15280   0.75620   0.95201   0.01267  Uiso   1.00
Cl3    Cl    0.36330   0.17020   0.97210   0.01267  Uiso   1.00
Cl4    Cl    0.19871   0.37042   0.44026   0.01267  Uiso   1.00
Cl5    Cl    0.43920   0.13860   0.46135   0.01267  Uiso   1.00
Cl6    Cl    0.03203   0.90526   0.45956   0.01267  Uiso   1.00
Cl7    Cl    0.60340   0.75620   0.45201   0.01267  Uiso   1.00
Cl8    Cl    0.80690   0.17020   0.47210   0.01267  Uiso   1.00
Cl9    Cl    0.17171   0.37042   0.94026   0.01267  Uiso   1.00
Cl10   Cl    0.69940   0.13860   0.96135   0.01267  Uiso   1.00
O1     O     0.12660   0.95880   0.02250   0.01267  Uiso   1.00
O2     O     0.20780   0.10700   0.39440   0.01267  Uiso   1.00
O3     O     0.83220   0.95880   0.52250   0.01267  Uiso   1.00
O4     O     0.89920   0.10700   0.89440   0.01267  Uiso   1.00
Cl11   Cl    0.53400   0.76060   0.31700   0.01267  Uiso   1.00
Cl12   Cl    0.47700   0.65040   0.06440   0.01267  Uiso   1.00
Cl13   Cl    0.87440   0.44440   0.35450   0.01267  Uiso   1.00
Cl14   Cl    0.45320   0.98340   0.17960   0.01267  Uiso   1.00
Cl15   Cl    0.82650   0.33420   0.10150   0.01267  Uiso   1.00
Cl16   Cl    0.22660   0.76060   0.81700   0.01267  Uiso   1.00
Cl17   Cl    0.17340   0.65040   0.56440   0.01267  Uiso   1.00
Cl18   Cl    0.57000   0.44440   0.85450   0.01267  Uiso   1.00
Cl19   Cl    0.53020   0.98340   0.67960   0.01267  Uiso   1.00
Cl20   Cl    0.50770   0.33420   0.60150   0.01267  Uiso   1.00
