data_WEMBUN_clean
_audit_creation_date              2014-07-02
_audit_creation_method            'Materials Studio'
_symmetry_space_group_name_H-M    'P1'
_symmetry_Int_Tables_number       1
_symmetry_cell_setting            triclinic
loop_
_symmetry_equiv_pos_as_xyz
  x,y,z
_cell_length_a                    9.6103
_cell_length_b                    11.5310
_cell_length_c                    12.2000
_cell_angle_alpha                 90.0000
_cell_angle_beta                  99.0300
_cell_angle_gamma                 90.0000
loop_
_atom_site_label
_atom_site_type_symbol
_atom_site_fract_x
_atom_site_fract_y
_atom_site_fract_z
_atom_site_U_iso_or_equiv
_atom_site_adp_type
_atom_site_occupancy
Er1    Er    0.78491   0.98848   0.66702   0.01267  Uiso   1.00
Er2    Er    0.71509   0.48848   0.83298   0.01267  Uiso   1.00
Er3    Er    0.21509   0.01152   0.33298   0.01267  Uiso   1.00
Er4    Er    0.28491   0.51152   0.16702   0.01267  Uiso   1.00
C1     C     0.79980   0.25850   0.71630   0.01267  Uiso   1.00
C2     C     0.69570   0.21410   0.79220   0.01267  Uiso   1.00
C3     C     0.49600   0.93390   0.50120   0.01267  Uiso   1.00
C4     C     0.06300   0.00070   0.54700   0.01267  Uiso   1.00
C5     C     0.70020   0.75850   0.78370   0.01267  Uiso   1.00
C6     C     0.80430   0.71410   0.70780   0.01267  Uiso   1.00
C7     C     0.00400   0.43390   0.99880   0.01267  Uiso   1.00
C8     C     0.43700   0.50070   0.95300   0.01267  Uiso   1.00
C9     C     0.20020   0.74150   0.28370   0.01267  Uiso   1.00
C10    C     0.30430   0.78590   0.20780   0.01267  Uiso   1.00
C11    C     0.50400   0.06610   0.49880   0.01267  Uiso   1.00
C12    C     0.93700   0.99930   0.45300   0.01267  Uiso   1.00
C13    C     0.29980   0.24150   0.21630   0.01267  Uiso   1.00
C14    C     0.19570   0.28590   0.29220   0.01267  Uiso   1.00
C15    C     0.99600   0.56610   0.00120   0.01267  Uiso   1.00
C16    C     0.56300   0.49930   0.04700   0.01267  Uiso   1.00
O1     O     0.86380   0.18290   0.67020   0.01267  Uiso   1.00
O2     O     0.81140   0.36560   0.70790   0.01267  Uiso   1.00
O3     O     0.67720   0.10700   0.79480   0.01267  Uiso   1.00
O4     O     0.63770   0.29080   0.84330   0.01267  Uiso   1.00
O5     O     0.58820   0.88230   0.56800   0.01267  Uiso   1.00
O6     O     0.39720   0.88770   0.43750   0.01267  Uiso   1.00
O7     O     0.03340   0.99220   0.64420   0.01267  Uiso   1.00
O8     O     0.18220   0.01080   0.52160   0.01267  Uiso   1.00
O9     O     0.63620   0.68290   0.82980   0.01267  Uiso   1.00
O10    O     0.68860   0.86560   0.79210   0.01267  Uiso   1.00
O11    O     0.82280   0.60700   0.70520   0.01267  Uiso   1.00
O12    O     0.86230   0.79080   0.65670   0.01267  Uiso   1.00
O13    O     0.91180   0.38230   0.93200   0.01267  Uiso   1.00
O14    O     0.10280   0.38770   0.06250   0.01267  Uiso   1.00
O15    O     0.46660   0.49220   0.85580   0.01267  Uiso   1.00
O16    O     0.31780   0.51080   0.97840   0.01267  Uiso   1.00
O17    O     0.13620   0.81710   0.32980   0.01267  Uiso   1.00
O18    O     0.18860   0.63440   0.29210   0.01267  Uiso   1.00
O19    O     0.32280   0.89300   0.20520   0.01267  Uiso   1.00
O20    O     0.36230   0.70920   0.15670   0.01267  Uiso   1.00
O21    O     0.41180   0.11770   0.43200   0.01267  Uiso   1.00
O22    O     0.60280   0.11230   0.56250   0.01267  Uiso   1.00
O23    O     0.96660   0.00780   0.35580   0.01267  Uiso   1.00
O24    O     0.81780   0.98920   0.47840   0.01267  Uiso   1.00
O25    O     0.36380   0.31710   0.17020   0.01267  Uiso   1.00
O26    O     0.31140   0.13440   0.20790   0.01267  Uiso   1.00
O27    O     0.17720   0.39300   0.29480   0.01267  Uiso   1.00
O28    O     0.13770   0.20920   0.34330   0.01267  Uiso   1.00
O29    O     0.08820   0.61770   0.06800   0.01267  Uiso   1.00
O30    O     0.89720   0.61230   0.93750   0.01267  Uiso   1.00
O31    O     0.53340   0.50780   0.14420   0.01267  Uiso   1.00
O32    O     0.68220   0.48920   0.02160   0.01267  Uiso   1.00
