data_WEMCIC_clean
_audit_creation_date              2014-07-02
_audit_creation_method            'Materials Studio'
_symmetry_space_group_name_H-M    'P1'
_symmetry_Int_Tables_number       1
_symmetry_cell_setting            triclinic
loop_
_symmetry_equiv_pos_as_xyz
  x,y,z
_cell_length_a                    16.1900
_cell_length_b                    16.4876
_cell_length_c                    16.4876
_cell_angle_alpha                 76.0511
_cell_angle_beta                  60.5953
_cell_angle_gamma                 60.5953
loop_
_atom_site_label
_atom_site_type_symbol
_atom_site_fract_x
_atom_site_fract_y
_atom_site_fract_z
_atom_site_U_iso_or_equiv
_atom_site_adp_type
_atom_site_occupancy
Eu1    Eu    0.61660   0.12156   0.96842   0.01267  Uiso   1.00
Eu2    Eu    0.14929   0.38627   0.97671   0.01267  Uiso   1.00
Eu3    Eu    0.20658   0.37844   0.53157   0.01267  Uiso   1.00
Eu4    Eu    0.01227   0.11373   0.52329   0.01267  Uiso   1.00
Eu5    Eu    0.58502   0.03157   0.62157   0.01267  Uiso   1.00
Eu6    Eu    0.12600   0.02329   0.88627   0.01267  Uiso   1.00
Eu7    Eu    0.73815   0.46843   0.87844   0.01267  Uiso   1.00
Eu8    Eu    0.53556   0.47671   0.61373   0.01267  Uiso   1.00
Eu9    Eu    0.38340   0.87844   0.03158   0.01267  Uiso   1.00
Eu10   Eu    0.85071   0.61373   0.02329   0.01267  Uiso   1.00
Eu11   Eu    0.79342   0.62156   0.46843   0.01267  Uiso   1.00
Eu12   Eu    0.98773   0.88627   0.47671   0.01267  Uiso   1.00
Eu13   Eu    0.41498   0.96843   0.37843   0.01267  Uiso   1.00
Eu14   Eu    0.87400   0.97671   0.11373   0.01267  Uiso   1.00
Eu15   Eu    0.26185   0.53157   0.12156   0.01267  Uiso   1.00
Eu16   Eu    0.46444   0.52329   0.38627   0.01267  Uiso   1.00
H1     H     0.30950   0.24920   0.74840   0.01267  Uiso   1.00
H2     H     0.76530   0.09930   0.71830   0.01267  Uiso   1.00
H3     H     0.80710   0.25080   0.75160   0.01267  Uiso   1.00
H4     H     0.08290   0.40070   0.78170   0.01267  Uiso   1.00
H5     H     0.05790   0.25160   0.74920   0.01267  Uiso   1.00
H6     H     0.48360   0.28170   0.59930   0.01267  Uiso   1.00
H7     H     0.55870   0.24840   0.75080   0.01267  Uiso   1.00
H8     H     0.86460   0.21830   0.90070   0.01267  Uiso   1.00
H9     H     0.69050   0.75080   0.25160   0.01267  Uiso   1.00
H10    H     0.23470   0.90070   0.28170   0.01267  Uiso   1.00
H11    H     0.19290   0.74920   0.24840   0.01267  Uiso   1.00
H12    H     0.91710   0.59930   0.21830   0.01267  Uiso   1.00
H13    H     0.94210   0.74840   0.25080   0.01267  Uiso   1.00
H14    H     0.51640   0.71830   0.40070   0.01267  Uiso   1.00
H15    H     0.44130   0.75160   0.24920   0.01267  Uiso   1.00
H16    H     0.13540   0.78170   0.09930   0.01267  Uiso   1.00
C1     C     0.34640   0.22310   0.78430   0.01267  Uiso   1.00
C2     C     0.38850   0.20280   0.89480   0.01267  Uiso   1.00
C3     C     0.46610   0.13070   0.83070   0.01267  Uiso   1.00
C4     C     0.37030   0.22420   0.98520   0.01267  Uiso   1.00
C5     C     0.56580   0.05170   0.82250   0.01267  Uiso   1.00
C6     C     0.81290   0.08570   0.74130   0.01267  Uiso   1.00
C7     C     0.95600   0.04950   0.74630   0.01267  Uiso   1.00
C8     C     0.87810   0.05770   0.83650   0.01267  Uiso   1.00
C9     C     0.06830   0.03090   0.70630   0.01267  Uiso   1.00
C10    C     0.87200   0.04710   0.93050   0.01267  Uiso   1.00
C11    C     0.85380   0.27690   0.71570   0.01267  Uiso   1.00
C12    C     0.98610   0.29720   0.60520   0.01267  Uiso   1.00
C13    C     0.92750   0.36930   0.66930   0.01267  Uiso   1.00
C14    C     0.07970   0.27580   0.51480   0.01267  Uiso   1.00
C15    C     0.94000   0.44830   0.67750   0.01267  Uiso   1.00
C16    C     0.13990   0.41430   0.75870   0.01267  Uiso   1.00
C17    C     0.25180   0.45050   0.75370   0.01267  Uiso   1.00
C18    C     0.27230   0.44230   0.66350   0.01267  Uiso   1.00
C19    C     0.30550   0.46910   0.79370   0.01267  Uiso   1.00
C20    C     0.34960   0.45290   0.56950   0.01267  Uiso   1.00
C21    C     0.13070   0.21570   0.72310   0.01267  Uiso   1.00
C22    C     0.28330   0.10520   0.70280   0.01267  Uiso   1.00
C23    C     0.29680   0.16930   0.63070   0.01267  Uiso   1.00
C24    C     0.35550   0.01480   0.72420   0.01267  Uiso   1.00
C25    C     0.38830   0.17750   0.55170   0.01267  Uiso   1.00
C26    C     0.55420   0.25870   0.58570   0.01267  Uiso   1.00
C27    C     0.70230   0.25370   0.54950   0.01267  Uiso   1.00
C28    C     0.71460   0.16350   0.55770   0.01267  Uiso   1.00
C29    C     0.77460   0.29370   0.53090   0.01267  Uiso   1.00
C30    C     0.80250   0.06950   0.54710   0.01267  Uiso   1.00
C31    C     0.56950   0.28430   0.77690   0.01267  Uiso   1.00
C32    C     0.59130   0.39480   0.79720   0.01267  Uiso   1.00
C33    C     0.59680   0.33070   0.86930   0.01267  Uiso   1.00
C34    C     0.59450   0.48520   0.77580   0.01267  Uiso   1.00
C35    C     0.61750   0.32250   0.94830   0.01267  Uiso   1.00
C36    C     0.89860   0.24130   0.91430   0.01267  Uiso   1.00
C37    C     0.00550   0.24630   0.95050   0.01267  Uiso   1.00
C38    C     0.93580   0.33650   0.94230   0.01267  Uiso   1.00
C39    C     0.09920   0.20630   0.96910   0.01267  Uiso   1.00
C40    C     0.91910   0.43050   0.95290   0.01267  Uiso   1.00
C41    C     0.65360   0.77690   0.21570   0.01267  Uiso   1.00
C42    C     0.61150   0.79720   0.10520   0.01267  Uiso   1.00
C43    C     0.53390   0.86930   0.16930   0.01267  Uiso   1.00
C44    C     0.62970   0.77580   0.01480   0.01267  Uiso   1.00
C45    C     0.43420   0.94830   0.17750   0.01267  Uiso   1.00
C46    C     0.18710   0.91430   0.25870   0.01267  Uiso   1.00
C47    C     0.04400   0.95050   0.25370   0.01267  Uiso   1.00
C48    C     0.12190   0.94230   0.16350   0.01267  Uiso   1.00
C49    C     0.93170   0.96910   0.29370   0.01267  Uiso   1.00
C50    C     0.12800   0.95290   0.06950   0.01267  Uiso   1.00
C51    C     0.14620   0.72310   0.28430   0.01267  Uiso   1.00
C52    C     0.01390   0.70280   0.39480   0.01267  Uiso   1.00
C53    C     0.07250   0.63070   0.33070   0.01267  Uiso   1.00
C54    C     0.92030   0.72420   0.48520   0.01267  Uiso   1.00
C55    C     0.06000   0.55170   0.32250   0.01267  Uiso   1.00
C56    C     0.86010   0.58570   0.24130   0.01267  Uiso   1.00
C57    C     0.74820   0.54950   0.24630   0.01267  Uiso   1.00
C58    C     0.72770   0.55770   0.33650   0.01267  Uiso   1.00
C59    C     0.69450   0.53090   0.20630   0.01267  Uiso   1.00
C60    C     0.65040   0.54710   0.43050   0.01267  Uiso   1.00
C61    C     0.86930   0.78430   0.27690   0.01267  Uiso   1.00
C62    C     0.71670   0.89480   0.29720   0.01267  Uiso   1.00
C63    C     0.70320   0.83070   0.36930   0.01267  Uiso   1.00
C64    C     0.64450   0.98520   0.27580   0.01267  Uiso   1.00
C65    C     0.61170   0.82250   0.44830   0.01267  Uiso   1.00
C66    C     0.44580   0.74130   0.41430   0.01267  Uiso   1.00
C67    C     0.29770   0.74630   0.45050   0.01267  Uiso   1.00
C68    C     0.28540   0.83650   0.44230   0.01267  Uiso   1.00
C69    C     0.22540   0.70630   0.46910   0.01267  Uiso   1.00
C70    C     0.19750   0.93050   0.45290   0.01267  Uiso   1.00
C71    C     0.43050   0.71570   0.22310   0.01267  Uiso   1.00
C72    C     0.40870   0.60520   0.20280   0.01267  Uiso   1.00
C73    C     0.40320   0.66930   0.13070   0.01267  Uiso   1.00
C74    C     0.40550   0.51480   0.22420   0.01267  Uiso   1.00
C75    C     0.38250   0.67750   0.05170   0.01267  Uiso   1.00
C76    C     0.10140   0.75870   0.08570   0.01267  Uiso   1.00
C77    C     0.99450   0.75370   0.04950   0.01267  Uiso   1.00
C78    C     0.06420   0.66350   0.05770   0.01267  Uiso   1.00
C79    C     0.90080   0.79370   0.03090   0.01267  Uiso   1.00
C80    C     0.08090   0.56950   0.04710   0.01267  Uiso   1.00
N1     N     0.43750   0.14500   0.75960   0.01267  Uiso   1.00
N2     N     0.31320   0.26010   0.86450   0.01267  Uiso   1.00
N3     N     0.78550   0.08250   0.83210   0.01267  Uiso   1.00
N4     N     0.91320   0.06790   0.68650   0.01267  Uiso   1.00
N5     N     0.84210   0.35500   0.74040   0.01267  Uiso   1.00
N6     N     0.93780   0.23990   0.63550   0.01267  Uiso   1.00
N7     N     0.20010   0.41750   0.66790   0.01267  Uiso   1.00
N8     N     0.16760   0.43210   0.81350   0.01267  Uiso   1.00
N9     N     0.19710   0.24040   0.64500   0.01267  Uiso   1.00
N10    N     0.17770   0.13550   0.76010   0.01267  Uiso   1.00
N11    N     0.61760   0.16790   0.58250   0.01267  Uiso   1.00
N12    N     0.59970   0.31350   0.56790   0.01267  Uiso   1.00
N13    N     0.58250   0.25960   0.85500   0.01267  Uiso   1.00
N14    N     0.57330   0.36450   0.73990   0.01267  Uiso   1.00
N15    N     0.86800   0.33210   0.91750   0.01267  Uiso   1.00
N16    N     0.98110   0.18650   0.93210   0.01267  Uiso   1.00
N17    N     0.56250   0.85500   0.24040   0.01267  Uiso   1.00
N18    N     0.68680   0.73990   0.13550   0.01267  Uiso   1.00
N19    N     0.21450   0.91750   0.16790   0.01267  Uiso   1.00
N20    N     0.08680   0.93210   0.31350   0.01267  Uiso   1.00
N21    N     0.15790   0.64500   0.25960   0.01267  Uiso   1.00
N22    N     0.06220   0.76010   0.36450   0.01267  Uiso   1.00
N23    N     0.79990   0.58250   0.33210   0.01267  Uiso   1.00
N24    N     0.83240   0.56790   0.18650   0.01267  Uiso   1.00
N25    N     0.80290   0.75960   0.35500   0.01267  Uiso   1.00
N26    N     0.82230   0.86450   0.23990   0.01267  Uiso   1.00
N27    N     0.38240   0.83210   0.41750   0.01267  Uiso   1.00
N28    N     0.40030   0.68650   0.43210   0.01267  Uiso   1.00
N29    N     0.41750   0.74040   0.14500   0.01267  Uiso   1.00
N30    N     0.42670   0.63550   0.26010   0.01267  Uiso   1.00
N31    N     0.13200   0.66790   0.08250   0.01267  Uiso   1.00
N32    N     0.01890   0.81350   0.06790   0.01267  Uiso   1.00
O1     O     0.60570   0.04580   0.87280   0.01267  Uiso   1.00
O2     O     0.60880   0.99080   0.76080   0.01267  Uiso   1.00
O3     O     0.43590   0.17920   0.01860   0.01267  Uiso   1.00
O4     O     0.28220   0.29200   0.02980   0.01267  Uiso   1.00
O5     O     0.11110   0.04250   0.61770   0.01267  Uiso   1.00
O6     O     0.11420   0.00560   0.75580   0.01267  Uiso   1.00
O7     O     0.78120   0.06890   0.99890   0.01267  Uiso   1.00
O8     O     0.95420   0.01460   0.94400   0.01267  Uiso   1.00
O9     O     0.02430   0.45420   0.62720   0.01267  Uiso   1.00
O10    O     0.86040   0.50920   0.73920   0.01267  Uiso   1.00
O11    O     0.13370   0.32080   0.48140   0.01267  Uiso   1.00
O12    O     0.10400   0.20800   0.47020   0.01267  Uiso   1.00
O13    O     0.27130   0.45750   0.88230   0.01267  Uiso   1.00
O14    O     0.37560   0.49440   0.74420   0.01267  Uiso   1.00
O15    O     0.34900   0.43110   0.50110   0.01267  Uiso   1.00
O16    O     0.41280   0.48540   0.55600   0.01267  Uiso   1.00
O17    O     0.47850   0.12720   0.54580   0.01267  Uiso   1.00
O18    O     0.36960   0.23920   0.49080   0.01267  Uiso   1.00
O19    O     0.45450   0.98140   0.67920   0.01267  Uiso   1.00
O20    O     0.31200   0.97020   0.79200   0.01267  Uiso   1.00
O21    O     0.72880   0.38230   0.54250   0.01267  Uiso   1.00
O22    O     0.87000   0.24420   0.50560   0.01267  Uiso   1.00
O23    O     0.78010   0.00110   0.56890   0.01267  Uiso   1.00
O24    O     0.89820   0.05600   0.51460   0.01267  Uiso   1.00
O25    O     0.65150   0.37280   0.95420   0.01267  Uiso   1.00
O26    O     0.59960   0.26080   0.00920   0.01267  Uiso   1.00
O27    O     0.61510   0.51860   0.82080   0.01267  Uiso   1.00
O28    O     0.57420   0.52980   0.70800   0.01267  Uiso   1.00
O29    O     0.15360   0.11770   0.95750   0.01267  Uiso   1.00
O30    O     0.11980   0.25580   0.99440   0.01267  Uiso   1.00
O31    O     0.85010   0.49890   0.93110   0.01267  Uiso   1.00
O32    O     0.96880   0.44400   0.98540   0.01267  Uiso   1.00
O33    O     0.39430   0.95420   0.12720   0.01267  Uiso   1.00
O34    O     0.39120   0.00920   0.23920   0.01267  Uiso   1.00
O35    O     0.56410   0.82080   0.98140   0.01267  Uiso   1.00
O36    O     0.71780   0.70800   0.97020   0.01267  Uiso   1.00
O37    O     0.88890   0.95750   0.38230   0.01267  Uiso   1.00
O38    O     0.88580   0.99440   0.24420   0.01267  Uiso   1.00
O39    O     0.21880   0.93110   0.00110   0.01267  Uiso   1.00
O40    O     0.04580   0.98540   0.05600   0.01267  Uiso   1.00
O41    O     0.97570   0.54580   0.37280   0.01267  Uiso   1.00
O42    O     0.13960   0.49080   0.26080   0.01267  Uiso   1.00
O43    O     0.86630   0.67920   0.51860   0.01267  Uiso   1.00
O44    O     0.89600   0.79200   0.52980   0.01267  Uiso   1.00
O45    O     0.72870   0.54250   0.11770   0.01267  Uiso   1.00
O46    O     0.62440   0.50560   0.25580   0.01267  Uiso   1.00
O47    O     0.65100   0.56890   0.49890   0.01267  Uiso   1.00
O48    O     0.58720   0.51460   0.44400   0.01267  Uiso   1.00
O49    O     0.52150   0.87280   0.45420   0.01267  Uiso   1.00
O50    O     0.63040   0.76080   0.50920   0.01267  Uiso   1.00
O51    O     0.54550   0.01860   0.32080   0.01267  Uiso   1.00
O52    O     0.68800   0.02980   0.20800   0.01267  Uiso   1.00
O53    O     0.27120   0.61770   0.45750   0.01267  Uiso   1.00
O54    O     0.13000   0.75580   0.49440   0.01267  Uiso   1.00
O55    O     0.21990   0.99890   0.43110   0.01267  Uiso   1.00
O56    O     0.10180   0.94400   0.48540   0.01267  Uiso   1.00
O57    O     0.34850   0.62720   0.04580   0.01267  Uiso   1.00
O58    O     0.40040   0.73920   0.99080   0.01267  Uiso   1.00
O59    O     0.38490   0.48140   0.17920   0.01267  Uiso   1.00
O60    O     0.42580   0.47020   0.29200   0.01267  Uiso   1.00
O61    O     0.84640   0.88230   0.04250   0.01267  Uiso   1.00
O62    O     0.88020   0.74420   0.00560   0.01267  Uiso   1.00
O63    O     0.14990   0.50110   0.06890   0.01267  Uiso   1.00
O64    O     0.03120   0.55600   0.01460   0.01267  Uiso   1.00
