data_WEMCEY_clean
_audit_creation_date              2014-07-02
_audit_creation_method            'Materials Studio'
_symmetry_space_group_name_H-M    'P1'
_symmetry_Int_Tables_number       1
_symmetry_cell_setting            triclinic
loop_
_symmetry_equiv_pos_as_xyz
  x,y,z
_cell_length_a                    16.2260
_cell_length_b                    16.5641
_cell_length_c                    16.5641
_cell_angle_alpha                 76.1195
_cell_angle_beta                  60.6730
_cell_angle_gamma                 60.6730
loop_
_atom_site_label
_atom_site_type_symbol
_atom_site_fract_x
_atom_site_fract_y
_atom_site_fract_z
_atom_site_U_iso_or_equiv
_atom_site_adp_type
_atom_site_occupancy
Sm1    Sm    0.70511   0.53254   0.37980   0.01267  Uiso   1.00
Sm2    Sm    0.62595   0.88674   0.02394   0.01267  Uiso   1.00
Sm3    Sm    0.11745   0.96746   0.12021   0.01267  Uiso   1.00
Sm4    Sm    0.03663   0.61326   0.47606   0.01267  Uiso   1.00
Sm5    Sm    0.08492   0.62020   0.03253   0.01267  Uiso   1.00
Sm6    Sm    0.64989   0.97606   0.38674   0.01267  Uiso   1.00
Sm7    Sm    0.23765   0.87980   0.46746   0.01267  Uiso   1.00
Sm8    Sm    0.51269   0.52394   0.11326   0.01267  Uiso   1.00
Sm9    Sm    0.29489   0.46746   0.62020   0.01267  Uiso   1.00
Sm10   Sm    0.37405   0.11326   0.97606   0.01267  Uiso   1.00
Sm11   Sm    0.88255   0.03254   0.87979   0.01267  Uiso   1.00
Sm12   Sm    0.96337   0.38674   0.52394   0.01267  Uiso   1.00
Sm13   Sm    0.91509   0.37979   0.96747   0.01267  Uiso   1.00
Sm14   Sm    0.35011   0.02394   0.61326   0.01267  Uiso   1.00
Sm15   Sm    0.76234   0.12021   0.53254   0.01267  Uiso   1.00
Sm16   Sm    0.48731   0.47606   0.88674   0.01267  Uiso   1.00
H1     H     0.55860   0.74860   0.25320   0.01267  Uiso   1.00
H2     H     0.58340   0.78230   0.40030   0.01267  Uiso   1.00
H3     H     0.06040   0.75140   0.24680   0.01267  Uiso   1.00
H4     H     0.26600   0.71770   0.09970   0.01267  Uiso   1.00
H5     H     0.81180   0.74680   0.24860   0.01267  Uiso   1.00
H6     H     0.98370   0.59970   0.28230   0.01267  Uiso   1.00
H7     H     0.30720   0.75320   0.25140   0.01267  Uiso   1.00
H8     H     0.36570   0.90030   0.21770   0.01267  Uiso   1.00
H9     H     0.44140   0.25140   0.74680   0.01267  Uiso   1.00
H10    H     0.41660   0.21770   0.59970   0.01267  Uiso   1.00
H11    H     0.93960   0.24860   0.75320   0.01267  Uiso   1.00
H12    H     0.73400   0.28230   0.90030   0.01267  Uiso   1.00
H13    H     0.18820   0.25320   0.75140   0.01267  Uiso   1.00
H14    H     0.01630   0.40030   0.71770   0.01267  Uiso   1.00
H15    H     0.69280   0.24680   0.74860   0.01267  Uiso   1.00
H16    H     0.63430   0.09970   0.78230   0.01267  Uiso   1.00
C1     C     0.63120   0.72260   0.21720   0.01267  Uiso   1.00
C2     C     0.78260   0.70270   0.10630   0.01267  Uiso   1.00
C3     C     0.79480   0.63250   0.17050   0.01267  Uiso   1.00
C4     C     0.85550   0.72390   0.01590   0.01267  Uiso   1.00
C5     C     0.88680   0.55240   0.17900   0.01267  Uiso   1.00
C6     C     0.63970   0.75910   0.41470   0.01267  Uiso   1.00
C7     C     0.77210   0.66370   0.44290   0.01267  Uiso   1.00
C8     C     0.75190   0.75350   0.45170   0.01267  Uiso   1.00
C9     C     0.84890   0.57050   0.45310   0.01267  Uiso   1.00
C10    C     0.80540   0.79400   0.46940   0.01267  Uiso   1.00
C11    C     0.07100   0.77740   0.28280   0.01267  Uiso   1.00
C12    C     0.09160   0.79730   0.39370   0.01267  Uiso   1.00
C13    C     0.09780   0.86750   0.32950   0.01267  Uiso   1.00
C14    C     0.09530   0.77610   0.48410   0.01267  Uiso   1.00
C15    C     0.11820   0.94760   0.32100   0.01267  Uiso   1.00
C16    C     0.31350   0.74090   0.08530   0.01267  Uiso   1.00
C17    C     0.37870   0.83630   0.05710   0.01267  Uiso   1.00
C18    C     0.45710   0.74650   0.04830   0.01267  Uiso   1.00
C19    C     0.37250   0.92950   0.04690   0.01267  Uiso   1.00
C20    C     0.56880   0.70600   0.03060   0.01267  Uiso   1.00
C21    C     0.84840   0.78280   0.22260   0.01267  Uiso   1.00
C22    C     0.88890   0.89370   0.20270   0.01267  Uiso   1.00
C23    C     0.96530   0.82950   0.13250   0.01267  Uiso   1.00
C24    C     0.87140   0.98410   0.22390   0.01267  Uiso   1.00
C25    C     0.06580   0.82100   0.05240   0.01267  Uiso   1.00
C26    C     0.05440   0.58530   0.25910   0.01267  Uiso   1.00
C27    C     0.21500   0.55710   0.16370   0.01267  Uiso   1.00
C28    C     0.20360   0.54830   0.25350   0.01267  Uiso   1.00
C29    C     0.30200   0.54690   0.07050   0.01267  Uiso   1.00
C30    C     0.27480   0.53060   0.29400   0.01267  Uiso   1.00
C31    C     0.35380   0.71720   0.27740   0.01267  Uiso   1.00
C32    C     0.48530   0.60630   0.29730   0.01267  Uiso   1.00
C33    C     0.42730   0.67050   0.36750   0.01267  Uiso   1.00
C34    C     0.57940   0.51590   0.27610   0.01267  Uiso   1.00
C35    C     0.43920   0.67900   0.44760   0.01267  Uiso   1.00
C36    C     0.39880   0.91470   0.24090   0.01267  Uiso   1.00
C37    C     0.43580   0.94290   0.33630   0.01267  Uiso   1.00
C38    C     0.50540   0.95170   0.24650   0.01267  Uiso   1.00
C39    C     0.41940   0.95310   0.42950   0.01267  Uiso   1.00
C40    C     0.59940   0.96940   0.20600   0.01267  Uiso   1.00
C41    C     0.36880   0.27740   0.78280   0.01267  Uiso   1.00
C42    C     0.21740   0.29730   0.89370   0.01267  Uiso   1.00
C43    C     0.20520   0.36750   0.82950   0.01267  Uiso   1.00
C44    C     0.14450   0.27610   0.98410   0.01267  Uiso   1.00
C45    C     0.11320   0.44760   0.82100   0.01267  Uiso   1.00
C46    C     0.36030   0.24090   0.58530   0.01267  Uiso   1.00
C47    C     0.22790   0.33630   0.55710   0.01267  Uiso   1.00
C48    C     0.24810   0.24650   0.54830   0.01267  Uiso   1.00
C49    C     0.15110   0.42950   0.54690   0.01267  Uiso   1.00
C50    C     0.19460   0.20600   0.53060   0.01267  Uiso   1.00
C51    C     0.92900   0.22260   0.71720   0.01267  Uiso   1.00
C52    C     0.90840   0.20270   0.60630   0.01267  Uiso   1.00
C53    C     0.90220   0.13250   0.67050   0.01267  Uiso   1.00
C54    C     0.90470   0.22390   0.51590   0.01267  Uiso   1.00
C55    C     0.88180   0.05240   0.67900   0.01267  Uiso   1.00
C56    C     0.68650   0.25910   0.91470   0.01267  Uiso   1.00
C57    C     0.62130   0.16370   0.94290   0.01267  Uiso   1.00
C58    C     0.54290   0.25350   0.95170   0.01267  Uiso   1.00
C59    C     0.62750   0.07050   0.95310   0.01267  Uiso   1.00
C60    C     0.43120   0.29400   0.96940   0.01267  Uiso   1.00
C61    C     0.15160   0.21720   0.77740   0.01267  Uiso   1.00
C62    C     0.11110   0.10630   0.79730   0.01267  Uiso   1.00
C63    C     0.03470   0.17050   0.86750   0.01267  Uiso   1.00
C64    C     0.12860   0.01590   0.77610   0.01267  Uiso   1.00
C65    C     0.93420   0.17900   0.94760   0.01267  Uiso   1.00
C66    C     0.94560   0.41470   0.74090   0.01267  Uiso   1.00
C67    C     0.78500   0.44290   0.83630   0.01267  Uiso   1.00
C68    C     0.79640   0.45170   0.74650   0.01267  Uiso   1.00
C69    C     0.69800   0.45310   0.92950   0.01267  Uiso   1.00
C70    C     0.72520   0.46940   0.70600   0.01267  Uiso   1.00
C71    C     0.64620   0.28280   0.72260   0.01267  Uiso   1.00
C72    C     0.51470   0.39370   0.70270   0.01267  Uiso   1.00
C73    C     0.57270   0.32950   0.63250   0.01267  Uiso   1.00
C74    C     0.42060   0.48410   0.72390   0.01267  Uiso   1.00
C75    C     0.56080   0.32100   0.55240   0.01267  Uiso   1.00
C76    C     0.60120   0.08530   0.75910   0.01267  Uiso   1.00
C77    C     0.56420   0.05710   0.66370   0.01267  Uiso   1.00
C78    C     0.49460   0.04830   0.75350   0.01267  Uiso   1.00
C79    C     0.58060   0.04690   0.57050   0.01267  Uiso   1.00
C80    C     0.40060   0.03060   0.79400   0.01267  Uiso   1.00
N1     N     0.69710   0.64530   0.24170   0.01267  Uiso   1.00
N2     N     0.67720   0.76030   0.13650   0.01267  Uiso   1.00
N3     N     0.66810   0.81330   0.43290   0.01267  Uiso   1.00
N4     N     0.69950   0.66810   0.41890   0.01267  Uiso   1.00
N5     N     0.08410   0.85470   0.25830   0.01267  Uiso   1.00
N6     N     0.07400   0.73970   0.36350   0.01267  Uiso   1.00
N7     N     0.41430   0.68670   0.06710   0.01267  Uiso   1.00
N8     N     0.28650   0.83190   0.08110   0.01267  Uiso   1.00
N9     N     0.93880   0.75830   0.14530   0.01267  Uiso   1.00
N10    N     0.81370   0.86350   0.26030   0.01267  Uiso   1.00
N11    N     0.10100   0.56710   0.31330   0.01267  Uiso   1.00
N12    N     0.11840   0.58110   0.16810   0.01267  Uiso   1.00
N13    N     0.34240   0.74170   0.35470   0.01267  Uiso   1.00
N14    N     0.43750   0.63650   0.23970   0.01267  Uiso   1.00
N15    N     0.48140   0.93290   0.18670   0.01267  Uiso   1.00
N16    N     0.36760   0.91890   0.33190   0.01267  Uiso   1.00
N17    N     0.30290   0.35470   0.75830   0.01267  Uiso   1.00
N18    N     0.32280   0.23970   0.86350   0.01267  Uiso   1.00
N19    N     0.33190   0.18670   0.56710   0.01267  Uiso   1.00
N20    N     0.30050   0.33190   0.58110   0.01267  Uiso   1.00
N21    N     0.91590   0.14530   0.74170   0.01267  Uiso   1.00
N22    N     0.92600   0.26030   0.63650   0.01267  Uiso   1.00
N23    N     0.58570   0.31330   0.93290   0.01267  Uiso   1.00
N24    N     0.71350   0.16810   0.91890   0.01267  Uiso   1.00
N25    N     0.06120   0.24170   0.85470   0.01267  Uiso   1.00
N26    N     0.18630   0.13650   0.73970   0.01267  Uiso   1.00
N27    N     0.89900   0.43290   0.68670   0.01267  Uiso   1.00
N28    N     0.88160   0.41890   0.83190   0.01267  Uiso   1.00
N29    N     0.65760   0.25830   0.64530   0.01267  Uiso   1.00
N30    N     0.56250   0.36350   0.76030   0.01267  Uiso   1.00
N31    N     0.51860   0.06710   0.81330   0.01267  Uiso   1.00
N32    N     0.63240   0.08110   0.66810   0.01267  Uiso   1.00
O1     O     0.86740   0.49280   0.24120   0.01267  Uiso   1.00
O2     O     0.97700   0.54570   0.12890   0.01267  Uiso   1.00
O3     O     0.95310   0.67840   0.98340   0.01267  Uiso   1.00
O4     O     0.81190   0.79239   0.97201   0.01267  Uiso   1.00
O5     O     0.84746   0.50223   0.43245   0.01267  Uiso   1.00
O6     O     0.91268   0.55585   0.48499   0.01267  Uiso   1.00
O7     O     0.87610   0.74390   0.49450   0.01267  Uiso   1.00
O8     O     0.77290   0.88080   0.45760   0.01267  Uiso   1.00
O9     O     0.10140   0.00720   0.25880   0.01267  Uiso   1.00
O10    O     0.15160   0.95430   0.37110   0.01267  Uiso   1.00
O11    O     0.11490   0.82160   0.51660   0.01267  Uiso   1.00
O12    O     0.07630   0.70761   0.52799   0.01267  Uiso   1.00
O13    O     0.28214   0.99777   0.06755   0.01267  Uiso   1.00
O14    O     0.45352   0.94415   0.01501   0.01267  Uiso   1.00
O15    O     0.61450   0.75610   0.00550   0.01267  Uiso   1.00
O16    O     0.61130   0.61920   0.04240   0.01267  Uiso   1.00
O17    O     0.10860   0.75880   0.99280   0.01267  Uiso   1.00
O18    O     0.10590   0.87110   0.04570   0.01267  Uiso   1.00
O19    O     0.93650   0.01660   0.17840   0.01267  Uiso   1.00
O20    O     0.78391   0.02799   0.29239   0.01267  Uiso   1.00
O21    O     0.27991   0.56755   0.00223   0.01267  Uiso   1.00
O22    O     0.39767   0.51501   0.05585   0.01267  Uiso   1.00
O23    O     0.37060   0.50550   0.24390   0.01267  Uiso   1.00
O24    O     0.23050   0.54240   0.38080   0.01267  Uiso   1.00
O25    O     0.36020   0.74120   0.50720   0.01267  Uiso   1.00
O26    O     0.52270   0.62890   0.45430   0.01267  Uiso   1.00
O27    O     0.63150   0.48340   0.32160   0.01267  Uiso   1.00
O28    O     0.60429   0.47201   0.20761   0.01267  Uiso   1.00
O29    O     0.34969   0.93245   0.49777   0.01267  Uiso   1.00
O30    O     0.46853   0.98499   0.44415   0.01267  Uiso   1.00
O31    O     0.62000   0.99450   0.25610   0.01267  Uiso   1.00
O32    O     0.65370   0.95760   0.11920   0.01267  Uiso   1.00
O33    O     0.13260   0.50720   0.75880   0.01267  Uiso   1.00
O34    O     0.02300   0.45430   0.87110   0.01267  Uiso   1.00
O35    O     0.04690   0.32160   0.01660   0.01267  Uiso   1.00
O36    O     0.18810   0.20761   0.02799   0.01267  Uiso   1.00
O37    O     0.15254   0.49777   0.56755   0.01267  Uiso   1.00
O38    O     0.08732   0.44415   0.51501   0.01267  Uiso   1.00
O39    O     0.12390   0.25610   0.50550   0.01267  Uiso   1.00
O40    O     0.22710   0.11920   0.54240   0.01267  Uiso   1.00
O41    O     0.89860   0.99280   0.74120   0.01267  Uiso   1.00
O42    O     0.84840   0.04570   0.62890   0.01267  Uiso   1.00
O43    O     0.88510   0.17840   0.48340   0.01267  Uiso   1.00
O44    O     0.92370   0.29239   0.47201   0.01267  Uiso   1.00
O45    O     0.71786   0.00223   0.93245   0.01267  Uiso   1.00
O46    O     0.54648   0.05585   0.98499   0.01267  Uiso   1.00
O47    O     0.38550   0.24390   0.99450   0.01267  Uiso   1.00
O48    O     0.38870   0.38080   0.95760   0.01267  Uiso   1.00
O49    O     0.89140   0.24120   0.00720   0.01267  Uiso   1.00
O50    O     0.89410   0.12890   0.95430   0.01267  Uiso   1.00
O51    O     0.06350   0.98340   0.82160   0.01267  Uiso   1.00
O52    O     0.21609   0.97201   0.70761   0.01267  Uiso   1.00
O53    O     0.72009   0.43245   0.99777   0.01267  Uiso   1.00
O54    O     0.60233   0.48499   0.94415   0.01267  Uiso   1.00
O55    O     0.62940   0.49450   0.75610   0.01267  Uiso   1.00
O56    O     0.76950   0.45760   0.61920   0.01267  Uiso   1.00
O57    O     0.63980   0.25880   0.49280   0.01267  Uiso   1.00
O58    O     0.47730   0.37110   0.54570   0.01267  Uiso   1.00
O59    O     0.36850   0.51660   0.67840   0.01267  Uiso   1.00
O60    O     0.39571   0.52799   0.79239   0.01267  Uiso   1.00
O61    O     0.65031   0.06755   0.50223   0.01267  Uiso   1.00
O62    O     0.53147   0.01501   0.55585   0.01267  Uiso   1.00
O63    O     0.38000   0.00550   0.74390   0.01267  Uiso   1.00
O64    O     0.34630   0.04240   0.88080   0.01267  Uiso   1.00
