data_WEMFAX_clean
_audit_creation_date              2014-07-02
_audit_creation_method            'Materials Studio'
_symmetry_space_group_name_H-M    'P1'
_symmetry_Int_Tables_number       1
_symmetry_cell_setting            triclinic
loop_
_symmetry_equiv_pos_as_xyz
  x,y,z
_cell_length_a                    9.6590
_cell_length_b                    11.7180
_cell_length_c                    12.2810
_cell_angle_alpha                 90.0000
_cell_angle_beta                  99.2000
_cell_angle_gamma                 90.0000
loop_
_atom_site_label
_atom_site_type_symbol
_atom_site_fract_x
_atom_site_fract_y
_atom_site_fract_z
_atom_site_U_iso_or_equiv
_atom_site_adp_type
_atom_site_occupancy
Gd1    Gd    0.78595   0.48520   0.66865   0.01267  Uiso   1.00
Gd2    Gd    0.71405   0.98520   0.83135   0.01267  Uiso   1.00
Gd3    Gd    0.21405   0.51480   0.33135   0.01267  Uiso   1.00
Gd4    Gd    0.28595   0.01480   0.16865   0.01267  Uiso   1.00
C1     C     0.80140   0.21080   0.70620   0.01267  Uiso   1.00
C2     C     0.70060   0.25460   0.78320   0.01267  Uiso   1.00
C3     C     0.06290   0.49950   0.54750   0.01267  Uiso   1.00
C4     C     0.49470   0.43400   0.50010   0.01267  Uiso   1.00
C5     C     0.69860   0.71080   0.79380   0.01267  Uiso   1.00
C6     C     0.79940   0.75460   0.71680   0.01267  Uiso   1.00
C7     C     0.43710   0.99950   0.95250   0.01267  Uiso   1.00
C8     C     0.00530   0.93400   0.99990   0.01267  Uiso   1.00
C9     C     0.19860   0.78920   0.29380   0.01267  Uiso   1.00
C10    C     0.29940   0.74540   0.21680   0.01267  Uiso   1.00
C11    C     0.93710   0.50050   0.45250   0.01267  Uiso   1.00
C12    C     0.50530   0.56600   0.49990   0.01267  Uiso   1.00
C13    C     0.30140   0.28920   0.20620   0.01267  Uiso   1.00
C14    C     0.20060   0.24540   0.28320   0.01267  Uiso   1.00
C15    C     0.56290   0.00050   0.04750   0.01267  Uiso   1.00
C16    C     0.99470   0.06600   0.00010   0.01267  Uiso   1.00
O1     O     0.86030   0.28570   0.65610   0.01267  Uiso   1.00
O2     O     0.81730   0.10530   0.70100   0.01267  Uiso   1.00
O3     O     0.69160   0.36050   0.79400   0.01267  Uiso   1.00
O4     O     0.63450   0.18090   0.82770   0.01267  Uiso   1.00
O5     O     0.03340   0.48750   0.64290   0.01267  Uiso   1.00
O6     O     0.18140   0.51180   0.52250   0.01267  Uiso   1.00
O7     O     0.58450   0.38200   0.56630   0.01267  Uiso   1.00
O8     O     0.39800   0.39000   0.43420   0.01267  Uiso   1.00
O9     O     0.63970   0.78570   0.84390   0.01267  Uiso   1.00
O10    O     0.68270   0.60530   0.79900   0.01267  Uiso   1.00
O11    O     0.80840   0.86050   0.70600   0.01267  Uiso   1.00
O12    O     0.86550   0.68090   0.67230   0.01267  Uiso   1.00
O13    O     0.46660   0.98750   0.85710   0.01267  Uiso   1.00
O14    O     0.31860   0.01180   0.97750   0.01267  Uiso   1.00
O15    O     0.91550   0.88200   0.93370   0.01267  Uiso   1.00
O16    O     0.10200   0.89000   0.06580   0.01267  Uiso   1.00
O17    O     0.13970   0.71430   0.34390   0.01267  Uiso   1.00
O18    O     0.18270   0.89470   0.29900   0.01267  Uiso   1.00
O19    O     0.30840   0.63950   0.20600   0.01267  Uiso   1.00
O20    O     0.36550   0.81910   0.17230   0.01267  Uiso   1.00
O21    O     0.96660   0.51250   0.35710   0.01267  Uiso   1.00
O22    O     0.81860   0.48820   0.47750   0.01267  Uiso   1.00
O23    O     0.41550   0.61800   0.43370   0.01267  Uiso   1.00
O24    O     0.60200   0.61000   0.56580   0.01267  Uiso   1.00
O25    O     0.36030   0.21430   0.15610   0.01267  Uiso   1.00
O26    O     0.31730   0.39470   0.20100   0.01267  Uiso   1.00
O27    O     0.19160   0.13950   0.29400   0.01267  Uiso   1.00
O28    O     0.13450   0.31910   0.32770   0.01267  Uiso   1.00
O29    O     0.53340   0.01250   0.14290   0.01267  Uiso   1.00
O30    O     0.68140   0.98820   0.02250   0.01267  Uiso   1.00
O31    O     0.08450   0.11800   0.06630   0.01267  Uiso   1.00
O32    O     0.89800   0.11000   0.93420   0.01267  Uiso   1.00
