data_WEMHED_clean
_audit_creation_date              2014-07-02
_audit_creation_method            'Materials Studio'
_symmetry_space_group_name_H-M    'P1'
_symmetry_Int_Tables_number       1
_symmetry_cell_setting            triclinic
loop_
_symmetry_equiv_pos_as_xyz
  x,y,z
_cell_length_a                    12.2538
_cell_length_b                    12.2538
_cell_length_c                    23.0775
_cell_angle_alpha                 86.8991
_cell_angle_beta                  86.8991
_cell_angle_gamma                 66.5115
loop_
_atom_site_label
_atom_site_type_symbol
_atom_site_fract_x
_atom_site_fract_y
_atom_site_fract_z
_atom_site_U_iso_or_equiv
_atom_site_adp_type
_atom_site_occupancy
Cd1    Cd    0.47531   0.94675   0.26783   0.01267  Uiso   1.00
Cd2    Cd    0.05325   0.52469   0.23217   0.01267  Uiso   1.00
Cd3    Cd    0.52469   0.05325   0.73217   0.01267  Uiso   1.00
Cd4    Cd    0.94675   0.47531   0.76783   0.01267  Uiso   1.00
H1     H     0.46060   0.64360   0.14110   0.01267  Uiso   1.00
H2     H     0.50040   0.54540   0.05560   0.01267  Uiso   1.00
H3     H     0.69370   0.45570   0.01830   0.01267  Uiso   1.00
H4     H     0.84840   0.46700   0.06750   0.01267  Uiso   1.00
H5     H     0.34530   0.86470   0.15780   0.01267  Uiso   1.00
H6     H     0.24410   0.18410   0.20800   0.01267  Uiso   1.00
H7     H     0.06290   0.28650   0.13950   0.01267  Uiso   1.00
H8     H     0.14180   0.24960   0.08240   0.01267  Uiso   1.00
H9     H     0.87690   0.30290   0.19050   0.01267  Uiso   1.00
H10    H     0.84330   0.19290   0.20260   0.01267  Uiso   1.00
H11    H     0.97740   0.17520   0.19880   0.01267  Uiso   1.00
H12    H     0.10810   0.25110   0.97850   0.01267  Uiso   1.00
H13    H     0.18840   0.13440   0.01220   0.01267  Uiso   1.00
H14    H     0.12550   0.12650   0.95610   0.01267  Uiso   1.00
H15    H     0.65170   0.23650   0.99820   0.01267  Uiso   1.00
H16    H     0.73580   0.11320   0.97350   0.01267  Uiso   1.00
H17    H     0.67420   0.11900   0.03530   0.01267  Uiso   1.00
H18    H     0.62610   0.25790   0.10180   0.01267  Uiso   1.00
H19    H     0.68400   0.27840   0.15680   0.01267  Uiso   1.00
H20    H     0.73390   0.85750   0.18150   0.01267  Uiso   1.00
H21    H     0.53790   0.18570   0.21060   0.01267  Uiso   1.00
H22    H     0.88270   0.07570   0.93440   0.01267  Uiso   1.00
H23    H     0.01170   0.07330   0.92990   0.01267  Uiso   1.00
H24    H     0.03420   0.22800   0.85440   0.01267  Uiso   1.00
H25    H     0.70670   0.43810   0.83980   0.01267  Uiso   1.00
H26    H     0.35640   0.53940   0.35890   0.01267  Uiso   1.00
H27    H     0.45460   0.49960   0.44440   0.01267  Uiso   1.00
H28    H     0.54430   0.30630   0.48170   0.01267  Uiso   1.00
H29    H     0.53300   0.15160   0.43250   0.01267  Uiso   1.00
H30    H     0.13530   0.65470   0.34220   0.01267  Uiso   1.00
H31    H     0.81590   0.75590   0.29200   0.01267  Uiso   1.00
H32    H     0.71350   0.93710   0.36050   0.01267  Uiso   1.00
H33    H     0.75040   0.85820   0.41760   0.01267  Uiso   1.00
H34    H     0.69710   0.12310   0.30950   0.01267  Uiso   1.00
H35    H     0.80710   0.15670   0.29740   0.01267  Uiso   1.00
H36    H     0.82480   0.02260   0.30120   0.01267  Uiso   1.00
H37    H     0.74890   0.89190   0.52150   0.01267  Uiso   1.00
H38    H     0.86560   0.81160   0.48780   0.01267  Uiso   1.00
H39    H     0.87350   0.87450   0.54390   0.01267  Uiso   1.00
H40    H     0.76350   0.34830   0.50180   0.01267  Uiso   1.00
H41    H     0.88680   0.26420   0.52650   0.01267  Uiso   1.00
H42    H     0.88100   0.32580   0.46470   0.01267  Uiso   1.00
H43    H     0.74210   0.37390   0.39820   0.01267  Uiso   1.00
H44    H     0.72160   0.31600   0.34320   0.01267  Uiso   1.00
H45    H     0.14250   0.26610   0.31850   0.01267  Uiso   1.00
H46    H     0.81430   0.46210   0.28940   0.01267  Uiso   1.00
H47    H     0.92430   0.11730   0.56560   0.01267  Uiso   1.00
H48    H     0.92670   0.98830   0.57010   0.01267  Uiso   1.00
H49    H     0.77200   0.96580   0.64560   0.01267  Uiso   1.00
H50    H     0.56190   0.29330   0.66020   0.01267  Uiso   1.00
H51    H     0.53940   0.35640   0.85890   0.01267  Uiso   1.00
H52    H     0.49960   0.45460   0.94440   0.01267  Uiso   1.00
H53    H     0.30630   0.54430   0.98170   0.01267  Uiso   1.00
H54    H     0.15160   0.53300   0.93250   0.01267  Uiso   1.00
H55    H     0.65470   0.13530   0.84220   0.01267  Uiso   1.00
H56    H     0.75590   0.81590   0.79200   0.01267  Uiso   1.00
H57    H     0.93710   0.71350   0.86050   0.01267  Uiso   1.00
H58    H     0.85820   0.75040   0.91760   0.01267  Uiso   1.00
H59    H     0.12310   0.69710   0.80950   0.01267  Uiso   1.00
H60    H     0.15670   0.80710   0.79740   0.01267  Uiso   1.00
H61    H     0.02260   0.82480   0.80120   0.01267  Uiso   1.00
H62    H     0.89190   0.74890   0.02150   0.01267  Uiso   1.00
H63    H     0.81160   0.86560   0.98780   0.01267  Uiso   1.00
H64    H     0.87450   0.87350   0.04390   0.01267  Uiso   1.00
H65    H     0.34830   0.76350   0.00180   0.01267  Uiso   1.00
H66    H     0.26420   0.88680   0.02650   0.01267  Uiso   1.00
H67    H     0.32580   0.88100   0.96470   0.01267  Uiso   1.00
H68    H     0.37390   0.74210   0.89820   0.01267  Uiso   1.00
H69    H     0.31600   0.72160   0.84320   0.01267  Uiso   1.00
H70    H     0.26610   0.14250   0.81850   0.01267  Uiso   1.00
H71    H     0.46210   0.81430   0.78940   0.01267  Uiso   1.00
H72    H     0.11730   0.92430   0.06560   0.01267  Uiso   1.00
H73    H     0.98830   0.92670   0.07010   0.01267  Uiso   1.00
H74    H     0.96580   0.77200   0.14560   0.01267  Uiso   1.00
H75    H     0.29330   0.56190   0.16020   0.01267  Uiso   1.00
H76    H     0.64360   0.46060   0.64110   0.01267  Uiso   1.00
H77    H     0.54540   0.50040   0.55560   0.01267  Uiso   1.00
H78    H     0.45570   0.69370   0.51830   0.01267  Uiso   1.00
H79    H     0.46700   0.84840   0.56750   0.01267  Uiso   1.00
H80    H     0.86470   0.34530   0.65780   0.01267  Uiso   1.00
H81    H     0.18410   0.24410   0.70800   0.01267  Uiso   1.00
H82    H     0.28650   0.06290   0.63950   0.01267  Uiso   1.00
H83    H     0.24960   0.14180   0.58240   0.01267  Uiso   1.00
H84    H     0.30290   0.87690   0.69050   0.01267  Uiso   1.00
H85    H     0.19290   0.84330   0.70260   0.01267  Uiso   1.00
H86    H     0.17520   0.97740   0.69880   0.01267  Uiso   1.00
H87    H     0.25110   0.10810   0.47850   0.01267  Uiso   1.00
H88    H     0.13440   0.18840   0.51220   0.01267  Uiso   1.00
H89    H     0.12650   0.12550   0.45610   0.01267  Uiso   1.00
H90    H     0.23650   0.65170   0.49820   0.01267  Uiso   1.00
H91    H     0.11320   0.73580   0.47350   0.01267  Uiso   1.00
H92    H     0.11900   0.67420   0.53530   0.01267  Uiso   1.00
H93    H     0.25790   0.62610   0.60180   0.01267  Uiso   1.00
H94    H     0.27840   0.68400   0.65680   0.01267  Uiso   1.00
H95    H     0.85750   0.73390   0.68150   0.01267  Uiso   1.00
H96    H     0.18570   0.53790   0.71060   0.01267  Uiso   1.00
H97    H     0.07570   0.88270   0.43440   0.01267  Uiso   1.00
H98    H     0.07330   0.01170   0.42990   0.01267  Uiso   1.00
H99    H     0.22800   0.03420   0.35440   0.01267  Uiso   1.00
H100   H     0.43810   0.70670   0.33980   0.01267  Uiso   1.00
C1     C     0.60050   0.67550   0.21440   0.01267  Uiso   1.00
C2     C     0.63210   0.61310   0.15760   0.01267  Uiso   1.00
C3     C     0.53870   0.60770   0.12670   0.01267  Uiso   1.00
C4     C     0.56260   0.54920   0.07550   0.01267  Uiso   1.00
C5     C     0.67840   0.49560   0.05290   0.01267  Uiso   1.00
C6     C     0.77090   0.50250   0.08260   0.01267  Uiso   1.00
C7     C     0.75000   0.56160   0.13480   0.01267  Uiso   1.00
C8     C     0.85270   0.56470   0.16660   0.01267  Uiso   1.00
C9     C     0.30420   0.94660   0.16030   0.01267  Uiso   1.00
C10    C     0.25130   0.11710   0.18840   0.01267  Uiso   1.00
C11    C     0.09970   0.22250   0.11270   0.01267  Uiso   1.00
C12    C     0.00270   0.19690   0.08560   0.01267  Uiso   1.00
C13    C     0.90410   0.20290   0.11980   0.01267  Uiso   1.00
C14    C     0.90000   0.22000   0.18360   0.01267  Uiso   1.00
C15    C     0.80770   0.19350   0.09340   0.01267  Uiso   1.00
C16    C     0.81460   0.16880   0.03480   0.01267  Uiso   1.00
C17    C     0.91760   0.15660   0.00120   0.01267  Uiso   1.00
C18    C     0.01030   0.17450   0.02700   0.01267  Uiso   1.00
C19    C     0.11790   0.17130   0.99010   0.01267  Uiso   1.00
C20    C     0.70950   0.15850   0.00800   0.01267  Uiso   1.00
C21    C     0.69130   0.22090   0.12800   0.01267  Uiso   1.00
C22    C     0.70330   0.94030   0.17990   0.01267  Uiso   1.00
C23    C     0.59650   0.11690   0.19580   0.01267  Uiso   1.00
C24    C     0.92900   0.12280   0.93910   0.01267  Uiso   1.00
C25    C     0.95190   0.26330   0.85950   0.01267  Uiso   1.00
C26    C     0.77510   0.37530   0.85230   0.01267  Uiso   1.00
C27    C     0.32450   0.39950   0.28560   0.01267  Uiso   1.00
C28    C     0.38690   0.36790   0.34240   0.01267  Uiso   1.00
C29    C     0.39230   0.46130   0.37330   0.01267  Uiso   1.00
C30    C     0.45080   0.43740   0.42450   0.01267  Uiso   1.00
C31    C     0.50440   0.32160   0.44710   0.01267  Uiso   1.00
C32    C     0.49750   0.22910   0.41740   0.01267  Uiso   1.00
C33    C     0.43840   0.25000   0.36520   0.01267  Uiso   1.00
C34    C     0.43530   0.14730   0.33340   0.01267  Uiso   1.00
C35    C     0.05340   0.69580   0.33970   0.01267  Uiso   1.00
C36    C     0.88290   0.74870   0.31160   0.01267  Uiso   1.00
C37    C     0.77750   0.90030   0.38730   0.01267  Uiso   1.00
C38    C     0.80310   0.99730   0.41440   0.01267  Uiso   1.00
C39    C     0.79710   0.09590   0.38020   0.01267  Uiso   1.00
C40    C     0.78000   0.10000   0.31640   0.01267  Uiso   1.00
C41    C     0.80650   0.19230   0.40660   0.01267  Uiso   1.00
C42    C     0.83120   0.18540   0.46520   0.01267  Uiso   1.00
C43    C     0.84340   0.08240   0.49880   0.01267  Uiso   1.00
C44    C     0.82550   0.98970   0.47300   0.01267  Uiso   1.00
C45    C     0.82870   0.88210   0.50990   0.01267  Uiso   1.00
C46    C     0.84150   0.29050   0.49200   0.01267  Uiso   1.00
C47    C     0.77910   0.30870   0.37200   0.01267  Uiso   1.00
C48    C     0.05970   0.29670   0.32010   0.01267  Uiso   1.00
C49    C     0.88310   0.40350   0.30420   0.01267  Uiso   1.00
C50    C     0.87720   0.07100   0.56090   0.01267  Uiso   1.00
C51    C     0.73670   0.04810   0.64050   0.01267  Uiso   1.00
C52    C     0.62470   0.22490   0.64770   0.01267  Uiso   1.00
C53    C     0.39950   0.32450   0.78560   0.01267  Uiso   1.00
C54    C     0.36790   0.38690   0.84240   0.01267  Uiso   1.00
C55    C     0.46130   0.39230   0.87330   0.01267  Uiso   1.00
C56    C     0.43740   0.45080   0.92450   0.01267  Uiso   1.00
C57    C     0.32160   0.50440   0.94710   0.01267  Uiso   1.00
C58    C     0.22910   0.49750   0.91740   0.01267  Uiso   1.00
C59    C     0.25000   0.43840   0.86520   0.01267  Uiso   1.00
C60    C     0.14730   0.43530   0.83340   0.01267  Uiso   1.00
C61    C     0.69580   0.05340   0.83970   0.01267  Uiso   1.00
C62    C     0.74870   0.88290   0.81160   0.01267  Uiso   1.00
C63    C     0.90030   0.77750   0.88730   0.01267  Uiso   1.00
C64    C     0.99730   0.80310   0.91440   0.01267  Uiso   1.00
C65    C     0.09590   0.79710   0.88020   0.01267  Uiso   1.00
C66    C     0.10000   0.78000   0.81640   0.01267  Uiso   1.00
C67    C     0.19230   0.80650   0.90660   0.01267  Uiso   1.00
C68    C     0.18540   0.83120   0.96520   0.01267  Uiso   1.00
C69    C     0.08240   0.84340   0.99880   0.01267  Uiso   1.00
C70    C     0.98970   0.82550   0.97300   0.01267  Uiso   1.00
C71    C     0.88210   0.82870   0.00990   0.01267  Uiso   1.00
C72    C     0.29050   0.84150   0.99200   0.01267  Uiso   1.00
C73    C     0.30870   0.77910   0.87200   0.01267  Uiso   1.00
C74    C     0.29670   0.05970   0.82010   0.01267  Uiso   1.00
C75    C     0.40350   0.88310   0.80420   0.01267  Uiso   1.00
C76    C     0.07100   0.87720   0.06090   0.01267  Uiso   1.00
C77    C     0.04810   0.73670   0.14050   0.01267  Uiso   1.00
C78    C     0.22490   0.62470   0.14770   0.01267  Uiso   1.00
C79    C     0.67550   0.60050   0.71440   0.01267  Uiso   1.00
C80    C     0.61310   0.63210   0.65760   0.01267  Uiso   1.00
C81    C     0.60770   0.53870   0.62670   0.01267  Uiso   1.00
C82    C     0.54920   0.56260   0.57550   0.01267  Uiso   1.00
C83    C     0.49560   0.67840   0.55290   0.01267  Uiso   1.00
C84    C     0.50250   0.77090   0.58260   0.01267  Uiso   1.00
C85    C     0.56160   0.75000   0.63480   0.01267  Uiso   1.00
C86    C     0.56470   0.85270   0.66660   0.01267  Uiso   1.00
C87    C     0.94660   0.30420   0.66030   0.01267  Uiso   1.00
C88    C     0.11710   0.25130   0.68840   0.01267  Uiso   1.00
C89    C     0.22250   0.09970   0.61270   0.01267  Uiso   1.00
C90    C     0.19690   0.00270   0.58560   0.01267  Uiso   1.00
C91    C     0.20290   0.90410   0.61980   0.01267  Uiso   1.00
C92    C     0.22000   0.90000   0.68360   0.01267  Uiso   1.00
C93    C     0.19350   0.80770   0.59340   0.01267  Uiso   1.00
C94    C     0.16880   0.81460   0.53480   0.01267  Uiso   1.00
C95    C     0.15660   0.91760   0.50120   0.01267  Uiso   1.00
C96    C     0.17450   0.01030   0.52700   0.01267  Uiso   1.00
C97    C     0.17130   0.11790   0.49010   0.01267  Uiso   1.00
C98    C     0.15850   0.70950   0.50800   0.01267  Uiso   1.00
C99    C     0.22090   0.69130   0.62800   0.01267  Uiso   1.00
C100   C     0.94030   0.70330   0.67990   0.01267  Uiso   1.00
C101   C     0.11690   0.59650   0.69580   0.01267  Uiso   1.00
C102   C     0.12280   0.92900   0.43910   0.01267  Uiso   1.00
C103   C     0.26330   0.95190   0.35950   0.01267  Uiso   1.00
C104   C     0.37530   0.77510   0.35230   0.01267  Uiso   1.00
N1     N     0.32710   0.00930   0.20120   0.01267  Uiso   1.00
N2     N     0.22080   0.00860   0.12480   0.01267  Uiso   1.00
N3     N     0.18600   0.11960   0.14400   0.01267  Uiso   1.00
N4     N     0.60610   0.00850   0.21110   0.01267  Uiso   1.00
N5     N     0.75110   0.00250   0.14690   0.01267  Uiso   1.00
N6     N     0.67800   0.11660   0.15790   0.01267  Uiso   1.00
N7     N     0.88950   0.22430   0.89800   0.01267  Uiso   1.00
N8     N     0.77230   0.29650   0.89400   0.01267  Uiso   1.00
N9     N     0.88350   0.35690   0.83000   0.01267  Uiso   1.00
N10    N     0.99070   0.67290   0.29880   0.01267  Uiso   1.00
N11    N     0.99140   0.77920   0.37520   0.01267  Uiso   1.00
N12    N     0.88040   0.81400   0.35600   0.01267  Uiso   1.00
N13    N     0.99150   0.39390   0.28890   0.01267  Uiso   1.00
N14    N     0.99750   0.24890   0.35310   0.01267  Uiso   1.00
N15    N     0.88340   0.32200   0.34210   0.01267  Uiso   1.00
N16    N     0.77570   0.11050   0.60200   0.01267  Uiso   1.00
N17    N     0.70350   0.22770   0.60600   0.01267  Uiso   1.00
N18    N     0.64310   0.11650   0.67000   0.01267  Uiso   1.00
N19    N     0.67290   0.99070   0.79880   0.01267  Uiso   1.00
N20    N     0.77920   0.99140   0.87520   0.01267  Uiso   1.00
N21    N     0.81400   0.88040   0.85600   0.01267  Uiso   1.00
N22    N     0.39390   0.99150   0.78890   0.01267  Uiso   1.00
N23    N     0.24890   0.99750   0.85310   0.01267  Uiso   1.00
N24    N     0.32200   0.88340   0.84210   0.01267  Uiso   1.00
N25    N     0.11050   0.77570   0.10200   0.01267  Uiso   1.00
N26    N     0.22770   0.70350   0.10600   0.01267  Uiso   1.00
N27    N     0.11650   0.64310   0.17000   0.01267  Uiso   1.00
N28    N     0.00930   0.32710   0.70120   0.01267  Uiso   1.00
N29    N     0.00860   0.22080   0.62480   0.01267  Uiso   1.00
N30    N     0.11960   0.18600   0.64400   0.01267  Uiso   1.00
N31    N     0.00850   0.60610   0.71110   0.01267  Uiso   1.00
N32    N     0.00250   0.75110   0.64690   0.01267  Uiso   1.00
N33    N     0.11660   0.67800   0.65790   0.01267  Uiso   1.00
N34    N     0.22430   0.88950   0.39800   0.01267  Uiso   1.00
N35    N     0.29650   0.77230   0.39400   0.01267  Uiso   1.00
N36    N     0.35690   0.88350   0.33000   0.01267  Uiso   1.00
O1     O     0.55390   0.78690   0.20960   0.01267  Uiso   1.00
O2     O     0.61640   0.61300   0.26080   0.01267  Uiso   1.00
O3     O     0.83470   0.63710   0.20510   0.01267  Uiso   1.00
O4     O     0.95590   0.49010   0.15370   0.01267  Uiso   1.00
O5     O     0.21310   0.44610   0.29040   0.01267  Uiso   1.00
O6     O     0.38700   0.38360   0.23920   0.01267  Uiso   1.00
O7     O     0.36290   0.16530   0.29490   0.01267  Uiso   1.00
O8     O     0.50990   0.04410   0.34630   0.01267  Uiso   1.00
O9     O     0.44610   0.21310   0.79040   0.01267  Uiso   1.00
O10    O     0.38360   0.38700   0.73920   0.01267  Uiso   1.00
O11    O     0.16530   0.36290   0.79490   0.01267  Uiso   1.00
O12    O     0.04410   0.50990   0.84630   0.01267  Uiso   1.00
O13    O     0.78690   0.55390   0.70960   0.01267  Uiso   1.00
O14    O     0.61300   0.61640   0.76080   0.01267  Uiso   1.00
O15    O     0.63710   0.83470   0.70510   0.01267  Uiso   1.00
O16    O     0.49010   0.95590   0.65370   0.01267  Uiso   1.00
