data_WEMJII_charged
_audit_creation_date              2014-07-02
_audit_creation_method            'Materials Studio'
_symmetry_space_group_name_H-M    'P1'
_symmetry_Int_Tables_number       1
_symmetry_cell_setting            triclinic
loop_
_symmetry_equiv_pos_as_xyz
  x,y,z
_cell_length_a                    9.5276
_cell_length_b                    11.6570
_cell_length_c                    28.6820
_cell_angle_alpha                 90.0000
_cell_angle_beta                  90.0000
_cell_angle_gamma                 90.0000
loop_
_atom_site_label
_atom_site_type_symbol
_atom_site_fract_x
_atom_site_fract_y
_atom_site_fract_z
_atom_site_U_iso_or_equiv
_atom_site_adp_type
_atom_site_occupancy
Ca1    Ca    0.34144   0.81254   0.53615   0.01267  Uiso   1.00
Ca2    Ca    0.15856   0.31254   0.46385   0.01267  Uiso   1.00
Ca3    Ca    0.65856   0.18746   0.03615   0.01267  Uiso   1.00
Ca4    Ca    0.84144   0.68746   0.96385   0.01267  Uiso   1.00
Ca5    Ca    0.65856   0.18746   0.46385   0.01267  Uiso   1.00
Ca6    Ca    0.84144   0.68746   0.53615   0.01267  Uiso   1.00
Ca7    Ca    0.34144   0.81254   0.96385   0.01267  Uiso   1.00
Ca8    Ca    0.15856   0.31254   0.03615   0.01267  Uiso   1.00
H1     H     0.49910   0.94080   0.36880   0.01267  Uiso   1.00
H2     H     0.63150   0.91540   0.40150   0.01267  Uiso   1.00
H3     H     0.64130   0.71050   0.43910   0.01267  Uiso   1.00
H4     H     0.34430   0.76540   0.34310   0.01267  Uiso   1.00
H5     H     0.35400   0.55610   0.35860   0.01267  Uiso   1.00
H6     H     0.63630   0.50090   0.44710   0.01267  Uiso   1.00
H7     H     0.59890   0.44160   0.39840   0.01267  Uiso   1.00
H8     H     0.02750   0.70690   0.64450   0.01267  Uiso   1.00
H9     H     0.14960   0.62500   0.66340   0.01267  Uiso   1.00
H10    H     0.94280   0.87520   0.70680   0.01267  Uiso   1.00
H11    H     0.28900   0.59400   0.48600   0.01267  Uiso   1.00
H12    H     0.15700   0.62300   0.51800   0.01267  Uiso   1.00
H13    H     0.00090   0.44080   0.63120   0.01267  Uiso   1.00
H14    H     0.86850   0.41540   0.59850   0.01267  Uiso   1.00
H15    H     0.85870   0.21050   0.56090   0.01267  Uiso   1.00
H16    H     0.15570   0.26540   0.65690   0.01267  Uiso   1.00
H17    H     0.14600   0.05610   0.64140   0.01267  Uiso   1.00
H18    H     0.86370   0.00090   0.55290   0.01267  Uiso   1.00
H19    H     0.90110   0.94160   0.60160   0.01267  Uiso   1.00
H20    H     0.47250   0.20690   0.35550   0.01267  Uiso   1.00
H21    H     0.35040   0.12500   0.33660   0.01267  Uiso   1.00
H22    H     0.55720   0.37520   0.29320   0.01267  Uiso   1.00
H23    H     0.21100   0.09400   0.51400   0.01267  Uiso   1.00
H24    H     0.34300   0.12300   0.48200   0.01267  Uiso   1.00
H25    H     0.50090   0.05920   0.86880   0.01267  Uiso   1.00
H26    H     0.36850   0.08460   0.90150   0.01267  Uiso   1.00
H27    H     0.35870   0.28950   0.93910   0.01267  Uiso   1.00
H28    H     0.65570   0.23460   0.84310   0.01267  Uiso   1.00
H29    H     0.64600   0.44390   0.85860   0.01267  Uiso   1.00
H30    H     0.36370   0.49910   0.94710   0.01267  Uiso   1.00
H31    H     0.40110   0.55840   0.89840   0.01267  Uiso   1.00
H32    H     0.97250   0.29310   0.14450   0.01267  Uiso   1.00
H33    H     0.85040   0.37500   0.16340   0.01267  Uiso   1.00
H34    H     0.05720   0.12480   0.20680   0.01267  Uiso   1.00
H35    H     0.71100   0.40600   0.98600   0.01267  Uiso   1.00
H36    H     0.84300   0.37700   0.01800   0.01267  Uiso   1.00
H37    H     0.99910   0.55920   0.13120   0.01267  Uiso   1.00
H38    H     0.13150   0.58460   0.09850   0.01267  Uiso   1.00
H39    H     0.14130   0.78950   0.06090   0.01267  Uiso   1.00
H40    H     0.84430   0.73460   0.15690   0.01267  Uiso   1.00
H41    H     0.85400   0.94390   0.14140   0.01267  Uiso   1.00
H42    H     0.13630   0.99910   0.05290   0.01267  Uiso   1.00
H43    H     0.09890   0.05840   0.10160   0.01267  Uiso   1.00
H44    H     0.52750   0.79310   0.85550   0.01267  Uiso   1.00
H45    H     0.64960   0.87500   0.83660   0.01267  Uiso   1.00
H46    H     0.44280   0.62480   0.79320   0.01267  Uiso   1.00
H47    H     0.78900   0.90600   0.01400   0.01267  Uiso   1.00
H48    H     0.65700   0.87700   0.98200   0.01267  Uiso   1.00
H49    H     0.50090   0.05920   0.63120   0.01267  Uiso   1.00
H50    H     0.36850   0.08460   0.59850   0.01267  Uiso   1.00
H51    H     0.35870   0.28950   0.56090   0.01267  Uiso   1.00
H52    H     0.65570   0.23460   0.65690   0.01267  Uiso   1.00
H53    H     0.64600   0.44390   0.64140   0.01267  Uiso   1.00
H54    H     0.36370   0.49910   0.55290   0.01267  Uiso   1.00
H55    H     0.40110   0.55840   0.60160   0.01267  Uiso   1.00
H56    H     0.97250   0.29310   0.35550   0.01267  Uiso   1.00
H57    H     0.85040   0.37500   0.33660   0.01267  Uiso   1.00
H58    H     0.05720   0.12480   0.29320   0.01267  Uiso   1.00
H59    H     0.71100   0.40600   0.51400   0.01267  Uiso   1.00
H60    H     0.84300   0.37700   0.48200   0.01267  Uiso   1.00
H61    H     0.99910   0.55920   0.36880   0.01267  Uiso   1.00
H62    H     0.13150   0.58460   0.40150   0.01267  Uiso   1.00
H63    H     0.14130   0.78950   0.43910   0.01267  Uiso   1.00
H64    H     0.84430   0.73460   0.34310   0.01267  Uiso   1.00
H65    H     0.85400   0.94390   0.35860   0.01267  Uiso   1.00
H66    H     0.13630   0.99910   0.44710   0.01267  Uiso   1.00
H67    H     0.09890   0.05840   0.39840   0.01267  Uiso   1.00
H68    H     0.52750   0.79310   0.64450   0.01267  Uiso   1.00
H69    H     0.64960   0.87500   0.66340   0.01267  Uiso   1.00
H70    H     0.44280   0.62480   0.70680   0.01267  Uiso   1.00
H71    H     0.78900   0.90600   0.48600   0.01267  Uiso   1.00
H72    H     0.65700   0.87700   0.51800   0.01267  Uiso   1.00
H73    H     0.49910   0.94080   0.13120   0.01267  Uiso   1.00
H74    H     0.63150   0.91540   0.09850   0.01267  Uiso   1.00
H75    H     0.64130   0.71050   0.06090   0.01267  Uiso   1.00
H76    H     0.34430   0.76540   0.15690   0.01267  Uiso   1.00
H77    H     0.35400   0.55610   0.14140   0.01267  Uiso   1.00
H78    H     0.63630   0.50090   0.05290   0.01267  Uiso   1.00
H79    H     0.59890   0.44160   0.10160   0.01267  Uiso   1.00
H80    H     0.02750   0.70690   0.85550   0.01267  Uiso   1.00
H81    H     0.14960   0.62500   0.83660   0.01267  Uiso   1.00
H82    H     0.94280   0.87520   0.79320   0.01267  Uiso   1.00
H83    H     0.28900   0.59400   0.01400   0.01267  Uiso   1.00
H84    H     0.15700   0.62300   0.98200   0.01267  Uiso   1.00
H85    H     0.00090   0.44080   0.86880   0.01267  Uiso   1.00
H86    H     0.86850   0.41540   0.90150   0.01267  Uiso   1.00
H87    H     0.85870   0.21050   0.93910   0.01267  Uiso   1.00
H88    H     0.15570   0.26540   0.84310   0.01267  Uiso   1.00
H89    H     0.14600   0.05610   0.85860   0.01267  Uiso   1.00
H90    H     0.86370   0.00090   0.94710   0.01267  Uiso   1.00
H91    H     0.90110   0.94160   0.89840   0.01267  Uiso   1.00
H92    H     0.47250   0.20690   0.14450   0.01267  Uiso   1.00
H93    H     0.35040   0.12500   0.16340   0.01267  Uiso   1.00
H94    H     0.55720   0.37520   0.20680   0.01267  Uiso   1.00
H95    H     0.21100   0.09400   0.98600   0.01267  Uiso   1.00
H96    H     0.34300   0.12300   0.01800   0.01267  Uiso   1.00
H97    H     0.17940   0.61340   0.75000   0.01267  Uiso   1.00
H98    H     0.32060   0.11340   0.25000   0.01267  Uiso   1.00
H99    H     0.82060   0.38660   0.25000   0.01267  Uiso   1.00
H100   H     0.67940   0.88660   0.75000   0.01267  Uiso   1.00
C1     C     0.45160   0.95340   0.43920   0.01267  Uiso   1.00
C2     C     0.52960   0.90160   0.39760   0.01267  Uiso   1.00
C3     C     0.56830   0.69790   0.41710   0.01267  Uiso   1.00
C4     C     0.40500   0.72750   0.36430   0.01267  Uiso   1.00
C5     C     0.41030   0.61360   0.37280   0.01267  Uiso   1.00
C6     C     0.55990   0.48770   0.42430   0.01267  Uiso   1.00
C7     C     0.44320   0.41940   0.44790   0.01267  Uiso   1.00
C8     C     0.22210   0.78610   0.64480   0.01267  Uiso   1.00
C9     C     0.11230   0.70420   0.66430   0.01267  Uiso   1.00
C10    C     0.99080   0.82290   0.72660   0.01267  Uiso   1.00
C11    C     0.04840   0.45340   0.56080   0.01267  Uiso   1.00
C12    C     0.97040   0.40160   0.60240   0.01267  Uiso   1.00
C13    C     0.93170   0.19790   0.58290   0.01267  Uiso   1.00
C14    C     0.09500   0.22750   0.63570   0.01267  Uiso   1.00
C15    C     0.08970   0.11360   0.62720   0.01267  Uiso   1.00
C16    C     0.94010   0.98770   0.57570   0.01267  Uiso   1.00
C17    C     0.05680   0.91940   0.55210   0.01267  Uiso   1.00
C18    C     0.27790   0.28610   0.35520   0.01267  Uiso   1.00
C19    C     0.38770   0.20420   0.33570   0.01267  Uiso   1.00
C20    C     0.50920   0.32290   0.27340   0.01267  Uiso   1.00
C21    C     0.54840   0.04660   0.93920   0.01267  Uiso   1.00
C22    C     0.47040   0.09840   0.89760   0.01267  Uiso   1.00
C23    C     0.43170   0.30210   0.91710   0.01267  Uiso   1.00
C24    C     0.59500   0.27250   0.86430   0.01267  Uiso   1.00
C25    C     0.58970   0.38640   0.87280   0.01267  Uiso   1.00
C26    C     0.44010   0.51230   0.92430   0.01267  Uiso   1.00
C27    C     0.55680   0.58060   0.94790   0.01267  Uiso   1.00
C28    C     0.77790   0.21390   0.14480   0.01267  Uiso   1.00
C29    C     0.88770   0.29580   0.16430   0.01267  Uiso   1.00
C30    C     0.00920   0.17710   0.22660   0.01267  Uiso   1.00
C31    C     0.95160   0.54660   0.06080   0.01267  Uiso   1.00
C32    C     0.02960   0.59840   0.10240   0.01267  Uiso   1.00
C33    C     0.06830   0.80210   0.08290   0.01267  Uiso   1.00
C34    C     0.90500   0.77250   0.13570   0.01267  Uiso   1.00
C35    C     0.91030   0.88640   0.12720   0.01267  Uiso   1.00
C36    C     0.05990   0.01230   0.07570   0.01267  Uiso   1.00
C37    C     0.94320   0.08060   0.05210   0.01267  Uiso   1.00
C38    C     0.72210   0.71390   0.85520   0.01267  Uiso   1.00
C39    C     0.61230   0.79580   0.83570   0.01267  Uiso   1.00
C40    C     0.49080   0.67710   0.77340   0.01267  Uiso   1.00
C41    C     0.54840   0.04660   0.56080   0.01267  Uiso   1.00
C42    C     0.47040   0.09840   0.60240   0.01267  Uiso   1.00
C43    C     0.43170   0.30210   0.58290   0.01267  Uiso   1.00
C44    C     0.59500   0.27250   0.63570   0.01267  Uiso   1.00
C45    C     0.58970   0.38640   0.62720   0.01267  Uiso   1.00
C46    C     0.44010   0.51230   0.57570   0.01267  Uiso   1.00
C47    C     0.55680   0.58060   0.55210   0.01267  Uiso   1.00
C48    C     0.77790   0.21390   0.35520   0.01267  Uiso   1.00
C49    C     0.88770   0.29580   0.33570   0.01267  Uiso   1.00
C50    C     0.00920   0.17710   0.27340   0.01267  Uiso   1.00
C51    C     0.95160   0.54660   0.43920   0.01267  Uiso   1.00
C52    C     0.02960   0.59840   0.39760   0.01267  Uiso   1.00
C53    C     0.06830   0.80210   0.41710   0.01267  Uiso   1.00
C54    C     0.90500   0.77250   0.36430   0.01267  Uiso   1.00
C55    C     0.91030   0.88640   0.37280   0.01267  Uiso   1.00
C56    C     0.05990   0.01230   0.42430   0.01267  Uiso   1.00
C57    C     0.94320   0.08060   0.44790   0.01267  Uiso   1.00
C58    C     0.72210   0.71390   0.64480   0.01267  Uiso   1.00
C59    C     0.61230   0.79580   0.66430   0.01267  Uiso   1.00
C60    C     0.49080   0.67710   0.72660   0.01267  Uiso   1.00
C61    C     0.45160   0.95340   0.06080   0.01267  Uiso   1.00
C62    C     0.52960   0.90160   0.10240   0.01267  Uiso   1.00
C63    C     0.56830   0.69790   0.08290   0.01267  Uiso   1.00
C64    C     0.40500   0.72750   0.13570   0.01267  Uiso   1.00
C65    C     0.41030   0.61360   0.12720   0.01267  Uiso   1.00
C66    C     0.55990   0.48770   0.07570   0.01267  Uiso   1.00
C67    C     0.44320   0.41940   0.05210   0.01267  Uiso   1.00
C68    C     0.22210   0.78610   0.85520   0.01267  Uiso   1.00
C69    C     0.11230   0.70420   0.83570   0.01267  Uiso   1.00
C70    C     0.99080   0.82290   0.77340   0.01267  Uiso   1.00
C71    C     0.04840   0.45340   0.93920   0.01267  Uiso   1.00
C72    C     0.97040   0.40160   0.89760   0.01267  Uiso   1.00
C73    C     0.93170   0.19790   0.91710   0.01267  Uiso   1.00
C74    C     0.09500   0.22750   0.86430   0.01267  Uiso   1.00
C75    C     0.08970   0.11360   0.87280   0.01267  Uiso   1.00
C76    C     0.94010   0.98770   0.92430   0.01267  Uiso   1.00
C77    C     0.05680   0.91940   0.94790   0.01267  Uiso   1.00
C78    C     0.27790   0.28610   0.14480   0.01267  Uiso   1.00
C79    C     0.38770   0.20420   0.16430   0.01267  Uiso   1.00
C80    C     0.50920   0.32290   0.22660   0.01267  Uiso   1.00
C81    C     0.12090   0.67940   0.75000   0.01267  Uiso   1.00
C82    C     0.37910   0.17940   0.25000   0.01267  Uiso   1.00
C83    C     0.87910   0.32060   0.25000   0.01267  Uiso   1.00
C84    C     0.62090   0.82060   0.75000   0.01267  Uiso   1.00
N1     N     0.51370   0.59650   0.40634   0.01267  Uiso   1.00
N2     N     0.50530   0.77820   0.39267   0.01267  Uiso   1.00
N3     N     0.07330   0.73300   0.71280   0.01267  Uiso   1.00
N4     N     0.98630   0.09650   0.59366   0.01267  Uiso   1.00
N5     N     0.99470   0.27820   0.60733   0.01267  Uiso   1.00
N6     N     0.42670   0.23300   0.28720   0.01267  Uiso   1.00
N7     N     0.48630   0.40350   0.90634   0.01267  Uiso   1.00
N8     N     0.49470   0.22180   0.89267   0.01267  Uiso   1.00
N9     N     0.92670   0.26700   0.21280   0.01267  Uiso   1.00
N10    N     0.01370   0.90350   0.09366   0.01267  Uiso   1.00
N11    N     0.00530   0.72180   0.10733   0.01267  Uiso   1.00
N12    N     0.57330   0.76700   0.78720   0.01267  Uiso   1.00
N13    N     0.48630   0.40350   0.59366   0.01267  Uiso   1.00
N14    N     0.49470   0.22180   0.60733   0.01267  Uiso   1.00
N15    N     0.92670   0.26700   0.28720   0.01267  Uiso   1.00
N16    N     0.01370   0.90350   0.40634   0.01267  Uiso   1.00
N17    N     0.00530   0.72180   0.39267   0.01267  Uiso   1.00
N18    N     0.57330   0.76700   0.71280   0.01267  Uiso   1.00
N19    N     0.51370   0.59650   0.09366   0.01267  Uiso   1.00
N20    N     0.50530   0.77820   0.10733   0.01267  Uiso   1.00
N21    N     0.07330   0.73300   0.78720   0.01267  Uiso   1.00
N22    N     0.98630   0.09650   0.90634   0.01267  Uiso   1.00
N23    N     0.99470   0.27820   0.89267   0.01267  Uiso   1.00
N24    N     0.42670   0.23300   0.21280   0.01267  Uiso   1.00
O1     O     0.36910   0.89030   0.46143   0.01267  Uiso   1.00
O2     O     0.47770   0.05690   0.44711   0.01267  Uiso   1.00
O3     O     0.47480   0.32060   0.46185   0.01267  Uiso   1.00
O4     O     0.32540   0.46490   0.45307   0.01267  Uiso   1.00
O5     O     0.28000   0.75100   0.60829   0.01267  Uiso   1.00
O6     O     0.24710   0.87670   0.66505   0.01267  Uiso   1.00
O7     O     0.22780   0.65710   0.49708   0.01267  Uiso   1.00
O8     O     0.13090   0.39030   0.53857   0.01267  Uiso   1.00
O9     O     0.02230   0.55690   0.55289   0.01267  Uiso   1.00
O10    O     0.02520   0.82060   0.53815   0.01267  Uiso   1.00
O11    O     0.17460   0.96490   0.54693   0.01267  Uiso   1.00
O12    O     0.22000   0.25100   0.39171   0.01267  Uiso   1.00
O13    O     0.25290   0.37670   0.33495   0.01267  Uiso   1.00
O14    O     0.27220   0.15710   0.50292   0.01267  Uiso   1.00
O15    O     0.63090   0.10970   0.96143   0.01267  Uiso   1.00
O16    O     0.52230   0.94310   0.94711   0.01267  Uiso   1.00
O17    O     0.52520   0.67940   0.96185   0.01267  Uiso   1.00
O18    O     0.67460   0.53510   0.95307   0.01267  Uiso   1.00
O19    O     0.72000   0.24900   0.10829   0.01267  Uiso   1.00
O20    O     0.75290   0.12330   0.16505   0.01267  Uiso   1.00
O21    O     0.77220   0.34290   0.99708   0.01267  Uiso   1.00
O22    O     0.86910   0.60970   0.03857   0.01267  Uiso   1.00
O23    O     0.97770   0.44310   0.05289   0.01267  Uiso   1.00
O24    O     0.97480   0.17940   0.03815   0.01267  Uiso   1.00
O25    O     0.82540   0.03510   0.04693   0.01267  Uiso   1.00
O26    O     0.78000   0.74900   0.89171   0.01267  Uiso   1.00
O27    O     0.74710   0.62330   0.83495   0.01267  Uiso   1.00
O28    O     0.72780   0.84290   0.00292   0.01267  Uiso   1.00
O29    O     0.63090   0.10970   0.53857   0.01267  Uiso   1.00
O30    O     0.52230   0.94310   0.55289   0.01267  Uiso   1.00
O31    O     0.52520   0.67940   0.53815   0.01267  Uiso   1.00
O32    O     0.67460   0.53510   0.54693   0.01267  Uiso   1.00
O33    O     0.72000   0.24900   0.39171   0.01267  Uiso   1.00
O34    O     0.75290   0.12330   0.33495   0.01267  Uiso   1.00
O35    O     0.77220   0.34290   0.50292   0.01267  Uiso   1.00
O36    O     0.86910   0.60970   0.46143   0.01267  Uiso   1.00
O37    O     0.97770   0.44310   0.44711   0.01267  Uiso   1.00
O38    O     0.97480   0.17940   0.46185   0.01267  Uiso   1.00
O39    O     0.82540   0.03510   0.45307   0.01267  Uiso   1.00
O40    O     0.78000   0.74900   0.60829   0.01267  Uiso   1.00
O41    O     0.74710   0.62330   0.66505   0.01267  Uiso   1.00
O42    O     0.72780   0.84290   0.49708   0.01267  Uiso   1.00
O43    O     0.36910   0.89030   0.03857   0.01267  Uiso   1.00
O44    O     0.47770   0.05690   0.05289   0.01267  Uiso   1.00
O45    O     0.47480   0.32060   0.03815   0.01267  Uiso   1.00
O46    O     0.32540   0.46490   0.04693   0.01267  Uiso   1.00
O47    O     0.28000   0.75100   0.89171   0.01267  Uiso   1.00
O48    O     0.24710   0.87670   0.83495   0.01267  Uiso   1.00
O49    O     0.22780   0.65710   0.00292   0.01267  Uiso   1.00
O50    O     0.13090   0.39030   0.96143   0.01267  Uiso   1.00
O51    O     0.02230   0.55690   0.94711   0.01267  Uiso   1.00
O52    O     0.02520   0.82060   0.96185   0.01267  Uiso   1.00
O53    O     0.17460   0.96490   0.95307   0.01267  Uiso   1.00
O54    O     0.22000   0.25100   0.10829   0.01267  Uiso   1.00
O55    O     0.25290   0.37670   0.16505   0.01267  Uiso   1.00
O56    O     0.27220   0.15710   0.99708   0.01267  Uiso   1.00
Br1    Br    0.21755   0.94527   0.31299   0.01267  Uiso   1.00
Br2    Br    0.28245   0.44527   0.68701   0.01267  Uiso   1.00
Br3    Br    0.78245   0.05473   0.81299   0.01267  Uiso   1.00
Br4    Br    0.71755   0.55473   0.18701   0.01267  Uiso   1.00
Br5    Br    0.78245   0.05473   0.68701   0.01267  Uiso   1.00
Br6    Br    0.71755   0.55473   0.31299   0.01267  Uiso   1.00
Br7    Br    0.21755   0.94527   0.18701   0.01267  Uiso   1.00
Br8    Br    0.28245   0.44527   0.81299   0.01267  Uiso   1.00
