data_image0
_cell_length_a       16.308
_cell_length_b       10.517
_cell_length_c       22.986
_cell_angle_alpha    90
_cell_angle_beta     104.444
_cell_angle_gamma    90

_symmetry_space_group_name_H-M    "P 1"
_symmetry_int_tables_number       1

loop_
  _symmetry_equiv_pos_as_xyz
  'x, y, z'

loop_
  _atom_site_label
  _atom_site_occupancy
  _atom_site_fract_x
  _atom_site_fract_y
  _atom_site_fract_z
  _atom_site_thermal_displace_type
  _atom_site_B_iso_or_equiv
  _atom_site_type_symbol
  Zn1      1.0000 0.78595  0.17571  0.74810  Biso   1.000  Zn
  Zn2      1.0000 0.88092  0.67251  0.75114  Biso   1.000  Zn
  Zn3      1.0000 0.44981  0.16857  0.75536  Biso   1.000  Zn
  S1       1.0000 0.71138  0.47445  0.71231  Biso   1.000  S
  C1       1.0000 0.57960  0.05150  0.50220  Biso   1.000  C
  C2       1.0000 0.56730  0.91900  0.49830  Biso   1.000  C
  C3       1.0000 0.48670  0.87020  0.49710  Biso   1.000  C
  C4       1.0000 0.66500  0.10530  0.50130  Biso   1.000  C
  H1       1.0000 0.69170  0.05040  0.47740  Biso   1.000  H
  H2       1.0000 0.65750  0.18840  0.48230  Biso   1.000  H
  C5       1.0000 0.70390  0.13180  0.61530  Biso   1.000  C
  H3       1.0000 0.64950  0.12970  0.62130  Biso   1.000  H
  C6       1.0000 0.83350  0.14890  0.62820  Biso   1.000  C
  H4       1.0000 0.89030  0.16160  0.64730  Biso   1.000  H
  C7       1.0000 0.64010  0.83440  0.49410  Biso   1.000  C
  H5       1.0000 0.69280  0.87140  0.51690  Biso   1.000  H
  H6       1.0000 0.63370  0.75190  0.51130  Biso   1.000  H
  C8       1.0000 0.58600  0.82940  0.38140  Biso   1.000  C
  H7       1.0000 0.52940  0.84580  0.37960  Biso   1.000  H
  C9       1.0000 0.47240  0.72590  0.49500  Biso   1.000  C
  H8       1.0000 0.41620  0.70720  0.47030  Biso   1.000  H
  H9       1.0000 0.51330  0.68550  0.47670  Biso   1.000  H
  C10      1.0000 0.50990  0.72480  0.60900  Biso   1.000  C
  H10      1.0000 0.53100  0.80720  0.61550  Biso   1.000  H
  C11      1.0000 0.47380  0.54150  0.61990  Biso   1.000  C
  H11      1.0000 0.46390  0.46640  0.63840  Biso   1.000  H
  C12      1.0000 0.00290  0.63260  0.49980  Biso   1.000  C
  C13      1.0000 0.92710  0.57120  0.50090  Biso   1.000  C
  C14      1.0000 0.92390  0.43690  0.50060  Biso   1.000  C
  C15      1.0000 0.00410  0.78000  0.49910  Biso   1.000  C
  H12      1.0000 0.97340  0.81230  0.52710  Biso   1.000  H
  H13      1.0000 0.06210  0.80980  0.51200  Biso   1.000  H
  C16      1.0000 0.95230  0.77770  0.38670  Biso   1.000  C
  H14      1.0000 0.96500  0.69360  0.38000  Biso   1.000  H
  C17      1.0000 0.91410  0.96420  0.37550  Biso   1.000  C
  H15      1.0000 0.89420  0.04110  0.35740  Biso   1.000  H
  C18      1.0000 0.85020  0.64670  0.50510  Biso   1.000  C
  H16      1.0000 0.84360  0.71840  0.47780  Biso   1.000  H
  H17      1.0000 0.80020  0.59360  0.49270  Biso   1.000  H
  C19      1.0000 0.85680  0.63140  0.61520  Biso   1.000  C
  H18      1.0000 0.85160  0.54360  0.61760  Biso   1.000  H
  C20      1.0000 0.86680  0.82410  0.63490  Biso   1.000  C
  H19      1.0000 0.87120  0.90030  0.65600  Biso   1.000  H
  C21      1.0000 0.84210  0.37020  0.49490  Biso   1.000  C
  H20      1.0000 0.85140  0.29140  0.51760  Biso   1.000  H
  H21      1.0000 0.80410  0.42300  0.51100  Biso   1.000  H
  C22      1.0000 0.83180  0.35910  0.38370  Biso   1.000  C
  H22      1.0000 0.88380  0.39520  0.38360  Biso   1.000  H
  C23      1.0000 0.71300  0.27800  0.35850  Biso   1.000  C
  H23      1.0000 0.66350  0.24280  0.33490  Biso   1.000  H
  N1       1.0000 0.77170  0.14950  0.65750  Biso   1.000  N
  N2       1.0000 0.72140  0.11720  0.56290  Biso   1.000  N
  N3       1.0000 0.80670  0.12880  0.57040  Biso   1.000  N
  N4       1.0000 0.50540  0.64650  0.65130  Biso   1.000  N
  N5       1.0000 0.48110  0.67420  0.55540  Biso   1.000  N
  N6       1.0000 0.45810  0.55290  0.56190  Biso   1.000  N
  N7       1.0000 0.91890  0.85820  0.34400  Biso   1.000  N
  N8       1.0000 0.96550  0.82880  0.43900  Biso   1.000  N
  N9       1.0000 0.93920  0.95080  0.43310  Biso   1.000  N
  N10      1.0000 0.86510  0.70890  0.66090  Biso   1.000  N
  N11      1.0000 0.85660  0.69300  0.56590  Biso   1.000  N
  N12      1.0000 0.86180  0.81820  0.57770  Biso   1.000  N
  N13      1.0000 0.77750  0.31830  0.33580  Biso   1.000  N
  N14      1.0000 0.80430  0.34310  0.43160  Biso   1.000  N
  N15      1.0000 0.72640  0.29300  0.41580  Biso   1.000  N
  O1       1.0000 0.70460  0.34220  0.73070  Biso   1.000  O
  O2       1.0000 0.65720  0.55280  0.73980  Biso   1.000  O
  O3       1.0000 0.80120  0.51260  0.73690  Biso   1.000  O
  O4       1.0000 0.68660  0.48720  0.64880  Biso   1.000  O
  N16      1.0000 0.64300  0.81880  0.43170  Biso   1.000  N
  N17      1.0000 0.71790  0.84900  0.41820  Biso   1.000  N
  C24      1.0000 0.70080  0.84000  0.36000  Biso   1.000  C
  H24      1.0000 0.74070  0.84930  0.33760  Biso   1.000  H
  N18      1.0000 0.61350  0.81580  0.33500  Biso   1.000  N
  C25      1.0000 0.67120  0.70600  0.36060  Biso   1.000  C
  H25      1.0000 0.69200  0.64630  0.33820  Biso   1.000  H
  N19      1.0000 0.68780  0.70800  0.42000  Biso   1.000  N
  Zn4      1.0000 0.21405  0.67571  0.75190  Biso   1.000  Zn
  Zn5      1.0000 0.11908  0.17251  0.74886  Biso   1.000  Zn
  Zn6      1.0000 0.55019  0.66857  0.74464  Biso   1.000  Zn
  S2       1.0000 0.28862  0.97445  0.78769  Biso   1.000  S
  C26      1.0000 0.42040  0.55150  0.99780  Biso   1.000  C
  C27      1.0000 0.43270  0.41900  0.00170  Biso   1.000  C
  C28      1.0000 0.51330  0.37020  0.00290  Biso   1.000  C
  C29      1.0000 0.33500  0.60530  0.99870  Biso   1.000  C
  H26      1.0000 0.30830  0.55040  0.02260  Biso   1.000  H
  H27      1.0000 0.34250  0.68840  0.01770  Biso   1.000  H
  C30      1.0000 0.29610  0.63180  0.88470  Biso   1.000  C
  H28      1.0000 0.35050  0.62970  0.87870  Biso   1.000  H
  C31      1.0000 0.16650  0.64890  0.87180  Biso   1.000  C
  H29      1.0000 0.10970  0.66160  0.85270  Biso   1.000  H
  C32      1.0000 0.35990  0.33440  0.00590  Biso   1.000  C
  H30      1.0000 0.30720  0.37140  0.98310  Biso   1.000  H
  H31      1.0000 0.36630  0.25190  0.98870  Biso   1.000  H
  C33      1.0000 0.41400  0.32940  0.11860  Biso   1.000  C
  H32      1.0000 0.47060  0.34580  0.12040  Biso   1.000  H
  C34      1.0000 0.52760  0.22590  0.00500  Biso   1.000  C
  H33      1.0000 0.58380  0.20720  0.02970  Biso   1.000  H
  H34      1.0000 0.48670  0.18550  0.02330  Biso   1.000  H
  C35      1.0000 0.49010  0.22480  0.89100  Biso   1.000  C
  H35      1.0000 0.46900  0.30720  0.88450  Biso   1.000  H
  C36      1.0000 0.52620  0.04150  0.88010  Biso   1.000  C
  H36      1.0000 0.53610  0.96640  0.86160  Biso   1.000  H
  C37      1.0000 0.99710  0.13260  0.00020  Biso   1.000  C
  C38      1.0000 0.07290  0.07120  0.99910  Biso   1.000  C
  C39      1.0000 0.07610  0.93690  0.99940  Biso   1.000  C
  C40      1.0000 0.99590  0.28000  0.00090  Biso   1.000  C
  H37      1.0000 0.02660  0.31230  0.97290  Biso   1.000  H
  H38      1.0000 0.93790  0.30980  0.98800  Biso   1.000  H
  C41      1.0000 0.04770  0.27770  0.11330  Biso   1.000  C
  H39      1.0000 0.03500  0.19360  0.12000  Biso   1.000  H
  C42      1.0000 0.08590  0.46420  0.12450  Biso   1.000  C
  H40      1.0000 0.10580  0.54110  0.14260  Biso   1.000  H
  C43      1.0000 0.14980  0.14670  0.99490  Biso   1.000  C
  H41      1.0000 0.15640  0.21840  0.02220  Biso   1.000  H
  H42      1.0000 0.19980  0.09360  0.00730  Biso   1.000  H
  C44      1.0000 0.14320  0.13140  0.88480  Biso   1.000  C
  H43      1.0000 0.14840  0.04360  0.88240  Biso   1.000  H
  C45      1.0000 0.13320  0.32410  0.86510  Biso   1.000  C
  H44      1.0000 0.12880  0.40030  0.84400  Biso   1.000  H
  C46      1.0000 0.15790  0.87020  0.00510  Biso   1.000  C
  H45      1.0000 0.14860  0.79140  0.98240  Biso   1.000  H
  H46      1.0000 0.19590  0.92300  0.98900  Biso   1.000  H
  C47      1.0000 0.16820  0.85910  0.11630  Biso   1.000  C
  H47      1.0000 0.11620  0.89520  0.11640  Biso   1.000  H
  C48      1.0000 0.28700  0.77800  0.14150  Biso   1.000  C
  H48      1.0000 0.33650  0.74280  0.16510  Biso   1.000  H
  N20      1.0000 0.22830  0.64950  0.84250  Biso   1.000  N
  N21      1.0000 0.27860  0.61720  0.93710  Biso   1.000  N
  N22      1.0000 0.19330  0.62880  0.92960  Biso   1.000  N
  N23      1.0000 0.49460  0.14650  0.84870  Biso   1.000  N
  N24      1.0000 0.51890  0.17420  0.94460  Biso   1.000  N
  N25      1.0000 0.54190  0.05290  0.93810  Biso   1.000  N
  N26      1.0000 0.08110  0.35820  0.15600  Biso   1.000  N
  N27      1.0000 0.03450  0.32880  0.06100  Biso   1.000  N
  N28      1.0000 0.06080  0.45080  0.06690  Biso   1.000  N
  N29      1.0000 0.13490  0.20890  0.83910  Biso   1.000  N
  N30      1.0000 0.14340  0.19300  0.93410  Biso   1.000  N
  N31      1.0000 0.13820  0.31820  0.92230  Biso   1.000  N
  N32      1.0000 0.22250  0.81830  0.16420  Biso   1.000  N
  N33      1.0000 0.19570  0.84310  0.06840  Biso   1.000  N
  N34      1.0000 0.27360  0.79300  0.08420  Biso   1.000  N
  O5       1.0000 0.29540  0.84220  0.76930  Biso   1.000  O
  O6       1.0000 0.34280  0.05280  0.76020  Biso   1.000  O
  O7       1.0000 0.19880  0.01260  0.76310  Biso   1.000  O
  O8       1.0000 0.31340  0.98720  0.85120  Biso   1.000  O
  N35      1.0000 0.35700  0.31880  0.06830  Biso   1.000  N
  N36      1.0000 0.28210  0.34900  0.08180  Biso   1.000  N
  C49      1.0000 0.29920  0.34000  0.14000  Biso   1.000  C
  H49      1.0000 0.25930  0.34930  0.16240  Biso   1.000  H
  N37      1.0000 0.38650  0.31580  0.16500  Biso   1.000  N
  C50      1.0000 0.32880  0.20600  0.13940  Biso   1.000  C
  H50      1.0000 0.30800  0.14630  0.16180  Biso   1.000  H
  N38      1.0000 0.31220  0.20800  0.08000  Biso   1.000  N
  Zn7      1.0000 0.21405  0.82429  0.25190  Biso   1.000  Zn
  Zn8      1.0000 0.11908  0.32749  0.24886  Biso   1.000  Zn
  Zn9      1.0000 0.55019  0.83143  0.24464  Biso   1.000  Zn
  S3       1.0000 0.28862  0.52555  0.28769  Biso   1.000  S
  C51      1.0000 0.42040  0.94850  0.49780  Biso   1.000  C
  C52      1.0000 0.43270  0.08100  0.50170  Biso   1.000  C
  C53      1.0000 0.51330  0.12980  0.50290  Biso   1.000  C
  C54      1.0000 0.33500  0.89470  0.49870  Biso   1.000  C
  H51      1.0000 0.30830  0.94960  0.52260  Biso   1.000  H
  H52      1.0000 0.34250  0.81160  0.51770  Biso   1.000  H
  C55      1.0000 0.29610  0.86820  0.38470  Biso   1.000  C
  H53      1.0000 0.35050  0.87030  0.37870  Biso   1.000  H
  C56      1.0000 0.16650  0.85110  0.37180  Biso   1.000  C
  H54      1.0000 0.10970  0.83840  0.35270  Biso   1.000  H
  C57      1.0000 0.35990  0.16560  0.50590  Biso   1.000  C
  H55      1.0000 0.30720  0.12860  0.48310  Biso   1.000  H
  H56      1.0000 0.36630  0.24810  0.48870  Biso   1.000  H
  C58      1.0000 0.41400  0.17060  0.61860  Biso   1.000  C
  H57      1.0000 0.47060  0.15420  0.62040  Biso   1.000  H
  C59      1.0000 0.52760  0.27410  0.50500  Biso   1.000  C
  H58      1.0000 0.58380  0.29280  0.52970  Biso   1.000  H
  H59      1.0000 0.48670  0.31450  0.52330  Biso   1.000  H
  C60      1.0000 0.49010  0.27520  0.39100  Biso   1.000  C
  H60      1.0000 0.46900  0.19280  0.38450  Biso   1.000  H
  C61      1.0000 0.52620  0.45850  0.38010  Biso   1.000  C
  H61      1.0000 0.53610  0.53360  0.36160  Biso   1.000  H
  C62      1.0000 0.99710  0.36740  0.50020  Biso   1.000  C
  C63      1.0000 0.07290  0.42880  0.49910  Biso   1.000  C
  C64      1.0000 0.07610  0.56310  0.49940  Biso   1.000  C
  C65      1.0000 0.99590  0.22000  0.50090  Biso   1.000  C
  H62      1.0000 0.02660  0.18770  0.47290  Biso   1.000  H
  H63      1.0000 0.93790  0.19020  0.48800  Biso   1.000  H
  C66      1.0000 0.04770  0.22230  0.61330  Biso   1.000  C
  H64      1.0000 0.03500  0.30640  0.62000  Biso   1.000  H
  C67      1.0000 0.08590  0.03580  0.62450  Biso   1.000  C
  H65      1.0000 0.10580  0.95890  0.64260  Biso   1.000  H
  C68      1.0000 0.14980  0.35330  0.49490  Biso   1.000  C
  H66      1.0000 0.15640  0.28160  0.52220  Biso   1.000  H
  H67      1.0000 0.19980  0.40640  0.50730  Biso   1.000  H
  C69      1.0000 0.14320  0.36860  0.38480  Biso   1.000  C
  H68      1.0000 0.14840  0.45640  0.38240  Biso   1.000  H
  C70      1.0000 0.13320  0.17590  0.36510  Biso   1.000  C
  H69      1.0000 0.12880  0.09970  0.34400  Biso   1.000  H
  C71      1.0000 0.15790  0.62980  0.50510  Biso   1.000  C
  H70      1.0000 0.14860  0.70860  0.48240  Biso   1.000  H
  H71      1.0000 0.19590  0.57700  0.48900  Biso   1.000  H
  C72      1.0000 0.16820  0.64090  0.61630  Biso   1.000  C
  H72      1.0000 0.11620  0.60480  0.61640  Biso   1.000  H
  C73      1.0000 0.28700  0.72200  0.64150  Biso   1.000  C
  H73      1.0000 0.33650  0.75720  0.66510  Biso   1.000  H
  N39      1.0000 0.22830  0.85050  0.34250  Biso   1.000  N
  N40      1.0000 0.27860  0.88280  0.43710  Biso   1.000  N
  N41      1.0000 0.19330  0.87120  0.42960  Biso   1.000  N
  N42      1.0000 0.49460  0.35350  0.34870  Biso   1.000  N
  N43      1.0000 0.51890  0.32580  0.44460  Biso   1.000  N
  N44      1.0000 0.54190  0.44710  0.43810  Biso   1.000  N
  N45      1.0000 0.08110  0.14180  0.65600  Biso   1.000  N
  N46      1.0000 0.03450  0.17120  0.56100  Biso   1.000  N
  N47      1.0000 0.06080  0.04920  0.56690  Biso   1.000  N
  N48      1.0000 0.13490  0.29110  0.33910  Biso   1.000  N
  N49      1.0000 0.14340  0.30700  0.43410  Biso   1.000  N
  N50      1.0000 0.13820  0.18180  0.42230  Biso   1.000  N
  N51      1.0000 0.22250  0.68170  0.66420  Biso   1.000  N
  N52      1.0000 0.19570  0.65690  0.56840  Biso   1.000  N
  N53      1.0000 0.27360  0.70700  0.58420  Biso   1.000  N
  O9       1.0000 0.29540  0.65780  0.26930  Biso   1.000  O
  O10      1.0000 0.34280  0.44720  0.26020  Biso   1.000  O
  O11      1.0000 0.19880  0.48740  0.26310  Biso   1.000  O
  O12      1.0000 0.31340  0.51280  0.35120  Biso   1.000  O
  N54      1.0000 0.35700  0.18120  0.56830  Biso   1.000  N
  N55      1.0000 0.28210  0.15100  0.58180  Biso   1.000  N
  C74      1.0000 0.29920  0.16000  0.64000  Biso   1.000  C
  H74      1.0000 0.25930  0.15070  0.66240  Biso   1.000  H
  N56      1.0000 0.38650  0.18420  0.66500  Biso   1.000  N
  C75      1.0000 0.32880  0.29400  0.63940  Biso   1.000  C
  H75      1.0000 0.30800  0.35370  0.66180  Biso   1.000  H
  N57      1.0000 0.31220  0.29200  0.58000  Biso   1.000  N
  Zn10     1.0000 0.78595  0.32429  0.24810  Biso   1.000  Zn
  Zn11     1.0000 0.88092  0.82749  0.25114  Biso   1.000  Zn
  Zn12     1.0000 0.44981  0.33143  0.25536  Biso   1.000  Zn
  S4       1.0000 0.71138  0.02555  0.21231  Biso   1.000  S
  C76      1.0000 0.57960  0.44850  0.00220  Biso   1.000  C
  C77      1.0000 0.56730  0.58100  0.99830  Biso   1.000  C
  C78      1.0000 0.48670  0.62980  0.99710  Biso   1.000  C
  C79      1.0000 0.66500  0.39470  0.00130  Biso   1.000  C
  H76      1.0000 0.69170  0.44960  0.97740  Biso   1.000  H
  H77      1.0000 0.65750  0.31160  0.98230  Biso   1.000  H
  C80      1.0000 0.70390  0.36820  0.11530  Biso   1.000  C
  H78      1.0000 0.64950  0.37030  0.12130  Biso   1.000  H
  C81      1.0000 0.83350  0.35110  0.12820  Biso   1.000  C
  H79      1.0000 0.89030  0.33840  0.14730  Biso   1.000  H
  C82      1.0000 0.64010  0.66560  0.99410  Biso   1.000  C
  H80      1.0000 0.69280  0.62860  0.01690  Biso   1.000  H
  H81      1.0000 0.63370  0.74810  0.01130  Biso   1.000  H
  C83      1.0000 0.58600  0.67060  0.88140  Biso   1.000  C
  H82      1.0000 0.52940  0.65420  0.87960  Biso   1.000  H
  C84      1.0000 0.47240  0.77410  0.99500  Biso   1.000  C
  H83      1.0000 0.41620  0.79280  0.97030  Biso   1.000  H
  H84      1.0000 0.51330  0.81450  0.97670  Biso   1.000  H
  C85      1.0000 0.50990  0.77520  0.10900  Biso   1.000  C
  H85      1.0000 0.53100  0.69280  0.11550  Biso   1.000  H
  C86      1.0000 0.47380  0.95850  0.11990  Biso   1.000  C
  H86      1.0000 0.46390  0.03360  0.13840  Biso   1.000  H
  C87      1.0000 0.00290  0.86740  0.99980  Biso   1.000  C
  C88      1.0000 0.92710  0.92880  0.00090  Biso   1.000  C
  C89      1.0000 0.92390  0.06310  0.00060  Biso   1.000  C
  C90      1.0000 0.00410  0.72000  0.99910  Biso   1.000  C
  H87      1.0000 0.97340  0.68770  0.02710  Biso   1.000  H
  H88      1.0000 0.06210  0.69020  0.01200  Biso   1.000  H
  C91      1.0000 0.95230  0.72230  0.88670  Biso   1.000  C
  H89      1.0000 0.96500  0.80640  0.88000  Biso   1.000  H
  C92      1.0000 0.91410  0.53580  0.87550  Biso   1.000  C
  H90      1.0000 0.89420  0.45890  0.85740  Biso   1.000  H
  C93      1.0000 0.85020  0.85330  0.00510  Biso   1.000  C
  H91      1.0000 0.84360  0.78160  0.97780  Biso   1.000  H
  H92      1.0000 0.80020  0.90640  0.99270  Biso   1.000  H
  C94      1.0000 0.85680  0.86860  0.11520  Biso   1.000  C
  H93      1.0000 0.85160  0.95640  0.11760  Biso   1.000  H
  C95      1.0000 0.86680  0.67590  0.13490  Biso   1.000  C
  H94      1.0000 0.87120  0.59970  0.15600  Biso   1.000  H
  C96      1.0000 0.84210  0.12980  0.99490  Biso   1.000  C
  H95      1.0000 0.85140  0.20860  0.01760  Biso   1.000  H
  H96      1.0000 0.80410  0.07700  0.01100  Biso   1.000  H
  C97      1.0000 0.83180  0.14090  0.88370  Biso   1.000  C
  H97      1.0000 0.88380  0.10480  0.88360  Biso   1.000  H
  C98      1.0000 0.71300  0.22200  0.85850  Biso   1.000  C
  H98      1.0000 0.66350  0.25720  0.83490  Biso   1.000  H
  N58      1.0000 0.77170  0.35050  0.15750  Biso   1.000  N
  N59      1.0000 0.72140  0.38280  0.06290  Biso   1.000  N
  N60      1.0000 0.80670  0.37120  0.07040  Biso   1.000  N
  N61      1.0000 0.50540  0.85350  0.15130  Biso   1.000  N
  N62      1.0000 0.48110  0.82580  0.05540  Biso   1.000  N
  N63      1.0000 0.45810  0.94710  0.06190  Biso   1.000  N
  N64      1.0000 0.91890  0.64180  0.84400  Biso   1.000  N
  N65      1.0000 0.96550  0.67120  0.93900  Biso   1.000  N
  N66      1.0000 0.93920  0.54920  0.93310  Biso   1.000  N
  N67      1.0000 0.86510  0.79110  0.16090  Biso   1.000  N
  N68      1.0000 0.85660  0.80700  0.06590  Biso   1.000  N
  N69      1.0000 0.86180  0.68180  0.07770  Biso   1.000  N
  N70      1.0000 0.77750  0.18170  0.83580  Biso   1.000  N
  N71      1.0000 0.80430  0.15690  0.93160  Biso   1.000  N
  N72      1.0000 0.72640  0.20700  0.91580  Biso   1.000  N
  O13      1.0000 0.70460  0.15780  0.23070  Biso   1.000  O
  O14      1.0000 0.65720  0.94720  0.23980  Biso   1.000  O
  O15      1.0000 0.80120  0.98740  0.23690  Biso   1.000  O
  O16      1.0000 0.68660  0.01280  0.14880  Biso   1.000  O
  N73      1.0000 0.64300  0.68120  0.93170  Biso   1.000  N
  N74      1.0000 0.71790  0.65100  0.91820  Biso   1.000  N
  C99      1.0000 0.70080  0.66000  0.86000  Biso   1.000  C
  H99      1.0000 0.74070  0.65070  0.83760  Biso   1.000  H
  N75      1.0000 0.61350  0.68420  0.83500  Biso   1.000  N
  C100     1.0000 0.67120  0.79400  0.86060  Biso   1.000  C
  H100     1.0000 0.69200  0.85370  0.83820  Biso   1.000  H
  N76      1.0000 0.68780  0.79200  0.92000  Biso   1.000  N
