data_image0
_cell_length_a       11.2073
_cell_length_b       28.6467
_cell_length_c       21.996
_cell_angle_alpha    90
_cell_angle_beta     117.764
_cell_angle_gamma    90

_symmetry_space_group_name_H-M    "P 1"
_symmetry_int_tables_number       1

loop_
  _symmetry_equiv_pos_as_xyz
  'x, y, z'

loop_
  _atom_site_label
  _atom_site_occupancy
  _atom_site_fract_x
  _atom_site_fract_y
  _atom_site_fract_z
  _atom_site_thermal_displace_type
  _atom_site_B_iso_or_equiv
  _atom_site_type_symbol
  Cu1      1.0000 0.49716  0.25132  0.29910  Biso   1.000  Cu
  Cu2      1.0000 0.50564  0.36738  0.28022  Biso   1.000  Cu
  O1       1.0000 0.10830  0.05860  0.02290  Biso   1.000  O
  O2       1.0000 0.96010  0.10920  0.02460  Biso   1.000  O
  O3       1.0000 0.17790  0.26370  0.05680  Biso   1.000  O
  O4       1.0000 0.39370  0.26738  0.18780  Biso   1.000  O
  O5       1.0000 0.41030  0.34457  0.17460  Biso   1.000  O
  O6       1.0000 0.54090  0.31304  0.33870  Biso   1.000  O
  N1       1.0000 0.00790  0.99810  0.09180  Biso   1.000  N
  N2       1.0000 0.00040  0.99630  0.41010  Biso   1.000  N
  N3       1.0000 0.48130  0.18090  0.28480  Biso   1.000  N
  N4       1.0000 0.50640  0.93690  0.24090  Biso   1.000  N
  N5       1.0000 0.31880  0.25050  0.30380  Biso   1.000  N
  N6       1.0000 0.68380  0.24640  0.30470  Biso   1.000  N
  N7       1.0000 0.32390  0.37330  0.28120  Biso   1.000  N
  N8       1.0000 0.69170  0.36660  0.28300  Biso   1.000  N
  C1       1.0000 0.06870  0.09860  0.02540  Biso   1.000  C
  C2       1.0000 0.16530  0.13900  0.03410  Biso   1.000  C
  C3       1.0000 0.28880  0.12960  0.03180  Biso   1.000  C
  H1       1.0000 0.31040  0.09920  0.02580  Biso   1.000  H
  C4       1.0000 0.37670  0.16630  0.03850  Biso   1.000  C
  C5       1.0000 0.33870  0.21140  0.04760  Biso   1.000  C
  H2       1.0000 0.39670  0.23600  0.05290  Biso   1.000  H
  C6       1.0000 0.22380  0.22050  0.04910  Biso   1.000  C
  C7       1.0000 0.13490  0.18410  0.04190  Biso   1.000  C
  H3       1.0000 0.05410  0.19060  0.04240  Biso   1.000  H
  C8       1.0000 0.50800  0.15600  0.03770  Biso   1.000  C
  H4       1.0000 0.57940  0.15430  0.08410  Biso   1.000  H
  H5       1.0000 0.52710  0.18040  0.01360  Biso   1.000  H
  H6       1.0000 0.50110  0.12680  0.01500  Biso   1.000  H
  C9       1.0000 0.27010  0.30260  0.07550  Biso   1.000  C
  H7       1.0000 0.21910  0.33150  0.06190  Biso   1.000  H
  H8       1.0000 0.32270  0.30030  0.05090  Biso   1.000  H
  C10      1.0000 0.36660  0.30380  0.15380  Biso   1.000  C
  C11      1.0000 0.89530  0.98770  0.09660  Biso   1.000  C
  H9       1.0000 0.81680  0.98030  0.05700  Biso   1.000  H
  C12      1.0000 0.89370  0.98780  0.15860  Biso   1.000  C
  H10      1.0000 0.81380  0.98120  0.16000  Biso   1.000  H
  C13      1.0000 0.00810  0.99740  0.21860  Biso   1.000  C
  C14      1.0000 0.12580  0.00770  0.21400  Biso   1.000  C
  H11      1.0000 0.20590  0.01430  0.25330  Biso   1.000  H
  C15      1.0000 0.12080  0.00800  0.15010  Biso   1.000  C
  H12      1.0000 0.19880  0.01530  0.14710  Biso   1.000  H
  C16      1.0000 0.89250  0.00940  0.35220  Biso   1.000  C
  H13      1.0000 0.81420  0.01790  0.35410  Biso   1.000  H
  C17      1.0000 0.89370  0.01070  0.28970  Biso   1.000  C
  H14      1.0000 0.81820  0.02120  0.25070  Biso   1.000  H
  C18      1.0000 0.00610  0.99670  0.28510  Biso   1.000  C
  C19      1.0000 0.11880  0.98130  0.34560  Biso   1.000  C
  H15      1.0000 0.19730  0.97170  0.34480  Biso   1.000  H
  C20      1.0000 0.10900  0.98100  0.40620  Biso   1.000  C
  H16      1.0000 0.18150  0.96970  0.44580  Biso   1.000  H
  C21      1.0000 0.41710  0.16150  0.22280  Biso   1.000  C
  H17      1.0000 0.37030  0.18090  0.18510  Biso   1.000  H
  C22      1.0000 0.41660  0.11290  0.21160  Biso   1.000  C
  H18      1.0000 0.36930  0.10020  0.16780  Biso   1.000  H
  C23      1.0000 0.49040  0.08450  0.26910  Biso   1.000  C
  C24      1.0000 0.55330  0.10430  0.33340  Biso   1.000  C
  H19      1.0000 0.59940  0.08590  0.37230  Biso   1.000  H
  C25      1.0000 0.54630  0.15320  0.33920  Biso   1.000  C
  H20      1.0000 0.58860  0.16660  0.38270  Biso   1.000  H
  C26      1.0000 0.50550  0.95430  0.29630  Biso   1.000  C
  H21      1.0000 0.50790  0.93360  0.32950  Biso   1.000  H
  C27      1.0000 0.50100  0.00150  0.30740  Biso   1.000  C
  H22      1.0000 0.50220  0.01190  0.34770  Biso   1.000  H
  C28      1.0000 0.49490  0.03330  0.25920  Biso   1.000  C
  C29      1.0000 0.49790  0.01580  0.20150  Biso   1.000  C
  H23      1.0000 0.49560  0.03600  0.16790  Biso   1.000  H
  C30      1.0000 0.50430  0.96740  0.19340  Biso   1.000  C
  H24      1.0000 0.50720  0.95600  0.15450  Biso   1.000  H
  C31      1.0000 0.19960  0.25330  0.24610  Biso   1.000  C
  H25      1.0000 0.20080  0.25610  0.20420  Biso   1.000  H
  C32      1.0000 0.07730  0.25230  0.24560  Biso   1.000  C
  H26      1.0000 0.99880  0.25520  0.20410  Biso   1.000  H
  C33      1.0000 0.06920  0.24710  0.30490  Biso   1.000  C
  C34      1.0000 0.19180  0.24360  0.36640  Biso   1.000  C
  H27      1.0000 0.19250  0.23980  0.40860  Biso   1.000  H
  C35      1.0000 0.31250  0.24600  0.36190  Biso   1.000  C
  H28      1.0000 0.39320  0.24440  0.40250  Biso   1.000  H
  C36      1.0000 0.69360  0.23860  0.24550  Biso   1.000  C
  H29      1.0000 0.61580  0.23360  0.20430  Biso   1.000  H
  C37      1.0000 0.81580  0.23810  0.24670  Biso   1.000  C
  H30      1.0000 0.82000  0.23270  0.20600  Biso   1.000  H
  C38      1.0000 0.93310  0.24550  0.30590  Biso   1.000  C
  C39      1.0000 0.92390  0.25370  0.36550  Biso   1.000  C
  H31      1.0000 0.00110  0.25970  0.40650  Biso   1.000  H
  C40      1.0000 0.79990  0.25300  0.36360  Biso   1.000  C
  H32      1.0000 0.79540  0.25730  0.40440  Biso   1.000  H
  C41      1.0000 0.21030  0.38060  0.22350  Biso   1.000  C
  H33      1.0000 0.21560  0.38600  0.18310  Biso   1.000  H
  C42      1.0000 0.08420  0.38060  0.22100  Biso   1.000  C
  H34      1.0000 0.00700  0.38540  0.17950  Biso   1.000  H
  C43      1.0000 0.07410  0.37350  0.28120  Biso   1.000  C
  C44      1.0000 0.19510  0.36710  0.34220  Biso   1.000  C
  H35      1.0000 0.19380  0.36320  0.38380  Biso   1.000  H
  C45      1.0000 0.31680  0.36680  0.33960  Biso   1.000  C
  H36      1.0000 0.39620  0.36190  0.38000  Biso   1.000  H
  C46      1.0000 0.70150  0.35810  0.22520  Biso   1.000  C
  H37      1.0000 0.62350  0.35080  0.18520  Biso   1.000  H
  C47      1.0000 0.82440  0.35970  0.22300  Biso   1.000  C
  H38      1.0000 0.82860  0.35260  0.18280  Biso   1.000  H
  C48      1.0000 0.94070  0.37220  0.28260  Biso   1.000  C
  C49      1.0000 0.92870  0.38140  0.34070  Biso   1.000  C
  H39      1.0000 0.00450  0.38880  0.38160  Biso   1.000  H
  C50      1.0000 0.80170  0.37940  0.33800  Biso   1.000  C
  H40      1.0000 0.79460  0.38760  0.37710  Biso   1.000  H
  Cu3      1.0000 0.50284  0.75132  0.20090  Biso   1.000  Cu
  Cu4      1.0000 0.49436  0.86738  0.21978  Biso   1.000  Cu
  O7       1.0000 0.89170  0.55860  0.47710  Biso   1.000  O
  O8       1.0000 0.03990  0.60920  0.47540  Biso   1.000  O
  O9       1.0000 0.82210  0.76370  0.44320  Biso   1.000  O
  O10      1.0000 0.60630  0.76738  0.31220  Biso   1.000  O
  O11      1.0000 0.58970  0.84457  0.32540  Biso   1.000  O
  O12      1.0000 0.45910  0.81304  0.16130  Biso   1.000  O
  N9       1.0000 0.99210  0.49810  0.40820  Biso   1.000  N
  N10      1.0000 0.99960  0.49630  0.08990  Biso   1.000  N
  N11      1.0000 0.51870  0.68090  0.21520  Biso   1.000  N
  N12      1.0000 0.49360  0.43690  0.25910  Biso   1.000  N
  N13      1.0000 0.68120  0.75050  0.19620  Biso   1.000  N
  N14      1.0000 0.31620  0.74640  0.19530  Biso   1.000  N
  N15      1.0000 0.67610  0.87330  0.21880  Biso   1.000  N
  N16      1.0000 0.30830  0.86660  0.21700  Biso   1.000  N
  C51      1.0000 0.93130  0.59860  0.47460  Biso   1.000  C
  C52      1.0000 0.83470  0.63900  0.46590  Biso   1.000  C
  C53      1.0000 0.71120  0.62960  0.46820  Biso   1.000  C
  H41      1.0000 0.68960  0.59920  0.47420  Biso   1.000  H
  C54      1.0000 0.62330  0.66630  0.46150  Biso   1.000  C
  C55      1.0000 0.66130  0.71140  0.45240  Biso   1.000  C
  H42      1.0000 0.60330  0.73600  0.44710  Biso   1.000  H
  C56      1.0000 0.77620  0.72050  0.45090  Biso   1.000  C
  C57      1.0000 0.86510  0.68410  0.45810  Biso   1.000  C
  H43      1.0000 0.94590  0.69060  0.45760  Biso   1.000  H
  C58      1.0000 0.49200  0.65600  0.46230  Biso   1.000  C
  H44      1.0000 0.42060  0.65430  0.41590  Biso   1.000  H
  H45      1.0000 0.47290  0.68040  0.48640  Biso   1.000  H
  H46      1.0000 0.49890  0.62680  0.48500  Biso   1.000  H
  C59      1.0000 0.72990  0.80260  0.42450  Biso   1.000  C
  H47      1.0000 0.78090  0.83150  0.43810  Biso   1.000  H
  H48      1.0000 0.67730  0.80030  0.44910  Biso   1.000  H
  C60      1.0000 0.63340  0.80380  0.34620  Biso   1.000  C
  C61      1.0000 0.10470  0.48770  0.40340  Biso   1.000  C
  H49      1.0000 0.18320  0.48030  0.44300  Biso   1.000  H
  C62      1.0000 0.10630  0.48780  0.34140  Biso   1.000  C
  H50      1.0000 0.18620  0.48120  0.34000  Biso   1.000  H
  C63      1.0000 0.99190  0.49740  0.28140  Biso   1.000  C
  C64      1.0000 0.87420  0.50770  0.28600  Biso   1.000  C
  H51      1.0000 0.79410  0.51430  0.24670  Biso   1.000  H
  C65      1.0000 0.87920  0.50800  0.34990  Biso   1.000  C
  H52      1.0000 0.80120  0.51530  0.35290  Biso   1.000  H
  C66      1.0000 0.10750  0.50940  0.14780  Biso   1.000  C
  H53      1.0000 0.18580  0.51790  0.14590  Biso   1.000  H
  C67      1.0000 0.10630  0.51070  0.21030  Biso   1.000  C
  H54      1.0000 0.18180  0.52120  0.24930  Biso   1.000  H
  C68      1.0000 0.99390  0.49670  0.21490  Biso   1.000  C
  C69      1.0000 0.88120  0.48130  0.15440  Biso   1.000  C
  H55      1.0000 0.80270  0.47170  0.15520  Biso   1.000  H
  C70      1.0000 0.89100  0.48100  0.09380  Biso   1.000  C
  H56      1.0000 0.81850  0.46970  0.05420  Biso   1.000  H
  C71      1.0000 0.58290  0.66150  0.27720  Biso   1.000  C
  H57      1.0000 0.62970  0.68090  0.31490  Biso   1.000  H
  C72      1.0000 0.58340  0.61290  0.28840  Biso   1.000  C
  H58      1.0000 0.63070  0.60020  0.33220  Biso   1.000  H
  C73      1.0000 0.50960  0.58450  0.23090  Biso   1.000  C
  C74      1.0000 0.44670  0.60430  0.16660  Biso   1.000  C
  H59      1.0000 0.40060  0.58590  0.12770  Biso   1.000  H
  C75      1.0000 0.45370  0.65320  0.16080  Biso   1.000  C
  H60      1.0000 0.41140  0.66660  0.11730  Biso   1.000  H
  C76      1.0000 0.49450  0.45430  0.20370  Biso   1.000  C
  H61      1.0000 0.49210  0.43360  0.17050  Biso   1.000  H
  C77      1.0000 0.49900  0.50150  0.19260  Biso   1.000  C
  H62      1.0000 0.49780  0.51190  0.15230  Biso   1.000  H
  C78      1.0000 0.50510  0.53330  0.24080  Biso   1.000  C
  C79      1.0000 0.50210  0.51580  0.29850  Biso   1.000  C
  H63      1.0000 0.50440  0.53600  0.33210  Biso   1.000  H
  C80      1.0000 0.49570  0.46740  0.30660  Biso   1.000  C
  H64      1.0000 0.49280  0.45600  0.34550  Biso   1.000  H
  C81      1.0000 0.80040  0.75330  0.25390  Biso   1.000  C
  H65      1.0000 0.79920  0.75610  0.29580  Biso   1.000  H
  C82      1.0000 0.92270  0.75230  0.25440  Biso   1.000  C
  H66      1.0000 0.00120  0.75520  0.29590  Biso   1.000  H
  C83      1.0000 0.93080  0.74710  0.19510  Biso   1.000  C
  C84      1.0000 0.80820  0.74360  0.13360  Biso   1.000  C
  H67      1.0000 0.80750  0.73980  0.09140  Biso   1.000  H
  C85      1.0000 0.68750  0.74600  0.13810  Biso   1.000  C
  H68      1.0000 0.60680  0.74440  0.09750  Biso   1.000  H
  C86      1.0000 0.30640  0.73860  0.25450  Biso   1.000  C
  H69      1.0000 0.38420  0.73360  0.29570  Biso   1.000  H
  C87      1.0000 0.18420  0.73810  0.25330  Biso   1.000  C
  H70      1.0000 0.18000  0.73270  0.29400  Biso   1.000  H
  C88      1.0000 0.06690  0.74550  0.19410  Biso   1.000  C
  C89      1.0000 0.07610  0.75370  0.13450  Biso   1.000  C
  H71      1.0000 0.99890  0.75970  0.09350  Biso   1.000  H
  C90      1.0000 0.20010  0.75300  0.13640  Biso   1.000  C
  H72      1.0000 0.20460  0.75730  0.09560  Biso   1.000  H
  C91      1.0000 0.78970  0.88060  0.27650  Biso   1.000  C
  H73      1.0000 0.78440  0.88600  0.31690  Biso   1.000  H
  C92      1.0000 0.91580  0.88060  0.27900  Biso   1.000  C
  H74      1.0000 0.99300  0.88540  0.32050  Biso   1.000  H
  C93      1.0000 0.92590  0.87350  0.21880  Biso   1.000  C
  C94      1.0000 0.80490  0.86710  0.15780  Biso   1.000  C
  H75      1.0000 0.80620  0.86320  0.11620  Biso   1.000  H
  C95      1.0000 0.68320  0.86680  0.16040  Biso   1.000  C
  H76      1.0000 0.60380  0.86190  0.12000  Biso   1.000  H
  C96      1.0000 0.29850  0.85810  0.27480  Biso   1.000  C
  H77      1.0000 0.37650  0.85080  0.31480  Biso   1.000  H
  C97      1.0000 0.17560  0.85970  0.27700  Biso   1.000  C
  H78      1.0000 0.17140  0.85260  0.31720  Biso   1.000  H
  C98      1.0000 0.05930  0.87220  0.21740  Biso   1.000  C
  C99      1.0000 0.07130  0.88140  0.15930  Biso   1.000  C
  H79      1.0000 0.99550  0.88880  0.11840  Biso   1.000  H
  C100     1.0000 0.19830  0.87940  0.16200  Biso   1.000  C
  H80      1.0000 0.20540  0.88760  0.12290  Biso   1.000  H
  Cu5      1.0000 0.50284  0.74868  0.70090  Biso   1.000  Cu
  Cu6      1.0000 0.49436  0.63262  0.71978  Biso   1.000  Cu
  O13      1.0000 0.89170  0.94140  0.97710  Biso   1.000  O
  O14      1.0000 0.03990  0.89080  0.97540  Biso   1.000  O
  O15      1.0000 0.82210  0.73630  0.94320  Biso   1.000  O
  O16      1.0000 0.60630  0.73262  0.81220  Biso   1.000  O
  O17      1.0000 0.58970  0.65543  0.82540  Biso   1.000  O
  O18      1.0000 0.45910  0.68696  0.66130  Biso   1.000  O
  N17      1.0000 0.99210  0.00190  0.90820  Biso   1.000  N
  N18      1.0000 0.99960  0.00370  0.58990  Biso   1.000  N
  N19      1.0000 0.51870  0.81910  0.71520  Biso   1.000  N
  N20      1.0000 0.49360  0.06310  0.75910  Biso   1.000  N
  N21      1.0000 0.68120  0.74950  0.69620  Biso   1.000  N
  N22      1.0000 0.31620  0.75360  0.69530  Biso   1.000  N
  N23      1.0000 0.67610  0.62670  0.71880  Biso   1.000  N
  N24      1.0000 0.30830  0.63340  0.71700  Biso   1.000  N
  C101     1.0000 0.93130  0.90140  0.97460  Biso   1.000  C
  C102     1.0000 0.83470  0.86100  0.96590  Biso   1.000  C
  C103     1.0000 0.71120  0.87040  0.96820  Biso   1.000  C
  H81      1.0000 0.68960  0.90080  0.97420  Biso   1.000  H
  C104     1.0000 0.62330  0.83370  0.96150  Biso   1.000  C
  C105     1.0000 0.66130  0.78860  0.95240  Biso   1.000  C
  H82      1.0000 0.60330  0.76400  0.94710  Biso   1.000  H
  C106     1.0000 0.77620  0.77950  0.95090  Biso   1.000  C
  C107     1.0000 0.86510  0.81590  0.95810  Biso   1.000  C
  H83      1.0000 0.94590  0.80940  0.95760  Biso   1.000  H
  C108     1.0000 0.49200  0.84400  0.96230  Biso   1.000  C
  H84      1.0000 0.42060  0.84570  0.91590  Biso   1.000  H
  H85      1.0000 0.47290  0.81960  0.98640  Biso   1.000  H
  H86      1.0000 0.49890  0.87320  0.98500  Biso   1.000  H
  C109     1.0000 0.72990  0.69740  0.92450  Biso   1.000  C
  H87      1.0000 0.78090  0.66850  0.93810  Biso   1.000  H
  H88      1.0000 0.67730  0.69970  0.94910  Biso   1.000  H
  C110     1.0000 0.63340  0.69620  0.84620  Biso   1.000  C
  C111     1.0000 0.10470  0.01230  0.90340  Biso   1.000  C
  H89      1.0000 0.18320  0.01970  0.94300  Biso   1.000  H
  C112     1.0000 0.10630  0.01220  0.84140  Biso   1.000  C
  H90      1.0000 0.18620  0.01880  0.84000  Biso   1.000  H
  C113     1.0000 0.99190  0.00260  0.78140  Biso   1.000  C
  C114     1.0000 0.87420  0.99230  0.78600  Biso   1.000  C
  H91      1.0000 0.79410  0.98570  0.74670  Biso   1.000  H
  C115     1.0000 0.87920  0.99200  0.84990  Biso   1.000  C
  H92      1.0000 0.80120  0.98470  0.85290  Biso   1.000  H
  C116     1.0000 0.10750  0.99060  0.64780  Biso   1.000  C
  H93      1.0000 0.18580  0.98210  0.64590  Biso   1.000  H
  C117     1.0000 0.10630  0.98930  0.71030  Biso   1.000  C
  H94      1.0000 0.18180  0.97880  0.74930  Biso   1.000  H
  C118     1.0000 0.99390  0.00330  0.71490  Biso   1.000  C
  C119     1.0000 0.88120  0.01870  0.65440  Biso   1.000  C
  H95      1.0000 0.80270  0.02830  0.65520  Biso   1.000  H
  C120     1.0000 0.89100  0.01900  0.59380  Biso   1.000  C
  H96      1.0000 0.81850  0.03030  0.55420  Biso   1.000  H
  C121     1.0000 0.58290  0.83850  0.77720  Biso   1.000  C
  H97      1.0000 0.62970  0.81910  0.81490  Biso   1.000  H
  C122     1.0000 0.58340  0.88710  0.78840  Biso   1.000  C
  H98      1.0000 0.63070  0.89980  0.83220  Biso   1.000  H
  C123     1.0000 0.50960  0.91550  0.73090  Biso   1.000  C
  C124     1.0000 0.44670  0.89570  0.66660  Biso   1.000  C
  H99      1.0000 0.40060  0.91410  0.62770  Biso   1.000  H
  C125     1.0000 0.45370  0.84680  0.66080  Biso   1.000  C
  H100     1.0000 0.41140  0.83340  0.61730  Biso   1.000  H
  C126     1.0000 0.49450  0.04570  0.70370  Biso   1.000  C
  H101     1.0000 0.49210  0.06640  0.67050  Biso   1.000  H
  C127     1.0000 0.49900  0.99850  0.69260  Biso   1.000  C
  H102     1.0000 0.49780  0.98810  0.65230  Biso   1.000  H
  C128     1.0000 0.50510  0.96670  0.74080  Biso   1.000  C
  C129     1.0000 0.50210  0.98420  0.79850  Biso   1.000  C
  H103     1.0000 0.50440  0.96400  0.83210  Biso   1.000  H
  C130     1.0000 0.49570  0.03260  0.80660  Biso   1.000  C
  H104     1.0000 0.49280  0.04400  0.84550  Biso   1.000  H
  C131     1.0000 0.80040  0.74670  0.75390  Biso   1.000  C
  H105     1.0000 0.79920  0.74390  0.79580  Biso   1.000  H
  C132     1.0000 0.92270  0.74770  0.75440  Biso   1.000  C
  H106     1.0000 0.00120  0.74480  0.79590  Biso   1.000  H
  C133     1.0000 0.93080  0.75290  0.69510  Biso   1.000  C
  C134     1.0000 0.80820  0.75640  0.63360  Biso   1.000  C
  H107     1.0000 0.80750  0.76020  0.59140  Biso   1.000  H
  C135     1.0000 0.68750  0.75400  0.63810  Biso   1.000  C
  H108     1.0000 0.60680  0.75560  0.59750  Biso   1.000  H
  C136     1.0000 0.30640  0.76140  0.75450  Biso   1.000  C
  H109     1.0000 0.38420  0.76640  0.79570  Biso   1.000  H
  C137     1.0000 0.18420  0.76190  0.75330  Biso   1.000  C
  H110     1.0000 0.18000  0.76730  0.79400  Biso   1.000  H
  C138     1.0000 0.06690  0.75450  0.69410  Biso   1.000  C
  C139     1.0000 0.07610  0.74630  0.63450  Biso   1.000  C
  H111     1.0000 0.99890  0.74030  0.59350  Biso   1.000  H
  C140     1.0000 0.20010  0.74700  0.63640  Biso   1.000  C
  H112     1.0000 0.20460  0.74270  0.59560  Biso   1.000  H
  C141     1.0000 0.78970  0.61940  0.77650  Biso   1.000  C
  H113     1.0000 0.78440  0.61400  0.81690  Biso   1.000  H
  C142     1.0000 0.91580  0.61940  0.77900  Biso   1.000  C
  H114     1.0000 0.99300  0.61460  0.82050  Biso   1.000  H
  C143     1.0000 0.92590  0.62650  0.71880  Biso   1.000  C
  C144     1.0000 0.80490  0.63290  0.65780  Biso   1.000  C
  H115     1.0000 0.80620  0.63680  0.61620  Biso   1.000  H
  C145     1.0000 0.68320  0.63320  0.66040  Biso   1.000  C
  H116     1.0000 0.60380  0.63810  0.62000  Biso   1.000  H
  C146     1.0000 0.29850  0.64190  0.77480  Biso   1.000  C
  H117     1.0000 0.37650  0.64920  0.81480  Biso   1.000  H
  C147     1.0000 0.17560  0.64030  0.77700  Biso   1.000  C
  H118     1.0000 0.17140  0.64740  0.81720  Biso   1.000  H
  C148     1.0000 0.05930  0.62780  0.71740  Biso   1.000  C
  C149     1.0000 0.07130  0.61860  0.65930  Biso   1.000  C
  H119     1.0000 0.99550  0.61120  0.61840  Biso   1.000  H
  C150     1.0000 0.19830  0.62060  0.66200  Biso   1.000  C
  H120     1.0000 0.20540  0.61240  0.62290  Biso   1.000  H
  Cu7      1.0000 0.49716  0.24868  0.79910  Biso   1.000  Cu
  Cu8      1.0000 0.50564  0.13262  0.78022  Biso   1.000  Cu
  O19      1.0000 0.10830  0.44140  0.52290  Biso   1.000  O
  O20      1.0000 0.96010  0.39080  0.52460  Biso   1.000  O
  O21      1.0000 0.17790  0.23630  0.55680  Biso   1.000  O
  O22      1.0000 0.39370  0.23262  0.68780  Biso   1.000  O
  O23      1.0000 0.41030  0.15543  0.67460  Biso   1.000  O
  O24      1.0000 0.54090  0.18696  0.83870  Biso   1.000  O
  N25      1.0000 0.00790  0.50190  0.59180  Biso   1.000  N
  N26      1.0000 0.00040  0.50370  0.91010  Biso   1.000  N
  N27      1.0000 0.48130  0.31910  0.78480  Biso   1.000  N
  N28      1.0000 0.50640  0.56310  0.74090  Biso   1.000  N
  N29      1.0000 0.31880  0.24950  0.80380  Biso   1.000  N
  N30      1.0000 0.68380  0.25360  0.80470  Biso   1.000  N
  N31      1.0000 0.32390  0.12670  0.78120  Biso   1.000  N
  N32      1.0000 0.69170  0.13340  0.78300  Biso   1.000  N
  C151     1.0000 0.06870  0.40140  0.52540  Biso   1.000  C
  C152     1.0000 0.16530  0.36100  0.53410  Biso   1.000  C
  C153     1.0000 0.28880  0.37040  0.53180  Biso   1.000  C
  H121     1.0000 0.31040  0.40080  0.52580  Biso   1.000  H
  C154     1.0000 0.37670  0.33370  0.53850  Biso   1.000  C
  C155     1.0000 0.33870  0.28860  0.54760  Biso   1.000  C
  H122     1.0000 0.39670  0.26400  0.55290  Biso   1.000  H
  C156     1.0000 0.22380  0.27950  0.54910  Biso   1.000  C
  C157     1.0000 0.13490  0.31590  0.54190  Biso   1.000  C
  H123     1.0000 0.05410  0.30940  0.54240  Biso   1.000  H
  C158     1.0000 0.50800  0.34400  0.53770  Biso   1.000  C
  H124     1.0000 0.57940  0.34570  0.58410  Biso   1.000  H
  H125     1.0000 0.52710  0.31960  0.51360  Biso   1.000  H
  H126     1.0000 0.50110  0.37320  0.51500  Biso   1.000  H
  C159     1.0000 0.27010  0.19740  0.57550  Biso   1.000  C
  H127     1.0000 0.21910  0.16850  0.56190  Biso   1.000  H
  H128     1.0000 0.32270  0.19970  0.55090  Biso   1.000  H
  C160     1.0000 0.36660  0.19620  0.65380  Biso   1.000  C
  C161     1.0000 0.89530  0.51230  0.59660  Biso   1.000  C
  H129     1.0000 0.81680  0.51970  0.55700  Biso   1.000  H
  C162     1.0000 0.89370  0.51220  0.65860  Biso   1.000  C
  H130     1.0000 0.81380  0.51880  0.66000  Biso   1.000  H
  C163     1.0000 0.00810  0.50260  0.71860  Biso   1.000  C
  C164     1.0000 0.12580  0.49230  0.71400  Biso   1.000  C
  H131     1.0000 0.20590  0.48570  0.75330  Biso   1.000  H
  C165     1.0000 0.12080  0.49200  0.65010  Biso   1.000  C
  H132     1.0000 0.19880  0.48470  0.64710  Biso   1.000  H
  C166     1.0000 0.89250  0.49060  0.85220  Biso   1.000  C
  H133     1.0000 0.81420  0.48210  0.85410  Biso   1.000  H
  C167     1.0000 0.89370  0.48930  0.78970  Biso   1.000  C
  H134     1.0000 0.81820  0.47880  0.75070  Biso   1.000  H
  C168     1.0000 0.00610  0.50330  0.78510  Biso   1.000  C
  C169     1.0000 0.11880  0.51870  0.84560  Biso   1.000  C
  H135     1.0000 0.19730  0.52830  0.84480  Biso   1.000  H
  C170     1.0000 0.10900  0.51900  0.90620  Biso   1.000  C
  H136     1.0000 0.18150  0.53030  0.94580  Biso   1.000  H
  C171     1.0000 0.41710  0.33850  0.72280  Biso   1.000  C
  H137     1.0000 0.37030  0.31910  0.68510  Biso   1.000  H
  C172     1.0000 0.41660  0.38710  0.71160  Biso   1.000  C
  H138     1.0000 0.36930  0.39980  0.66780  Biso   1.000  H
  C173     1.0000 0.49040  0.41550  0.76910  Biso   1.000  C
  C174     1.0000 0.55330  0.39570  0.83340  Biso   1.000  C
  H139     1.0000 0.59940  0.41410  0.87230  Biso   1.000  H
  C175     1.0000 0.54630  0.34680  0.83920  Biso   1.000  C
  H140     1.0000 0.58860  0.33340  0.88270  Biso   1.000  H
  C176     1.0000 0.50550  0.54570  0.79630  Biso   1.000  C
  H141     1.0000 0.50790  0.56640  0.82950  Biso   1.000  H
  C177     1.0000 0.50100  0.49850  0.80740  Biso   1.000  C
  H142     1.0000 0.50220  0.48810  0.84770  Biso   1.000  H
  C178     1.0000 0.49490  0.46670  0.75920  Biso   1.000  C
  C179     1.0000 0.49790  0.48420  0.70150  Biso   1.000  C
  H143     1.0000 0.49560  0.46400  0.66790  Biso   1.000  H
  C180     1.0000 0.50430  0.53260  0.69340  Biso   1.000  C
  H144     1.0000 0.50720  0.54400  0.65450  Biso   1.000  H
  C181     1.0000 0.19960  0.24670  0.74610  Biso   1.000  C
  H145     1.0000 0.20080  0.24390  0.70420  Biso   1.000  H
  C182     1.0000 0.07730  0.24770  0.74560  Biso   1.000  C
  H146     1.0000 0.99880  0.24480  0.70410  Biso   1.000  H
  C183     1.0000 0.06920  0.25290  0.80490  Biso   1.000  C
  C184     1.0000 0.19180  0.25640  0.86640  Biso   1.000  C
  H147     1.0000 0.19250  0.26020  0.90860  Biso   1.000  H
  C185     1.0000 0.31250  0.25400  0.86190  Biso   1.000  C
  H148     1.0000 0.39320  0.25560  0.90250  Biso   1.000  H
  C186     1.0000 0.69360  0.26140  0.74550  Biso   1.000  C
  H149     1.0000 0.61580  0.26640  0.70430  Biso   1.000  H
  C187     1.0000 0.81580  0.26190  0.74670  Biso   1.000  C
  H150     1.0000 0.82000  0.26730  0.70600  Biso   1.000  H
  C188     1.0000 0.93310  0.25450  0.80590  Biso   1.000  C
  C189     1.0000 0.92390  0.24630  0.86550  Biso   1.000  C
  H151     1.0000 0.00110  0.24030  0.90650  Biso   1.000  H
  C190     1.0000 0.79990  0.24700  0.86360  Biso   1.000  C
  H152     1.0000 0.79540  0.24270  0.90440  Biso   1.000  H
  C191     1.0000 0.21030  0.11940  0.72350  Biso   1.000  C
  H153     1.0000 0.21560  0.11400  0.68310  Biso   1.000  H
  C192     1.0000 0.08420  0.11940  0.72100  Biso   1.000  C
  H154     1.0000 0.00700  0.11460  0.67950  Biso   1.000  H
  C193     1.0000 0.07410  0.12650  0.78120  Biso   1.000  C
  C194     1.0000 0.19510  0.13290  0.84220  Biso   1.000  C
  H155     1.0000 0.19380  0.13680  0.88380  Biso   1.000  H
  C195     1.0000 0.31680  0.13320  0.83960  Biso   1.000  C
  H156     1.0000 0.39620  0.13810  0.88000  Biso   1.000  H
  C196     1.0000 0.70150  0.14190  0.72520  Biso   1.000  C
  H157     1.0000 0.62350  0.14920  0.68520  Biso   1.000  H
  C197     1.0000 0.82440  0.14030  0.72300  Biso   1.000  C
  H158     1.0000 0.82860  0.14740  0.68280  Biso   1.000  H
  C198     1.0000 0.94070  0.12780  0.78260  Biso   1.000  C
  C199     1.0000 0.92870  0.11860  0.84070  Biso   1.000  C
  H159     1.0000 0.00450  0.11120  0.88160  Biso   1.000  H
  C200     1.0000 0.80170  0.12060  0.83800  Biso   1.000  C
  H160     1.0000 0.79460  0.11240  0.87710  Biso   1.000  H
  Cu9      1.0000 0.00000  0.00000  0.00000  Biso   1.000  Cu
  Cu10     1.0000 0.00000  0.50000  0.50000  Biso   1.000  Cu
  Cu11     1.0000 0.00000  0.00000  0.50000  Biso   1.000  Cu
  Cu12     1.0000 0.00000  0.50000  0.00000  Biso   1.000  Cu
