data_WENDIE_clean
_audit_creation_date              2014-07-02
_audit_creation_method            'Materials Studio'
_symmetry_space_group_name_H-M    'P1'
_symmetry_Int_Tables_number       1
_symmetry_cell_setting            triclinic
loop_
_symmetry_equiv_pos_as_xyz
  x,y,z
_cell_length_a                    7.9332
_cell_length_b                    9.9010
_cell_length_c                    17.2163
_cell_angle_alpha                 104.0700
_cell_angle_beta                  90.0000
_cell_angle_gamma                 113.6170
loop_
_atom_site_label
_atom_site_type_symbol
_atom_site_fract_x
_atom_site_fract_y
_atom_site_fract_z
_atom_site_U_iso_or_equiv
_atom_site_adp_type
_atom_site_occupancy
Zn1    Zn    0.18685   0.83268   0.75572   0.01267  Uiso   1.00
Zn2    Zn    0.33371   0.50092   0.75660   0.01267  Uiso   1.00
Zn3    Zn    0.35417   0.16732   0.24428   0.01267  Uiso   1.00
Zn4    Zn    0.83279   0.49908   0.24340   0.01267  Uiso   1.00
H1     H     0.87670   0.78620   0.60630   0.01267  Uiso   1.00
H2     H     0.82490   0.68500   0.46740   0.01267  Uiso   1.00
H3     H     0.47790   0.28220   0.49500   0.01267  Uiso   1.00
H4     H     0.54250   0.37280   0.63350   0.01267  Uiso   1.00
H5     H     0.14650   0.06660   0.89720   0.01267  Uiso   1.00
H6     H     0.24640   0.14480   0.03250   0.01267  Uiso   1.00
H7     H     0.68780   0.49640   0.99820   0.01267  Uiso   1.00
H8     H     0.58240   0.42200   0.86390   0.01267  Uiso   1.00
H9     H     0.09050   0.21380   0.39370   0.01267  Uiso   1.00
H10    H     0.13990   0.31500   0.53260   0.01267  Uiso   1.00
H11    H     0.19570   0.71780   0.50500   0.01267  Uiso   1.00
H12    H     0.16970   0.62720   0.36650   0.01267  Uiso   1.00
H13    H     0.07990   0.93340   0.10280   0.01267  Uiso   1.00
H14    H     0.10160   0.85520   0.96750   0.01267  Uiso   1.00
H15    H     0.19140   0.50360   0.00180   0.01267  Uiso   1.00
H16    H     0.16040   0.57800   0.13610   0.01267  Uiso   1.00
C1     C     0.74100   0.65920   0.72160   0.01267  Uiso   1.00
C2     C     0.71450   0.59220   0.63450   0.01267  Uiso   1.00
C3     C     0.79880   0.68380   0.58440   0.01267  Uiso   1.00
C4     C     0.76760   0.62320   0.50110   0.01267  Uiso   1.00
C5     C     0.65210   0.47200   0.46880   0.01267  Uiso   1.00
C6     C     0.56290   0.38220   0.51780   0.01267  Uiso   1.00
C7     C     0.59660   0.43720   0.60060   0.01267  Uiso   1.00
C8     C     0.60720   0.40640   0.37660   0.01267  Uiso   1.00
C9     C     0.28370   0.18740   0.77940   0.01267  Uiso   1.00
C10    C     0.35310   0.24220   0.86730   0.01267  Uiso   1.00
C11    C     0.25400   0.15460   0.91770   0.01267  Uiso   1.00
C12    C     0.31700   0.19960   0.99830   0.01267  Uiso   1.00
C13    C     0.47740   0.32020   0.02890   0.01267  Uiso   1.00
C14    C     0.57910   0.40960   0.97780   0.01267  Uiso   1.00
C15    C     0.51430   0.36580   0.89800   0.01267  Uiso   1.00
C16    C     0.55410   0.36180   0.11690   0.01267  Uiso   1.00
C17    C     0.08180   0.34080   0.27840   0.01267  Uiso   1.00
C18    C     0.12230   0.40780   0.36550   0.01267  Uiso   1.00
C19    C     0.11500   0.31620   0.41560   0.01267  Uiso   1.00
C20    C     0.14440   0.37680   0.49890   0.01267  Uiso   1.00
C21    C     0.18010   0.52800   0.53120   0.01267  Uiso   1.00
C22    C     0.18070   0.61780   0.48220   0.01267  Uiso   1.00
C23    C     0.15940   0.56280   0.39940   0.01267  Uiso   1.00
C24    C     0.20080   0.59360   0.62340   0.01267  Uiso   1.00
C25    C     0.09630   0.81260   0.22060   0.01267  Uiso   1.00
C26    C     0.11090   0.75780   0.13270   0.01267  Uiso   1.00
C27    C     0.09940   0.84540   0.08230   0.01267  Uiso   1.00
C28    C     0.11740   0.80040   0.00170   0.01267  Uiso   1.00
C29    C     0.15720   0.67980   0.97110   0.01267  Uiso   1.00
C30    C     0.16950   0.59040   0.02220   0.01267  Uiso   1.00
C31    C     0.14850   0.63420   0.10200   0.01267  Uiso   1.00
C32    C     0.19230   0.63820   0.88310   0.01267  Uiso   1.00
N1     N     0.60460   0.63440   0.76940   0.01267  Uiso   1.00
N2     N     0.68110   0.72400   0.84430   0.01267  Uiso   1.00
N3     N     0.85750   0.80000   0.84220   0.01267  Uiso   1.00
N4     N     0.89750   0.75960   0.76510   0.01267  Uiso   1.00
N5     N     0.28290   0.27740   0.73440   0.01267  Uiso   1.00
N6     N     0.19940   0.17940   0.66040   0.01267  Uiso   1.00
N7     N     0.15290   0.04060   0.66210   0.01267  Uiso   1.00
N8     N     0.20860   0.04000   0.73840   0.01267  Uiso   1.00
N9     N     0.97020   0.36560   0.23060   0.01267  Uiso   1.00
N10    N     0.95710   0.27600   0.15570   0.01267  Uiso   1.00
N11    N     0.05750   0.20000   0.15780   0.01267  Uiso   1.00
N12    N     0.13790   0.24040   0.23490   0.01267  Uiso   1.00
N13    N     0.00550   0.72260   0.26560   0.01267  Uiso   1.00
N14    N     0.02000   0.82060   0.33960   0.01267  Uiso   1.00
N15    N     0.11230   0.95940   0.33790   0.01267  Uiso   1.00
N16    N     0.16860   0.96000   0.26160   0.01267  Uiso   1.00
O1     O     0.49070   0.28080   0.35160   0.01267  Uiso   1.00
O2     O     0.70080   0.49720   0.33620   0.01267  Uiso   1.00
O3     O     0.46450   0.27220   0.15470   0.01267  Uiso   1.00
O4     O     0.70230   0.46920   0.14110   0.01267  Uiso   1.00
O5     O     0.20990   0.71920   0.64840   0.01267  Uiso   1.00
O6     O     0.20360   0.50280   0.66380   0.01267  Uiso   1.00
O7     O     0.19230   0.72780   0.84530   0.01267  Uiso   1.00
O8     O     0.23310   0.53080   0.85890   0.01267  Uiso   1.00
