data_WENKIL_clean5b
_audit_creation_date              2014-07-02
_audit_creation_method            'Materials Studio'
_symmetry_space_group_name_H-M    'P1'
_symmetry_Int_Tables_number       1
_symmetry_cell_setting            triclinic
loop_
_symmetry_equiv_pos_as_xyz
  x,y,z
_cell_length_a                    9.2706
_cell_length_b                    15.6630
_cell_length_c                    22.3100
_cell_angle_alpha                 102.2500
_cell_angle_beta                  101.4700
_cell_angle_gamma                 104.5100
loop_
_atom_site_label
_atom_site_type_symbol
_atom_site_fract_x
_atom_site_fract_y
_atom_site_fract_z
_atom_site_U_iso_or_equiv
_atom_site_adp_type
_atom_site_occupancy
Eu1    Eu    0.51438   0.86034   0.80213   0.01267  Uiso   1.00
Eu2    Eu    0.02951   0.91201   0.85658   0.01267  Uiso   1.00
Eu3    Eu    0.48562   0.13966   0.19787   0.01267  Uiso   1.00
Eu4    Eu    0.97049   0.08799   0.14342   0.01267  Uiso   1.00
H1     H     0.86890   0.83500   0.66510   0.01267  Uiso   1.00
H2     H     0.74690   0.83490   0.56680   0.01267  Uiso   1.00
H3     H     0.28100   0.91460   0.62680   0.01267  Uiso   1.00
H4     H     0.66820   0.78630   0.45140   0.01267  Uiso   1.00
H5     H     0.66810   0.88640   0.48100   0.01267  Uiso   1.00
H6     H     0.68150   0.85730   0.41110   0.01267  Uiso   1.00
H7     H     0.98400   0.84950   0.37030   0.01267  Uiso   1.00
H8     H     0.97100   0.90470   0.28140   0.01267  Uiso   1.00
H9     H     0.43000   0.01260   0.33230   0.01267  Uiso   1.00
H10    H     0.44210   0.95270   0.41990   0.01267  Uiso   1.00
H11    H     0.00440   0.66210   0.90850   0.01267  Uiso   1.00
H12    H     0.94220   0.51890   0.92590   0.01267  Uiso   1.00
H13    H     0.27330   0.46380   0.84700   0.01267  Uiso   1.00
H14    H     0.33840   0.60970   0.83250   0.01267  Uiso   1.00
H15    H     0.12690   0.26660   0.02150   0.01267  Uiso   1.00
H16    H     0.50940   0.19200   0.03110   0.01267  Uiso   1.00
H17    H     0.59420   0.29350   0.97480   0.01267  Uiso   1.00
H18    H     0.68240   0.44520   0.96370   0.01267  Uiso   1.00
H19    H     0.61400   0.36830   0.89890   0.01267  Uiso   1.00
H20    H     0.61950   0.46970   0.90100   0.01267  Uiso   1.00
H21    H     0.59120   0.56260   0.80170   0.01267  Uiso   1.00
H22    H     0.99200   0.56380   0.70670   0.01267  Uiso   1.00
H23    H     0.92330   0.69420   0.73310   0.01267  Uiso   1.00
H24    H     0.93380   0.36440   0.64820   0.01267  Uiso   1.00
H25    H     0.04770   0.45520   0.69700   0.01267  Uiso   1.00
H26    H     0.04110   0.36040   0.71070   0.01267  Uiso   1.00
H27    H     0.25930   0.27160   0.79070   0.01267  Uiso   1.00
H28    H     0.23230   0.15690   0.84190   0.01267  Uiso   1.00
H29    H     0.58890   0.09370   0.79040   0.01267  Uiso   1.00
H30    H     0.62300   0.20980   0.73990   0.01267  Uiso   1.00
H31    H     0.13110   0.16500   0.33490   0.01267  Uiso   1.00
H32    H     0.25310   0.16510   0.43320   0.01267  Uiso   1.00
H33    H     0.71900   0.08540   0.37320   0.01267  Uiso   1.00
H34    H     0.33180   0.21370   0.54860   0.01267  Uiso   1.00
H35    H     0.33190   0.11360   0.51900   0.01267  Uiso   1.00
H36    H     0.31850   0.14270   0.58890   0.01267  Uiso   1.00
H37    H     0.01600   0.15050   0.62970   0.01267  Uiso   1.00
H38    H     0.02900   0.09530   0.71860   0.01267  Uiso   1.00
H39    H     0.57000   0.98740   0.66770   0.01267  Uiso   1.00
H40    H     0.55790   0.04730   0.58010   0.01267  Uiso   1.00
H41    H     0.99560   0.33790   0.09150   0.01267  Uiso   1.00
H42    H     0.05780   0.48110   0.07410   0.01267  Uiso   1.00
H43    H     0.72670   0.53620   0.15300   0.01267  Uiso   1.00
H44    H     0.66160   0.39030   0.16750   0.01267  Uiso   1.00
H45    H     0.87310   0.73340   0.97850   0.01267  Uiso   1.00
H46    H     0.49060   0.80800   0.96890   0.01267  Uiso   1.00
H47    H     0.40580   0.70650   0.02520   0.01267  Uiso   1.00
H48    H     0.31760   0.55480   0.03630   0.01267  Uiso   1.00
H49    H     0.38600   0.63170   0.10110   0.01267  Uiso   1.00
H50    H     0.38050   0.53030   0.09900   0.01267  Uiso   1.00
H51    H     0.40880   0.43740   0.19830   0.01267  Uiso   1.00
H52    H     0.00800   0.43620   0.29330   0.01267  Uiso   1.00
H53    H     0.07670   0.30580   0.26690   0.01267  Uiso   1.00
H54    H     0.06620   0.63560   0.35180   0.01267  Uiso   1.00
H55    H     0.95230   0.54480   0.30300   0.01267  Uiso   1.00
H56    H     0.95890   0.63960   0.28930   0.01267  Uiso   1.00
H57    H     0.74070   0.72840   0.20930   0.01267  Uiso   1.00
H58    H     0.76770   0.84310   0.15810   0.01267  Uiso   1.00
H59    H     0.41110   0.90630   0.20960   0.01267  Uiso   1.00
H60    H     0.37700   0.79020   0.26010   0.01267  Uiso   1.00
C1     C     0.16970   0.87640   0.72290   0.01267  Uiso   1.00
C2     C     0.09040   0.87630   0.65850   0.01267  Uiso   1.00
C3     C     0.92720   0.85150   0.63760   0.01267  Uiso   1.00
C4     C     0.85430   0.85100   0.57880   0.01267  Uiso   1.00
C5     C     0.93600   0.87410   0.53610   0.01267  Uiso   1.00
C6     C     0.09350   0.89800   0.55590   0.01267  Uiso   1.00
C7     C     0.17370   0.89900   0.61560   0.01267  Uiso   1.00
C8     C     0.70940   0.84970   0.45300   0.01267  Uiso   1.00
C9     C     0.21480   0.89280   0.40120   0.01267  Uiso   1.00
C10    C     0.07400   0.88050   0.36200   0.01267  Uiso   1.00
C11    C     0.06650   0.91510   0.30930   0.01267  Uiso   1.00
C12    C     0.19930   0.96460   0.29800   0.01267  Uiso   1.00
C13    C     0.33980   0.97890   0.33910   0.01267  Uiso   1.00
C14    C     0.34710   0.94270   0.39160   0.01267  Uiso   1.00
C15    C     0.19000   0.00500   0.24190   0.01267  Uiso   1.00
C16    C     0.20650   0.74220   0.85470   0.01267  Uiso   1.00
C17    C     0.17440   0.64890   0.86770   0.01267  Uiso   1.00
C18    C     0.05860   0.62190   0.89620   0.01267  Uiso   1.00
C19    C     0.02130   0.53680   0.90700   0.01267  Uiso   1.00
C20    C     0.10410   0.47860   0.88900   0.01267  Uiso   1.00
C21    C     0.22040   0.50440   0.86000   0.01267  Uiso   1.00
C22    C     0.25770   0.59100   0.85040   0.01267  Uiso   1.00
C23    C     0.27170   0.33280   0.98060   0.01267  Uiso   1.00
C24    C     0.22200   0.27220   0.01250   0.01267  Uiso   1.00
C25    C     0.30860   0.21780   0.03220   0.01267  Uiso   1.00
C26    C     0.44850   0.22720   0.01810   0.01267  Uiso   1.00
C27    C     0.50000   0.28870   0.98450   0.01267  Uiso   1.00
C28    C     0.41210   0.34330   0.96530   0.01267  Uiso   1.00
C29    C     0.25140   0.15440   0.06960   0.01267  Uiso   1.00
C30    C     0.60510   0.42390   0.92360   0.01267  Uiso   1.00
C31    C     0.70100   0.72710   0.78830   0.01267  Uiso   1.00
C32    C     0.75070   0.64310   0.77080   0.01267  Uiso   1.00
C33    C     0.67180   0.56330   0.78260   0.01267  Uiso   1.00
C34    C     0.71340   0.48580   0.76590   0.01267  Uiso   1.00
C35    C     0.83240   0.48360   0.73730   0.01267  Uiso   1.00
C36    C     0.91110   0.56340   0.72560   0.01267  Uiso   1.00
C37    C     0.87040   0.64130   0.74170   0.01267  Uiso   1.00
C38    C     0.98130   0.39500   0.69250   0.01267  Uiso   1.00
C39    C     0.44700   0.25210   0.76250   0.01267  Uiso   1.00
C40    C     0.32660   0.23640   0.79150   0.01267  Uiso   1.00
C41    C     0.31010   0.16740   0.82120   0.01267  Uiso   1.00
C42    C     0.40760   0.11330   0.82080   0.01267  Uiso   1.00
C43    C     0.52340   0.13000   0.79060   0.01267  Uiso   1.00
C44    C     0.54520   0.19940   0.76060   0.01267  Uiso   1.00
C45    C     0.38890   0.03830   0.85380   0.01267  Uiso   1.00
C46    C     0.83030   0.12360   0.27710   0.01267  Uiso   1.00
C47    C     0.90960   0.12370   0.34150   0.01267  Uiso   1.00
C48    C     0.07280   0.14850   0.36240   0.01267  Uiso   1.00
C49    C     0.14570   0.14900   0.42120   0.01267  Uiso   1.00
C50    C     0.06400   0.12590   0.46390   0.01267  Uiso   1.00
C51    C     0.90650   0.10200   0.44410   0.01267  Uiso   1.00
C52    C     0.82630   0.10100   0.38440   0.01267  Uiso   1.00
C53    C     0.29060   0.15030   0.54700   0.01267  Uiso   1.00
C54    C     0.78520   0.10720   0.59880   0.01267  Uiso   1.00
C55    C     0.92600   0.11950   0.63800   0.01267  Uiso   1.00
C56    C     0.93350   0.08490   0.69070   0.01267  Uiso   1.00
C57    C     0.80070   0.03540   0.70200   0.01267  Uiso   1.00
C58    C     0.66020   0.02110   0.66090   0.01267  Uiso   1.00
C59    C     0.65290   0.05730   0.60840   0.01267  Uiso   1.00
C60    C     0.81000   0.99500   0.75810   0.01267  Uiso   1.00
C61    C     0.79350   0.25780   0.14530   0.01267  Uiso   1.00
C62    C     0.82560   0.35110   0.13230   0.01267  Uiso   1.00
C63    C     0.94140   0.37810   0.10380   0.01267  Uiso   1.00
C64    C     0.97870   0.46320   0.09300   0.01267  Uiso   1.00
C65    C     0.89590   0.52140   0.11100   0.01267  Uiso   1.00
C66    C     0.77960   0.49560   0.14000   0.01267  Uiso   1.00
C67    C     0.74230   0.40900   0.14960   0.01267  Uiso   1.00
C68    C     0.72830   0.66720   0.01940   0.01267  Uiso   1.00
C69    C     0.77800   0.72780   0.98750   0.01267  Uiso   1.00
C70    C     0.69140   0.78220   0.96780   0.01267  Uiso   1.00
C71    C     0.55150   0.77280   0.98190   0.01267  Uiso   1.00
C72    C     0.50000   0.71130   0.01550   0.01267  Uiso   1.00
C73    C     0.58790   0.65670   0.03470   0.01267  Uiso   1.00
C74    C     0.74860   0.84560   0.93040   0.01267  Uiso   1.00
C75    C     0.39490   0.57610   0.07640   0.01267  Uiso   1.00
C76    C     0.29900   0.27290   0.21170   0.01267  Uiso   1.00
C77    C     0.24930   0.35690   0.22920   0.01267  Uiso   1.00
C78    C     0.32820   0.43670   0.21740   0.01267  Uiso   1.00
C79    C     0.28660   0.51420   0.23410   0.01267  Uiso   1.00
C80    C     0.16760   0.51640   0.26270   0.01267  Uiso   1.00
C81    C     0.08890   0.43660   0.27440   0.01267  Uiso   1.00
C82    C     0.12960   0.35870   0.25830   0.01267  Uiso   1.00
C83    C     0.01870   0.60500   0.30750   0.01267  Uiso   1.00
C84    C     0.55300   0.74790   0.23750   0.01267  Uiso   1.00
C85    C     0.67340   0.76360   0.20850   0.01267  Uiso   1.00
C86    C     0.68990   0.83260   0.17880   0.01267  Uiso   1.00
C87    C     0.59240   0.88670   0.17920   0.01267  Uiso   1.00
C88    C     0.47660   0.87000   0.20940   0.01267  Uiso   1.00
C89    C     0.45480   0.80060   0.23940   0.01267  Uiso   1.00
C90    C     0.61110   0.96170   0.14620   0.01267  Uiso   1.00
S1     S     0.22590   0.84884   0.46751   0.01267  Uiso   1.00
S2     S     0.06000   0.36935   0.90257   0.01267  Uiso   1.00
S3     S     0.47460   0.34414   0.72837   0.01267  Uiso   1.00
S4     S     0.77410   0.15116   0.53249   0.01267  Uiso   1.00
S5     S     0.94000   0.63065   0.09743   0.01267  Uiso   1.00
S6     S     0.52540   0.65586   0.27163   0.01267  Uiso   1.00
O1     O     0.08950   0.86100   0.76140   0.01267  Uiso   1.00
O2     O     0.31210   0.88950   0.73550   0.01267  Uiso   1.00
O3     O     0.87610   0.87830   0.47640   0.01267  Uiso   1.00
O4     O     0.18240   0.92530   0.51390   0.01267  Uiso   1.00
O5     O     0.10930   0.76370   0.45250   0.01267  Uiso   1.00
O6     O     0.38340   0.85650   0.49470   0.01267  Uiso   1.00
O7     O     0.05980   0.00100   0.21070   0.01267  Uiso   1.00
O8     O     0.31570   0.03650   0.22930   0.01267  Uiso   1.00
O9     O     0.12990   0.79250   0.87320   0.01267  Uiso   1.00
O10    O     0.30830   0.76280   0.82510   0.01267  Uiso   1.00
O11    O     0.91330   0.34860   0.91710   0.01267  Uiso   1.00
O12    O     0.08640   0.30360   0.85570   0.01267  Uiso   1.00
O13    O     0.19160   0.39480   0.96830   0.01267  Uiso   1.00
O14    O     0.49690   0.00160   0.86230   0.01267  Uiso   1.00
O15    O     0.27000   0.01760   0.87220   0.01267  Uiso   1.00
O16    O     0.12060   0.14600   0.07590   0.01267  Uiso   1.00
O17    O     0.34110   0.11470   0.09420   0.01267  Uiso   1.00
O18    O     0.36410   0.39120   0.73630   0.01267  Uiso   1.00
O19    O     0.63540   0.40520   0.77880   0.01267  Uiso   1.00
O20    O     0.57190   0.71690   0.80120   0.01267  Uiso   1.00
O21    O     0.45420   0.40660   0.93470   0.01267  Uiso   1.00
O22    O     0.78580   0.80520   0.78960   0.01267  Uiso   1.00
O23    O     0.86360   0.40270   0.72480   0.01267  Uiso   1.00
O24    O     0.50090   0.31950   0.66810   0.01267  Uiso   1.00
O25    O     0.91050   0.13900   0.23860   0.01267  Uiso   1.00
O26    O     0.68790   0.11050   0.26450   0.01267  Uiso   1.00
O27    O     0.12390   0.12170   0.52360   0.01267  Uiso   1.00
O28    O     0.81760   0.07470   0.48610   0.01267  Uiso   1.00
O29    O     0.89070   0.23630   0.54750   0.01267  Uiso   1.00
O30    O     0.61660   0.14350   0.50530   0.01267  Uiso   1.00
O31    O     0.94020   0.99900   0.78930   0.01267  Uiso   1.00
O32    O     0.68430   0.96350   0.77070   0.01267  Uiso   1.00
O33    O     0.87010   0.20750   0.12680   0.01267  Uiso   1.00
O34    O     0.69170   0.23720   0.17490   0.01267  Uiso   1.00
O35    O     0.08670   0.65140   0.08290   0.01267  Uiso   1.00
O36    O     0.91360   0.69640   0.14430   0.01267  Uiso   1.00
O37    O     0.80840   0.60520   0.03170   0.01267  Uiso   1.00
O38    O     0.50310   0.99840   0.13770   0.01267  Uiso   1.00
O39    O     0.73000   0.98240   0.12780   0.01267  Uiso   1.00
O40    O     0.87940   0.85400   0.92410   0.01267  Uiso   1.00
O41    O     0.65890   0.88530   0.90580   0.01267  Uiso   1.00
O42    O     0.63590   0.60880   0.26370   0.01267  Uiso   1.00
O43    O     0.36460   0.59480   0.22120   0.01267  Uiso   1.00
O44    O     0.42810   0.28310   0.19880   0.01267  Uiso   1.00
O45    O     0.54580   0.59340   0.06530   0.01267  Uiso   1.00
O46    O     0.21420   0.19480   0.21040   0.01267  Uiso   1.00
O47    O     0.13640   0.59730   0.27520   0.01267  Uiso   1.00
O48    O     0.49910   0.68050   0.33190   0.01267  Uiso   1.00
