data_WENKEH_clean
_audit_creation_date              2014-07-02
_audit_creation_method            'Materials Studio'
_symmetry_space_group_name_H-M    'P1'
_symmetry_Int_Tables_number       1
_symmetry_cell_setting            triclinic
loop_
_symmetry_equiv_pos_as_xyz
  x,y,z
_cell_length_a                    9.3379
_cell_length_b                    15.7100
_cell_length_c                    22.4310
_cell_angle_alpha                 102.4700
_cell_angle_beta                  101.7100
_cell_angle_gamma                 104.9000
loop_
_atom_site_label
_atom_site_type_symbol
_atom_site_fract_x
_atom_site_fract_y
_atom_site_fract_z
_atom_site_U_iso_or_equiv
_atom_site_adp_type
_atom_site_occupancy
Pr1    Pr    0.52254   0.86191   0.80190   0.01267  Uiso   1.00
Pr2    Pr    0.03597   0.91253   0.85751   0.01267  Uiso   1.00
Pr3    Pr    0.47746   0.13809   0.19810   0.01267  Uiso   1.00
Pr4    Pr    0.96403   0.08747   0.14249   0.01267  Uiso   1.00
H1     H     0.87560   0.83620   0.66730   0.01267  Uiso   1.00
H2     H     0.74730   0.83510   0.56850   0.01267  Uiso   1.00
H3     H     0.27860   0.91120   0.62550   0.01267  Uiso   1.00
H4     H     0.66460   0.78700   0.44980   0.01267  Uiso   1.00
H5     H     0.67050   0.88570   0.48580   0.01267  Uiso   1.00
H6     H     0.67970   0.86440   0.41530   0.01267  Uiso   1.00
H7     H     0.97740   0.84840   0.37040   0.01267  Uiso   1.00
H8     H     0.96070   0.90420   0.28260   0.01267  Uiso   1.00
H9     H     0.41680   0.00660   0.32930   0.01267  Uiso   1.00
H10    H     0.43950   0.95330   0.41920   0.01267  Uiso   1.00
H11    H     0.00930   0.66150   0.90760   0.01267  Uiso   1.00
H12    H     0.95360   0.52020   0.92570   0.01267  Uiso   1.00
H13    H     0.28370   0.46640   0.84900   0.01267  Uiso   1.00
H14    H     0.34180   0.60940   0.83210   0.01267  Uiso   1.00
H15    H     0.13400   0.27530   0.02310   0.01267  Uiso   1.00
H16    H     0.50330   0.18840   0.02990   0.01267  Uiso   1.00
H17    H     0.59590   0.28720   0.97400   0.01267  Uiso   1.00
H18    H     0.69790   0.42830   0.96130   0.01267  Uiso   1.00
H19    H     0.61690   0.36060   0.89310   0.01267  Uiso   1.00
H20    H     0.64370   0.46620   0.90440   0.01267  Uiso   1.00
H21    H     0.59470   0.56040   0.80110   0.01267  Uiso   1.00
H22    H     0.99180   0.56560   0.70610   0.01267  Uiso   1.00
H23    H     0.92780   0.69700   0.73610   0.01267  Uiso   1.00
H24    H     0.96060   0.41250   0.65390   0.01267  Uiso   1.00
H25    H     0.08170   0.43680   0.71960   0.01267  Uiso   1.00
H26    H     0.98500   0.33420   0.68390   0.01267  Uiso   1.00
H27    H     0.26580   0.27160   0.79060   0.01267  Uiso   1.00
H28    H     0.23940   0.15950   0.84220   0.01267  Uiso   1.00
H29    H     0.59430   0.09590   0.78820   0.01267  Uiso   1.00
H30    H     0.61850   0.20970   0.73760   0.01267  Uiso   1.00
H31    H     0.51910   0.73720   0.69630   0.01267  Uiso   1.00
H32    H     0.47890   0.81590   0.69050   0.01267  Uiso   1.00
H33    H     0.12440   0.16380   0.33270   0.01267  Uiso   1.00
H34    H     0.25270   0.16490   0.43150   0.01267  Uiso   1.00
H35    H     0.72140   0.08880   0.37450   0.01267  Uiso   1.00
H36    H     0.33540   0.21300   0.55020   0.01267  Uiso   1.00
H37    H     0.32950   0.11430   0.51420   0.01267  Uiso   1.00
H38    H     0.32030   0.13560   0.58470   0.01267  Uiso   1.00
H39    H     0.02260   0.15160   0.62960   0.01267  Uiso   1.00
H40    H     0.03930   0.09580   0.71740   0.01267  Uiso   1.00
H41    H     0.58320   0.99340   0.67070   0.01267  Uiso   1.00
H42    H     0.56050   0.04670   0.58080   0.01267  Uiso   1.00
H43    H     0.99070   0.33850   0.09240   0.01267  Uiso   1.00
H44    H     0.04640   0.47980   0.07430   0.01267  Uiso   1.00
H45    H     0.71630   0.53360   0.15100   0.01267  Uiso   1.00
H46    H     0.65820   0.39060   0.16790   0.01267  Uiso   1.00
H47    H     0.86600   0.72470   0.97690   0.01267  Uiso   1.00
H48    H     0.49670   0.81160   0.97010   0.01267  Uiso   1.00
H49    H     0.40410   0.71280   0.02600   0.01267  Uiso   1.00
H50    H     0.30210   0.57170   0.03870   0.01267  Uiso   1.00
H51    H     0.38310   0.63940   0.10690   0.01267  Uiso   1.00
H52    H     0.35630   0.53380   0.09560   0.01267  Uiso   1.00
H53    H     0.40530   0.43960   0.19890   0.01267  Uiso   1.00
H54    H     0.00820   0.43440   0.29390   0.01267  Uiso   1.00
H55    H     0.07220   0.30300   0.26390   0.01267  Uiso   1.00
H56    H     0.03940   0.58750   0.34610   0.01267  Uiso   1.00
H57    H     0.91830   0.56320   0.28040   0.01267  Uiso   1.00
H58    H     0.01500   0.66580   0.31610   0.01267  Uiso   1.00
H59    H     0.73420   0.72840   0.20940   0.01267  Uiso   1.00
H60    H     0.76060   0.84050   0.15780   0.01267  Uiso   1.00
H61    H     0.40570   0.90410   0.21180   0.01267  Uiso   1.00
H62    H     0.38150   0.79030   0.26240   0.01267  Uiso   1.00
H63    H     0.48090   0.26280   0.30370   0.01267  Uiso   1.00
H64    H     0.52110   0.18410   0.30950   0.01267  Uiso   1.00
C1     C     0.17380   0.87540   0.72190   0.01267  Uiso   1.00
C2     C     0.09210   0.87650   0.65790   0.01267  Uiso   1.00
C3     C     0.93130   0.85220   0.63910   0.01267  Uiso   1.00
C4     C     0.85420   0.85140   0.57980   0.01267  Uiso   1.00
C5     C     0.93350   0.87460   0.53650   0.01267  Uiso   1.00
C6     C     0.09370   0.89930   0.55570   0.01267  Uiso   1.00
C7     C     0.17210   0.89780   0.61490   0.01267  Uiso   1.00
C8     C     0.70840   0.85150   0.45520   0.01267  Uiso   1.00
C9     C     0.20800   0.89430   0.40190   0.01267  Uiso   1.00
C10    C     0.06650   0.88040   0.36220   0.01267  Uiso   1.00
C11    C     0.05660   0.91410   0.30980   0.01267  Uiso   1.00
C12    C     0.18820   0.96200   0.29810   0.01267  Uiso   1.00
C13    C     0.32820   0.97510   0.33810   0.01267  Uiso   1.00
C14    C     0.34360   0.94280   0.39170   0.01267  Uiso   1.00
C15    C     0.17500   0.99880   0.24160   0.01267  Uiso   1.00
C16    C     0.21280   0.74140   0.85430   0.01267  Uiso   1.00
C17    C     0.18110   0.64990   0.86770   0.01267  Uiso   1.00
C18    C     0.06500   0.62240   0.89600   0.01267  Uiso   1.00
C19    C     0.03180   0.53820   0.90680   0.01267  Uiso   1.00
C20    C     0.11420   0.47920   0.88980   0.01267  Uiso   1.00
C21    C     0.22920   0.50590   0.86120   0.01267  Uiso   1.00
C22    C     0.26310   0.59120   0.85070   0.01267  Uiso   1.00
C23    C     0.28480   0.33720   0.98210   0.01267  Uiso   1.00
C24    C     0.22750   0.27800   0.01390   0.01267  Uiso   1.00
C25    C     0.30930   0.22200   0.03240   0.01267  Uiso   1.00
C26    C     0.44790   0.22600   0.01740   0.01267  Uiso   1.00
C27    C     0.50380   0.28540   0.98430   0.01267  Uiso   1.00
C28    C     0.42280   0.34240   0.96630   0.01267  Uiso   1.00
C29    C     0.24750   0.15980   0.06960   0.01267  Uiso   1.00
C30    C     0.62000   0.41590   0.92250   0.01267  Uiso   1.00
C31    C     0.70140   0.72480   0.78830   0.01267  Uiso   1.00
C32    C     0.75470   0.64280   0.77190   0.01267  Uiso   1.00
C33    C     0.67560   0.56220   0.78250   0.01267  Uiso   1.00
C34    C     0.71850   0.48550   0.76530   0.01267  Uiso   1.00
C35    C     0.83640   0.48500   0.73750   0.01267  Uiso   1.00
C36    C     0.91330   0.56500   0.72580   0.01267  Uiso   1.00
C37    C     0.87420   0.64320   0.74340   0.01267  Uiso   1.00
C38    C     0.98310   0.39640   0.69290   0.01267  Uiso   1.00
C39    C     0.44780   0.25220   0.76130   0.01267  Uiso   1.00
C40    C     0.33230   0.23660   0.79110   0.01267  Uiso   1.00
C41    C     0.31600   0.16960   0.82130   0.01267  Uiso   1.00
C42    C     0.41470   0.11620   0.82080   0.01267  Uiso   1.00
C43    C     0.52870   0.13160   0.78910   0.01267  Uiso   1.00
C44    C     0.54350   0.19950   0.75920   0.01267  Uiso   1.00
C45    C     0.40130   0.04100   0.85510   0.01267  Uiso   1.00
C46    C     0.82620   0.12460   0.27810   0.01267  Uiso   1.00
C47    C     0.90790   0.12350   0.34210   0.01267  Uiso   1.00
C48    C     0.06870   0.14780   0.36090   0.01267  Uiso   1.00
C49    C     0.14580   0.14860   0.42020   0.01267  Uiso   1.00
C50    C     0.06650   0.12540   0.46350   0.01267  Uiso   1.00
C51    C     0.90630   0.10070   0.44430   0.01267  Uiso   1.00
C52    C     0.82790   0.10220   0.38510   0.01267  Uiso   1.00
C53    C     0.29160   0.14850   0.54480   0.01267  Uiso   1.00
C54    C     0.79200   0.10570   0.59810   0.01267  Uiso   1.00
C55    C     0.93350   0.11960   0.63780   0.01267  Uiso   1.00
C56    C     0.94340   0.08590   0.69020   0.01267  Uiso   1.00
C57    C     0.81180   0.03800   0.70190   0.01267  Uiso   1.00
C58    C     0.67180   0.02490   0.66190   0.01267  Uiso   1.00
C59    C     0.65640   0.05720   0.60830   0.01267  Uiso   1.00
C60    C     0.82500   0.00120   0.75840   0.01267  Uiso   1.00
C61    C     0.78720   0.25860   0.14570   0.01267  Uiso   1.00
C62    C     0.81890   0.35010   0.13230   0.01267  Uiso   1.00
C63    C     0.93500   0.37760   0.10400   0.01267  Uiso   1.00
C64    C     0.96820   0.46180   0.09320   0.01267  Uiso   1.00
C65    C     0.88580   0.52080   0.11020   0.01267  Uiso   1.00
C66    C     0.77080   0.49410   0.13880   0.01267  Uiso   1.00
C67    C     0.73690   0.40880   0.14930   0.01267  Uiso   1.00
C68    C     0.71520   0.66280   0.01790   0.01267  Uiso   1.00
C69    C     0.77250   0.72200   0.98610   0.01267  Uiso   1.00
C70    C     0.69070   0.77800   0.96760   0.01267  Uiso   1.00
C71    C     0.55210   0.77400   0.98260   0.01267  Uiso   1.00
C72    C     0.49620   0.71460   0.01570   0.01267  Uiso   1.00
C73    C     0.57720   0.65760   0.03370   0.01267  Uiso   1.00
C74    C     0.75250   0.84020   0.93040   0.01267  Uiso   1.00
C75    C     0.38000   0.58410   0.07750   0.01267  Uiso   1.00
C76    C     0.29860   0.27520   0.21170   0.01267  Uiso   1.00
C77    C     0.24530   0.35720   0.22810   0.01267  Uiso   1.00
C78    C     0.32440   0.43780   0.21750   0.01267  Uiso   1.00
C79    C     0.28150   0.51450   0.23470   0.01267  Uiso   1.00
C80    C     0.16360   0.51500   0.26250   0.01267  Uiso   1.00
C81    C     0.08670   0.43500   0.27420   0.01267  Uiso   1.00
C82    C     0.12580   0.35680   0.25660   0.01267  Uiso   1.00
C83    C     0.01690   0.60360   0.30710   0.01267  Uiso   1.00
C84    C     0.55220   0.74780   0.23870   0.01267  Uiso   1.00
C85    C     0.66770   0.76340   0.20890   0.01267  Uiso   1.00
C86    C     0.68400   0.83040   0.17870   0.01267  Uiso   1.00
C87    C     0.58530   0.88380   0.17920   0.01267  Uiso   1.00
C88    C     0.47130   0.86840   0.21090   0.01267  Uiso   1.00
C89    C     0.45650   0.80050   0.24080   0.01267  Uiso   1.00
C90    C     0.59870   0.95900   0.14490   0.01267  Uiso   1.00
S1     S     0.22240   0.84961   0.46792   0.01267  Uiso   1.00
S2     S     0.07420   0.37221   0.90464   0.01267  Uiso   1.00
S3     S     0.47850   0.34373   0.72817   0.01267  Uiso   1.00
S4     S     0.77760   0.15039   0.53208   0.01267  Uiso   1.00
S5     S     0.92580   0.62779   0.09536   0.01267  Uiso   1.00
S6     S     0.52150   0.65627   0.27183   0.01267  Uiso   1.00
O1     O     0.09510   0.85970   0.76080   0.01267  Uiso   1.00
O2     O     0.31760   0.89090   0.73410   0.01267  Uiso   1.00
O3     O     0.87240   0.87730   0.47700   0.01267  Uiso   1.00
O4     O     0.17730   0.92530   0.51370   0.01267  Uiso   1.00
O5     O     0.10630   0.76310   0.45270   0.01267  Uiso   1.00
O6     O     0.37920   0.85830   0.49490   0.01267  Uiso   1.00
O7     O     0.04800   0.99620   0.21140   0.01267  Uiso   1.00
O8     O     0.29970   0.03100   0.22790   0.01267  Uiso   1.00
O9     O     0.14050   0.79190   0.87420   0.01267  Uiso   1.00
O10    O     0.30970   0.76030   0.82350   0.01267  Uiso   1.00
O11    O     0.93380   0.35060   0.92120   0.01267  Uiso   1.00
O12    O     0.09700   0.30510   0.85730   0.01267  Uiso   1.00
O13    O     0.21090   0.40000   0.96790   0.01267  Uiso   1.00
O14    O     0.50750   0.00740   0.86360   0.01267  Uiso   1.00
O15    O     0.28230   0.01990   0.87370   0.01267  Uiso   1.00
O16    O     0.11690   0.15420   0.07620   0.01267  Uiso   1.00
O17    O     0.33110   0.11500   0.09240   0.01267  Uiso   1.00
O18    O     0.36680   0.38930   0.73550   0.01267  Uiso   1.00
O19    O     0.63870   0.40490   0.77780   0.01267  Uiso   1.00
O20    O     0.44570   0.75940   0.68820   0.01267  Uiso   1.00
O21    O     0.57300   0.71330   0.80040   0.01267  Uiso   1.00
O22    O     0.47070   0.40460   0.93550   0.01267  Uiso   1.00
O23    O     0.78220   0.80460   0.78910   0.01267  Uiso   1.00
O24    O     0.86810   0.40480   0.72420   0.01267  Uiso   1.00
O25    O     0.50410   0.31770   0.66780   0.01267  Uiso   1.00
O26    O     0.90490   0.14030   0.23920   0.01267  Uiso   1.00
O27    O     0.68240   0.10910   0.26590   0.01267  Uiso   1.00
O28    O     0.12760   0.12270   0.52300   0.01267  Uiso   1.00
O29    O     0.82270   0.07470   0.48630   0.01267  Uiso   1.00
O30    O     0.89370   0.23690   0.54730   0.01267  Uiso   1.00
O31    O     0.62080   0.14170   0.50510   0.01267  Uiso   1.00
O32    O     0.95200   0.00380   0.78860   0.01267  Uiso   1.00
O33    O     0.70030   0.96900   0.77210   0.01267  Uiso   1.00
O34    O     0.85950   0.20810   0.12580   0.01267  Uiso   1.00
O35    O     0.69030   0.23970   0.17650   0.01267  Uiso   1.00
O36    O     0.06620   0.64940   0.07880   0.01267  Uiso   1.00
O37    O     0.90300   0.69490   0.14270   0.01267  Uiso   1.00
O38    O     0.78910   0.60000   0.03210   0.01267  Uiso   1.00
O39    O     0.49250   0.99260   0.13640   0.01267  Uiso   1.00
O40    O     0.71770   0.98010   0.12630   0.01267  Uiso   1.00
O41    O     0.88310   0.84580   0.92380   0.01267  Uiso   1.00
O42    O     0.66890   0.88500   0.90760   0.01267  Uiso   1.00
O43    O     0.63320   0.61070   0.26450   0.01267  Uiso   1.00
O44    O     0.36130   0.59510   0.22220   0.01267  Uiso   1.00
O45    O     0.55430   0.24060   0.31180   0.01267  Uiso   1.00
O46    O     0.42700   0.28670   0.19960   0.01267  Uiso   1.00
O47    O     0.52930   0.59540   0.06450   0.01267  Uiso   1.00
O48    O     0.21780   0.19540   0.21090   0.01267  Uiso   1.00
O49    O     0.13190   0.59520   0.27580   0.01267  Uiso   1.00
O50    O     0.49590   0.68230   0.33220   0.01267  Uiso   1.00
