data_WENSIS_clean
_audit_creation_date              2014-07-02
_audit_creation_method            'Materials Studio'
_symmetry_space_group_name_H-M    'P1'
_symmetry_Int_Tables_number       1
_symmetry_cell_setting            triclinic
loop_
_symmetry_equiv_pos_as_xyz
  x,y,z
_cell_length_a                    8.9200
_cell_length_b                    9.1767
_cell_length_c                    9.1767
_cell_angle_alpha                 76.3371
_cell_angle_beta                  60.9211
_cell_angle_gamma                 60.9212
loop_
_atom_site_label
_atom_site_type_symbol
_atom_site_fract_x
_atom_site_fract_y
_atom_site_fract_z
_atom_site_U_iso_or_equiv
_atom_site_adp_type
_atom_site_occupancy
K1     K     0.50000   0.00000   0.00000   0.01267  Uiso   1.00
K2     K     0.25000   0.50000   0.50000   0.01267  Uiso   1.00
Ca1    Ca    0.75000   0.50000   0.50000   0.01267  Uiso   1.00
Zr1    Zr    0.00000   0.00000   0.00000   0.01267  Uiso   1.00
C1     C     0.80240   0.21820   0.77800   0.01267  Uiso   1.00
C2     C     0.95760   0.27140   0.73820   0.01267  Uiso   1.00
C3     C     0.79860   0.78180   0.22200   0.01267  Uiso   1.00
C4     C     0.96720   0.72860   0.26180   0.01267  Uiso   1.00
C5     C     0.41960   0.77800   0.78180   0.01267  Uiso   1.00
C6     C     0.30420   0.73820   0.72860   0.01267  Uiso   1.00
C7     C     0.97940   0.22200   0.21820   0.01267  Uiso   1.00
C8     C     0.77100   0.26180   0.27140   0.01267  Uiso   1.00
O1     O     0.79640   0.10440   0.88600   0.01267  Uiso   1.00
O2     O     0.05810   0.18920   0.81820   0.01267  Uiso   1.00
O3     O     0.70050   0.28830   0.70370   0.01267  Uiso   1.00
O4     O     0.97120   0.38450   0.63730   0.01267  Uiso   1.00
O5     O     0.78680   0.89560   0.11400   0.01267  Uiso   1.00
O6     O     0.06550   0.81080   0.18180   0.01267  Uiso   1.00
O7     O     0.69250   0.71170   0.29630   0.01267  Uiso   1.00
O8     O     0.99300   0.61550   0.36270   0.01267  Uiso   1.00
O9     O     0.31760   0.88600   0.89560   0.01267  Uiso   1.00
O10    O     0.12370   0.81820   0.81080   0.01267  Uiso   1.00
O11    O     0.59580   0.70370   0.71170   0.01267  Uiso   1.00
O12    O     0.39150   0.63730   0.61550   0.01267  Uiso   1.00
O13    O     0.09920   0.11400   0.10440   0.01267  Uiso   1.00
O14    O     0.75270   0.18180   0.18920   0.01267  Uiso   1.00
O15    O     0.01120   0.29630   0.28830   0.01267  Uiso   1.00
O16    O     0.64430   0.36270   0.38450   0.01267  Uiso   1.00
