data_image0
_cell_length_a       9.333
_cell_length_b       9.183
_cell_length_c       9.162
_cell_angle_alpha    88.45
_cell_angle_beta     102.57
_cell_angle_gamma    93.76

_symmetry_space_group_name_H-M    "P 1"
_symmetry_int_tables_number       1

loop_
  _symmetry_equiv_pos_as_xyz
  'x, y, z'

loop_
  _atom_site_label
  _atom_site_occupancy
  _atom_site_fract_x
  _atom_site_fract_y
  _atom_site_fract_z
  _atom_site_thermal_displace_type
  _atom_site_B_iso_or_equiv
  _atom_site_type_symbol
  Al1      1.0000 0.91240  0.06510  0.36330  Biso   1.000  Al
  Al2      1.0000 0.92330  0.65850  0.13100  Biso   1.000  Al
  Al3      1.0000 0.34480  0.87280  0.10610  Biso   1.000  Al
  P1       1.0000 0.89990  0.31250  0.11920  Biso   1.000  P
  P2       1.0000 0.67820  0.88150  0.12710  Biso   1.000  P
  P3       1.0000 0.14110  0.85460  0.33110  Biso   1.000  P
  F1       1.0000 0.91920  0.88750  0.48780  Biso   1.000  F
  O1       1.0000 0.28510  0.87910  0.27210  Biso   1.000  O
  O2       1.0000 0.66090  0.94710  0.96970  Biso   1.000  O
  O3       1.0000 0.76820  0.74710  0.13860  Biso   1.000  O
  O4       1.0000 0.03540  0.30270  0.03680  Biso   1.000  O
  O5       1.0000 0.92780  0.23770  0.26500  Biso   1.000  O
  O6       1.0000 0.03870  0.97270  0.26790  Biso   1.000  O
  O7       1.0000 0.07090  0.70470  0.27800  Biso   1.000  O
  O8       1.0000 0.52230  0.82490  0.14950  Biso   1.000  O
  O9       1.0000 0.19450  0.85420  0.50310  Biso   1.000  O
  O10      1.0000 0.88010  0.47540  0.14080  Biso   1.000  O
  O11      1.0000 0.73590  0.98500  0.25050  Biso   1.000  O
  O12      1.0000 0.75920  0.25240  0.01360  Biso   1.000  O
  Al4      1.0000 0.08760  0.93490  0.63670  Biso   1.000  Al
  Al5      1.0000 0.07670  0.34150  0.86900  Biso   1.000  Al
  Al6      1.0000 0.65520  0.12720  0.89390  Biso   1.000  Al
  P4       1.0000 0.10010  0.68750  0.88080  Biso   1.000  P
  P5       1.0000 0.32180  0.11850  0.87290  Biso   1.000  P
  P6       1.0000 0.85890  0.14540  0.66890  Biso   1.000  P
  F2       1.0000 0.08080  0.11250  0.51220  Biso   1.000  F
  O13      1.0000 0.71490  0.12090  0.72790  Biso   1.000  O
  O14      1.0000 0.33910  0.05290  0.03030  Biso   1.000  O
  O15      1.0000 0.23180  0.25290  0.86140  Biso   1.000  O
  O16      1.0000 0.96460  0.69730  0.96320  Biso   1.000  O
  O17      1.0000 0.07220  0.76230  0.73500  Biso   1.000  O
  O18      1.0000 0.96130  0.02730  0.73210  Biso   1.000  O
  O19      1.0000 0.92910  0.29530  0.72200  Biso   1.000  O
  O20      1.0000 0.47770  0.17510  0.85050  Biso   1.000  O
  O21      1.0000 0.80550  0.14580  0.49690  Biso   1.000  O
  O22      1.0000 0.11990  0.52460  0.85920  Biso   1.000  O
  O23      1.0000 0.26410  0.01500  0.74950  Biso   1.000  O
  O24      1.0000 0.24080  0.74760  0.98640  Biso   1.000  O
