data_image0
_cell_length_a       10.0812
_cell_length_b       10.0812
_cell_length_c       6.199
_cell_angle_alpha    90
_cell_angle_beta     90
_cell_angle_gamma    90

_symmetry_space_group_name_H-M    "P 1"
_symmetry_int_tables_number       1

loop_
  _symmetry_equiv_pos_as_xyz
  'x, y, z'

loop_
  _atom_site_label
  _atom_site_occupancy
  _atom_site_fract_x
  _atom_site_fract_y
  _atom_site_fract_z
  _atom_site_thermal_displace_type
  _atom_site_B_iso_or_equiv
  _atom_site_type_symbol
  C1       1.0000 0.00310  0.09380  0.64930  Biso   1.000  C
  H1       1.0000 0.00180  0.15790  0.75700  Biso   1.000  H
  C2       1.0000 0.49690  0.40620  0.64930  Biso   1.000  C
  H2       1.0000 0.49820  0.34210  0.75700  Biso   1.000  H
  C3       1.0000 0.40620  0.00310  0.64930  Biso   1.000  C
  H3       1.0000 0.34210  0.00180  0.75700  Biso   1.000  H
  C4       1.0000 0.09380  0.49690  0.64930  Biso   1.000  C
  H4       1.0000 0.15790  0.49820  0.75700  Biso   1.000  H
  C5       1.0000 0.49690  0.09380  0.35070  Biso   1.000  C
  H5       1.0000 0.49820  0.15790  0.24300  Biso   1.000  H
  C6       1.0000 0.00310  0.40620  0.35070  Biso   1.000  C
  H6       1.0000 0.00180  0.34210  0.24300  Biso   1.000  H
  C7       1.0000 0.09380  0.00310  0.35070  Biso   1.000  C
  H7       1.0000 0.15790  0.00180  0.24300  Biso   1.000  H
  C8       1.0000 0.40620  0.49690  0.35070  Biso   1.000  C
  H8       1.0000 0.34210  0.49820  0.24300  Biso   1.000  H
  C9       1.0000 0.99690  0.90620  0.35070  Biso   1.000  C
  H9       1.0000 0.99820  0.84210  0.24300  Biso   1.000  H
  C10      1.0000 0.50310  0.59380  0.35070  Biso   1.000  C
  H10      1.0000 0.50180  0.65790  0.24300  Biso   1.000  H
  C11      1.0000 0.59380  0.99690  0.35070  Biso   1.000  C
  H11      1.0000 0.65790  0.99820  0.24300  Biso   1.000  H
  C12      1.0000 0.90620  0.50310  0.35070  Biso   1.000  C
  H12      1.0000 0.84210  0.50180  0.24300  Biso   1.000  H
  C13      1.0000 0.50310  0.90620  0.64930  Biso   1.000  C
  H13      1.0000 0.50180  0.84210  0.75700  Biso   1.000  H
  C14      1.0000 0.99690  0.59380  0.64930  Biso   1.000  C
  H14      1.0000 0.99820  0.65790  0.75700  Biso   1.000  H
  C15      1.0000 0.90620  0.99690  0.64930  Biso   1.000  C
  H15      1.0000 0.84210  0.99820  0.75700  Biso   1.000  H
  C16      1.0000 0.59380  0.50310  0.64930  Biso   1.000  C
  H16      1.0000 0.65790  0.50180  0.75700  Biso   1.000  H
  Co1      1.0000 0.25000  0.25000  0.50000  Biso   1.000  Co
  Co2      1.0000 0.75000  0.75000  0.50000  Biso   1.000  Co
  N1       1.0000 0.09850  0.09850  0.50000  Biso   1.000  N
  N2       1.0000 0.40150  0.40150  0.50000  Biso   1.000  N
  N3       1.0000 0.40150  0.09850  0.50000  Biso   1.000  N
  N4       1.0000 0.09850  0.40150  0.50000  Biso   1.000  N
  N5       1.0000 0.90150  0.90150  0.50000  Biso   1.000  N
  N6       1.0000 0.59850  0.59850  0.50000  Biso   1.000  N
  N7       1.0000 0.59850  0.90150  0.50000  Biso   1.000  N
  N8       1.0000 0.90150  0.59850  0.50000  Biso   1.000  N
  O1       1.0000 0.25000  0.25000  0.16650  Biso   1.000  O
  O2       1.0000 0.25000  0.25000  0.83350  Biso   1.000  O
  O3       1.0000 0.75000  0.75000  0.83350  Biso   1.000  O
  O4       1.0000 0.75000  0.75000  0.16650  Biso   1.000  O
  N9       1.0000 0.25000  0.25000  0.00000  Biso   1.000  N
  N10      1.0000 0.75000  0.75000  0.00000  Biso   1.000  N
