data_image0
_cell_length_a       14.4783
_cell_length_b       14.4783
_cell_length_c       15.293
_cell_angle_alpha    90
_cell_angle_beta     90
_cell_angle_gamma    120

_symmetry_space_group_name_H-M    "P 1"
_symmetry_int_tables_number       1

loop_
  _symmetry_equiv_pos_as_xyz
  'x, y, z'

loop_
  _atom_site_label
  _atom_site_occupancy
  _atom_site_fract_x
  _atom_site_fract_y
  _atom_site_fract_z
  _atom_site_thermal_displace_type
  _atom_site_B_iso_or_equiv
  _atom_site_type_symbol
  O1       1.0000 0.94670  0.38650  0.08990  Biso   1.000  O
  C1       1.0000 0.86890  0.35240  0.13810  Biso   1.000  C
  O2       1.0000 0.80580  0.38620  0.14440  Biso   1.000  O
  C2       1.0000 0.85410  0.25990  0.19540  Biso   1.000  C
  H1       1.0000 0.84010  0.19760  0.15910  Biso   1.000  H
  H2       1.0000 0.91870  0.28080  0.23120  Biso   1.000  H
  O3       1.0000 0.61350  0.56020  0.08990  Biso   1.000  O
  C3       1.0000 0.64760  0.51650  0.13810  Biso   1.000  C
  O4       1.0000 0.61380  0.41960  0.14440  Biso   1.000  O
  C4       1.0000 0.74010  0.59420  0.19540  Biso   1.000  C
  H3       1.0000 0.80240  0.64250  0.15910  Biso   1.000  H
  H4       1.0000 0.71920  0.63790  0.23120  Biso   1.000  H
  O5       1.0000 0.43980  0.05330  0.08990  Biso   1.000  O
  C5       1.0000 0.48350  0.13110  0.13810  Biso   1.000  C
  O6       1.0000 0.58040  0.19420  0.14440  Biso   1.000  O
  C6       1.0000 0.40580  0.14590  0.19540  Biso   1.000  C
  H5       1.0000 0.35750  0.15990  0.15910  Biso   1.000  H
  H6       1.0000 0.36210  0.08130  0.23120  Biso   1.000  H
  O7       1.0000 0.05330  0.61350  0.08990  Biso   1.000  O
  C7       1.0000 0.13110  0.64760  0.13810  Biso   1.000  C
  O8       1.0000 0.19420  0.61380  0.14440  Biso   1.000  O
  C8       1.0000 0.14590  0.74010  0.19540  Biso   1.000  C
  H7       1.0000 0.15990  0.80240  0.15910  Biso   1.000  H
  H8       1.0000 0.08130  0.71920  0.23120  Biso   1.000  H
  O9       1.0000 0.38650  0.43980  0.08990  Biso   1.000  O
  C9       1.0000 0.35240  0.48350  0.13810  Biso   1.000  C
  O10      1.0000 0.38620  0.58040  0.14440  Biso   1.000  O
  C10      1.0000 0.25990  0.40580  0.19540  Biso   1.000  C
  H9       1.0000 0.19760  0.35750  0.15910  Biso   1.000  H
  H10      1.0000 0.28080  0.36210  0.23120  Biso   1.000  H
  O11      1.0000 0.56020  0.94670  0.08990  Biso   1.000  O
  C11      1.0000 0.51650  0.86890  0.13810  Biso   1.000  C
  O12      1.0000 0.41960  0.80580  0.14440  Biso   1.000  O
  C12      1.0000 0.59420  0.85410  0.19540  Biso   1.000  C
  H11      1.0000 0.64250  0.84010  0.15910  Biso   1.000  H
  H12      1.0000 0.63790  0.91870  0.23120  Biso   1.000  H
  O13      1.0000 0.38650  0.94670  0.41010  Biso   1.000  O
  C13      1.0000 0.35240  0.86890  0.36190  Biso   1.000  C
  O14      1.0000 0.38620  0.80580  0.35560  Biso   1.000  O
  C14      1.0000 0.25990  0.85410  0.30460  Biso   1.000  C
  H13      1.0000 0.19760  0.84010  0.34090  Biso   1.000  H
  H14      1.0000 0.28080  0.91870  0.26880  Biso   1.000  H
  O15      1.0000 0.56020  0.61350  0.41010  Biso   1.000  O
  C15      1.0000 0.51650  0.64760  0.36190  Biso   1.000  C
  O16      1.0000 0.41960  0.61380  0.35560  Biso   1.000  O
  C16      1.0000 0.59420  0.74010  0.30460  Biso   1.000  C
  H15      1.0000 0.64250  0.80240  0.34090  Biso   1.000  H
  H16      1.0000 0.63790  0.71920  0.26880  Biso   1.000  H
  O17      1.0000 0.05330  0.43980  0.41010  Biso   1.000  O
  C17      1.0000 0.13110  0.48350  0.36190  Biso   1.000  C
  O18      1.0000 0.19420  0.58040  0.35560  Biso   1.000  O
  C18      1.0000 0.14590  0.40580  0.30460  Biso   1.000  C
  H17      1.0000 0.15990  0.35750  0.34090  Biso   1.000  H
  H18      1.0000 0.08130  0.36210  0.26880  Biso   1.000  H
  O19      1.0000 0.61350  0.05330  0.41010  Biso   1.000  O
  C19      1.0000 0.64760  0.13110  0.36190  Biso   1.000  C
  O20      1.0000 0.61380  0.19420  0.35560  Biso   1.000  O
  C20      1.0000 0.74010  0.14590  0.30460  Biso   1.000  C
  H19      1.0000 0.80240  0.15990  0.34090  Biso   1.000  H
  H20      1.0000 0.71920  0.08130  0.26880  Biso   1.000  H
  O21      1.0000 0.43980  0.38650  0.41010  Biso   1.000  O
  C21      1.0000 0.48350  0.35240  0.36190  Biso   1.000  C
  O22      1.0000 0.58040  0.38620  0.35560  Biso   1.000  O
  C22      1.0000 0.40580  0.25990  0.30460  Biso   1.000  C
  H21      1.0000 0.35750  0.19760  0.34090  Biso   1.000  H
  H22      1.0000 0.36210  0.28080  0.26880  Biso   1.000  H
  O23      1.0000 0.94670  0.56020  0.41010  Biso   1.000  O
  C23      1.0000 0.86890  0.51650  0.36190  Biso   1.000  C
  O24      1.0000 0.80580  0.41960  0.35560  Biso   1.000  O
  C24      1.0000 0.85410  0.59420  0.30460  Biso   1.000  C
  H23      1.0000 0.84010  0.64250  0.34090  Biso   1.000  H
  H24      1.0000 0.91870  0.63790  0.26880  Biso   1.000  H
  O25      1.0000 0.05330  0.61350  0.91010  Biso   1.000  O
  C25      1.0000 0.13110  0.64760  0.86190  Biso   1.000  C
  O26      1.0000 0.19420  0.61380  0.85560  Biso   1.000  O
  C26      1.0000 0.14590  0.74010  0.80460  Biso   1.000  C
  H25      1.0000 0.15990  0.80240  0.84090  Biso   1.000  H
  H26      1.0000 0.08130  0.71920  0.76880  Biso   1.000  H
  O27      1.0000 0.38650  0.43980  0.91010  Biso   1.000  O
  C27      1.0000 0.35240  0.48350  0.86190  Biso   1.000  C
  O28      1.0000 0.38620  0.58040  0.85560  Biso   1.000  O
  C28      1.0000 0.25990  0.40580  0.80460  Biso   1.000  C
  H27      1.0000 0.19760  0.35750  0.84090  Biso   1.000  H
  H28      1.0000 0.28080  0.36210  0.76880  Biso   1.000  H
  O29      1.0000 0.56020  0.94670  0.91010  Biso   1.000  O
  C29      1.0000 0.51650  0.86890  0.86190  Biso   1.000  C
  O30      1.0000 0.41960  0.80580  0.85560  Biso   1.000  O
  C30      1.0000 0.59420  0.85410  0.80460  Biso   1.000  C
  H29      1.0000 0.64250  0.84010  0.84090  Biso   1.000  H
  H30      1.0000 0.63790  0.91870  0.76880  Biso   1.000  H
  O31      1.0000 0.94670  0.38650  0.91010  Biso   1.000  O
  C31      1.0000 0.86890  0.35240  0.86190  Biso   1.000  C
  O32      1.0000 0.80580  0.38620  0.85560  Biso   1.000  O
  C32      1.0000 0.85410  0.25990  0.80460  Biso   1.000  C
  H31      1.0000 0.84010  0.19760  0.84090  Biso   1.000  H
  H32      1.0000 0.91870  0.28080  0.76880  Biso   1.000  H
  O33      1.0000 0.61350  0.56020  0.91010  Biso   1.000  O
  C33      1.0000 0.64760  0.51650  0.86190  Biso   1.000  C
  O34      1.0000 0.61380  0.41960  0.85560  Biso   1.000  O
  C34      1.0000 0.74010  0.59420  0.80460  Biso   1.000  C
  H33      1.0000 0.80240  0.64250  0.84090  Biso   1.000  H
  H34      1.0000 0.71920  0.63790  0.76880  Biso   1.000  H
  O35      1.0000 0.43980  0.05330  0.91010  Biso   1.000  O
  C35      1.0000 0.48350  0.13110  0.86190  Biso   1.000  C
  O36      1.0000 0.58040  0.19420  0.85560  Biso   1.000  O
  C36      1.0000 0.40580  0.14590  0.80460  Biso   1.000  C
  H35      1.0000 0.35750  0.15990  0.84090  Biso   1.000  H
  H36      1.0000 0.36210  0.08130  0.76880  Biso   1.000  H
  O37      1.0000 0.61350  0.05330  0.58990  Biso   1.000  O
  C37      1.0000 0.64760  0.13110  0.63810  Biso   1.000  C
  O38      1.0000 0.61380  0.19420  0.64440  Biso   1.000  O
  C38      1.0000 0.74010  0.14590  0.69540  Biso   1.000  C
  H37      1.0000 0.80240  0.15990  0.65910  Biso   1.000  H
  H38      1.0000 0.71920  0.08130  0.73120  Biso   1.000  H
  O39      1.0000 0.43980  0.38650  0.58990  Biso   1.000  O
  C39      1.0000 0.48350  0.35240  0.63810  Biso   1.000  C
  O40      1.0000 0.58040  0.38620  0.64440  Biso   1.000  O
  C40      1.0000 0.40580  0.25990  0.69540  Biso   1.000  C
  H39      1.0000 0.35750  0.19760  0.65910  Biso   1.000  H
  H40      1.0000 0.36210  0.28080  0.73120  Biso   1.000  H
  O41      1.0000 0.94670  0.56020  0.58990  Biso   1.000  O
  C41      1.0000 0.86890  0.51650  0.63810  Biso   1.000  C
  O42      1.0000 0.80580  0.41960  0.64440  Biso   1.000  O
  C42      1.0000 0.85410  0.59420  0.69540  Biso   1.000  C
  H41      1.0000 0.84010  0.64250  0.65910  Biso   1.000  H
  H42      1.0000 0.91870  0.63790  0.73120  Biso   1.000  H
  O43      1.0000 0.38650  0.94670  0.58990  Biso   1.000  O
  C43      1.0000 0.35240  0.86890  0.63810  Biso   1.000  C
  O44      1.0000 0.38620  0.80580  0.64440  Biso   1.000  O
  C44      1.0000 0.25990  0.85410  0.69540  Biso   1.000  C
  H43      1.0000 0.19760  0.84010  0.65910  Biso   1.000  H
  H44      1.0000 0.28080  0.91870  0.73120  Biso   1.000  H
  O45      1.0000 0.56020  0.61350  0.58990  Biso   1.000  O
  C45      1.0000 0.51650  0.64760  0.63810  Biso   1.000  C
  O46      1.0000 0.41960  0.61380  0.64440  Biso   1.000  O
  C46      1.0000 0.59420  0.74010  0.69540  Biso   1.000  C
  H45      1.0000 0.64250  0.80240  0.65910  Biso   1.000  H
  H46      1.0000 0.63790  0.71920  0.73120  Biso   1.000  H
  O47      1.0000 0.05330  0.43980  0.58990  Biso   1.000  O
  C47      1.0000 0.13110  0.48350  0.63810  Biso   1.000  C
  O48      1.0000 0.19420  0.58040  0.64440  Biso   1.000  O
  C48      1.0000 0.14590  0.40580  0.69540  Biso   1.000  C
  H47      1.0000 0.15990  0.35750  0.65910  Biso   1.000  H
  H48      1.0000 0.08130  0.36210  0.73120  Biso   1.000  H
  Gd1      1.0000 0.66667  0.33333  0.25000  Biso   1.000  Gd
  Gd2      1.0000 0.33333  0.66667  0.25000  Biso   1.000  Gd
  Gd3      1.0000 0.33333  0.66667  0.75000  Biso   1.000  Gd
  Gd4      1.0000 0.66667  0.33333  0.75000  Biso   1.000  Gd
  Cu1      1.0000 0.00000  0.50000  0.00000  Biso   1.000  Cu
  Cu2      1.0000 0.50000  0.50000  0.00000  Biso   1.000  Cu
  Cu3      1.0000 0.50000  0.00000  0.00000  Biso   1.000  Cu
  Cu4      1.0000 0.50000  0.00000  0.50000  Biso   1.000  Cu
  Cu5      1.0000 0.50000  0.50000  0.50000  Biso   1.000  Cu
  Cu6      1.0000 0.00000  0.50000  0.50000  Biso   1.000  Cu
  O49      1.0000 0.76480  0.23520  0.25000  Biso   1.000  O
  O50      1.0000 0.76480  0.52960  0.25000  Biso   1.000  O
  O51      1.0000 0.47040  0.23520  0.25000  Biso   1.000  O
  O52      1.0000 0.23520  0.76480  0.25000  Biso   1.000  O
  O53      1.0000 0.23520  0.47040  0.25000  Biso   1.000  O
  O54      1.0000 0.52960  0.76480  0.25000  Biso   1.000  O
  O55      1.0000 0.23520  0.76480  0.75000  Biso   1.000  O
  O56      1.0000 0.23520  0.47040  0.75000  Biso   1.000  O
  O57      1.0000 0.52960  0.76480  0.75000  Biso   1.000  O
  O58      1.0000 0.76480  0.23520  0.75000  Biso   1.000  O
  O59      1.0000 0.76480  0.52960  0.75000  Biso   1.000  O
  O60      1.0000 0.47040  0.23520  0.75000  Biso   1.000  O
