data_WEVQIX_clean
_audit_creation_date              2014-07-02
_audit_creation_method            'Materials Studio'
_symmetry_space_group_name_H-M    'P1'
_symmetry_Int_Tables_number       1
_symmetry_cell_setting            triclinic
loop_
_symmetry_equiv_pos_as_xyz
  x,y,z
_cell_length_a                    14.5950
_cell_length_b                    14.5950
_cell_length_c                    15.2670
_cell_angle_alpha                 90.0000
_cell_angle_beta                  90.0000
_cell_angle_gamma                 120.0000
loop_
_atom_site_label
_atom_site_type_symbol
_atom_site_fract_x
_atom_site_fract_y
_atom_site_fract_z
_atom_site_U_iso_or_equiv
_atom_site_adp_type
_atom_site_occupancy
Y1     Y     0.33333   0.66666   0.25000   0.01267  Uiso   1.00
Y2     Y     0.66667   0.33334   0.25000   0.01267  Uiso   1.00
Y3     Y     0.66667   0.33334   0.75000   0.01267  Uiso   1.00
Y4     Y     0.33333   0.66666   0.75000   0.01267  Uiso   1.00
Cu1    Cu    0.50000   0.50000   0.00000   0.01267  Uiso   1.00
Cu2    Cu    0.00000   0.50000   0.00000   0.01267  Uiso   1.00
Cu3    Cu    0.50000  -0.00000   0.00000   0.01267  Uiso   1.00
Cu4    Cu    0.00000   0.50000   0.50000   0.01267  Uiso   1.00
Cu5    Cu    0.50000   0.50000   0.50000   0.01267  Uiso   1.00
Cu6    Cu    0.50000  -0.00000   0.50000   0.01267  Uiso   1.00
H1     H     0.79650   0.16230   0.83960   0.01267  Uiso   1.00
H2     H     0.71680   0.08730   0.76800   0.01267  Uiso   1.00
H3     H     0.36580   0.20350   0.83960   0.01267  Uiso   1.00
H4     H     0.37050   0.28320   0.76800   0.01267  Uiso   1.00
H5     H     0.83770   0.63420   0.83960   0.01267  Uiso   1.00
H6     H     0.91270   0.62950   0.76800   0.01267  Uiso   1.00
H7     H     0.20350   0.83770   0.83960   0.01267  Uiso   1.00
H8     H     0.28320   0.91270   0.76800   0.01267  Uiso   1.00
H9     H     0.63420   0.79650   0.83960   0.01267  Uiso   1.00
H10    H     0.62950   0.71680   0.76800   0.01267  Uiso   1.00
H11    H     0.16230   0.36580   0.83960   0.01267  Uiso   1.00
H12    H     0.08730   0.37050   0.76800   0.01267  Uiso   1.00
H13    H     0.63420   0.83770   0.66040   0.01267  Uiso   1.00
H14    H     0.62950   0.91270   0.73200   0.01267  Uiso   1.00
H15    H     0.16230   0.79650   0.66040   0.01267  Uiso   1.00
H16    H     0.08730   0.71680   0.73200   0.01267  Uiso   1.00
H17    H     0.20350   0.36580   0.66040   0.01267  Uiso   1.00
H18    H     0.28320   0.37050   0.73200   0.01267  Uiso   1.00
H19    H     0.36580   0.16230   0.66040   0.01267  Uiso   1.00
H20    H     0.37050   0.08730   0.73200   0.01267  Uiso   1.00
H21    H     0.83770   0.20350   0.66040   0.01267  Uiso   1.00
H22    H     0.91270   0.28320   0.73200   0.01267  Uiso   1.00
H23    H     0.79650   0.63420   0.66040   0.01267  Uiso   1.00
H24    H     0.71680   0.62950   0.73200   0.01267  Uiso   1.00
H25    H     0.20350   0.83770   0.16040   0.01267  Uiso   1.00
H26    H     0.28320   0.91270   0.23200   0.01267  Uiso   1.00
H27    H     0.63420   0.79650   0.16040   0.01267  Uiso   1.00
H28    H     0.62950   0.71680   0.23200   0.01267  Uiso   1.00
H29    H     0.16230   0.36580   0.16040   0.01267  Uiso   1.00
H30    H     0.08730   0.37050   0.23200   0.01267  Uiso   1.00
H31    H     0.79650   0.16230   0.16040   0.01267  Uiso   1.00
H32    H     0.71680   0.08730   0.23200   0.01267  Uiso   1.00
H33    H     0.36580   0.20350   0.16040   0.01267  Uiso   1.00
H34    H     0.37050   0.28320   0.23200   0.01267  Uiso   1.00
H35    H     0.83770   0.63420   0.16040   0.01267  Uiso   1.00
H36    H     0.91270   0.62950   0.23200   0.01267  Uiso   1.00
H37    H     0.36580   0.16230   0.33960   0.01267  Uiso   1.00
H38    H     0.37050   0.08730   0.26800   0.01267  Uiso   1.00
H39    H     0.83770   0.20350   0.33960   0.01267  Uiso   1.00
H40    H     0.91270   0.28320   0.26800   0.01267  Uiso   1.00
H41    H     0.79650   0.63420   0.33960   0.01267  Uiso   1.00
H42    H     0.71680   0.62950   0.26800   0.01267  Uiso   1.00
H43    H     0.63420   0.83770   0.33960   0.01267  Uiso   1.00
H44    H     0.62950   0.91270   0.26800   0.01267  Uiso   1.00
H45    H     0.16230   0.79650   0.33960   0.01267  Uiso   1.00
H46    H     0.08730   0.71680   0.26800   0.01267  Uiso   1.00
H47    H     0.20350   0.36580   0.33960   0.01267  Uiso   1.00
H48    H     0.28320   0.37050   0.26800   0.01267  Uiso   1.00
C1     C     0.13110   0.64480   0.36110   0.01267  Uiso   1.00
C2     C     0.85050   0.26350   0.69640   0.01267  Uiso   1.00
C3     C     0.51370   0.86890   0.36110   0.01267  Uiso   1.00
C4     C     0.41300   0.14950   0.69640   0.01267  Uiso   1.00
C5     C     0.35520   0.48630   0.36110   0.01267  Uiso   1.00
C6     C     0.73650   0.58700   0.69640   0.01267  Uiso   1.00
C7     C     0.86890   0.35520   0.36110   0.01267  Uiso   1.00
C8     C     0.14950   0.73650   0.69640   0.01267  Uiso   1.00
C9     C     0.48630   0.13110   0.36110   0.01267  Uiso   1.00
C10    C     0.58700   0.85050   0.69640   0.01267  Uiso   1.00
C11    C     0.64480   0.51370   0.36110   0.01267  Uiso   1.00
C12    C     0.26350   0.41300   0.69640   0.01267  Uiso   1.00
C13    C     0.48630   0.35520   0.13890   0.01267  Uiso   1.00
C14    C     0.58700   0.73650   0.80360   0.01267  Uiso   1.00
C15    C     0.64480   0.13110   0.13890   0.01267  Uiso   1.00
C16    C     0.26350   0.85050   0.80360   0.01267  Uiso   1.00
C17    C     0.86890   0.51370   0.13890   0.01267  Uiso   1.00
C18    C     0.14950   0.41300   0.80360   0.01267  Uiso   1.00
C19    C     0.51370   0.64480   0.13890   0.01267  Uiso   1.00
C20    C     0.41300   0.26350   0.80360   0.01267  Uiso   1.00
C21    C     0.35520   0.86890   0.13890   0.01267  Uiso   1.00
C22    C     0.73650   0.14950   0.80360   0.01267  Uiso   1.00
C23    C     0.13110   0.48630   0.13890   0.01267  Uiso   1.00
C24    C     0.85050   0.58700   0.80360   0.01267  Uiso   1.00
C25    C     0.86890   0.35520   0.63890   0.01267  Uiso   1.00
C26    C     0.14950   0.73650   0.30360   0.01267  Uiso   1.00
C27    C     0.48630   0.13110   0.63890   0.01267  Uiso   1.00
C28    C     0.58700   0.85050   0.30360   0.01267  Uiso   1.00
C29    C     0.64480   0.51370   0.63890   0.01267  Uiso   1.00
C30    C     0.26350   0.41300   0.30360   0.01267  Uiso   1.00
C31    C     0.13110   0.64480   0.63890   0.01267  Uiso   1.00
C32    C     0.85050   0.26350   0.30360   0.01267  Uiso   1.00
C33    C     0.51370   0.86890   0.63890   0.01267  Uiso   1.00
C34    C     0.41300   0.14950   0.30360   0.01267  Uiso   1.00
C35    C     0.35520   0.48630   0.63890   0.01267  Uiso   1.00
C36    C     0.73650   0.58700   0.30360   0.01267  Uiso   1.00
C37    C     0.51370   0.64480   0.86110   0.01267  Uiso   1.00
C38    C     0.41300   0.26350   0.19640   0.01267  Uiso   1.00
C39    C     0.35520   0.86890   0.86110   0.01267  Uiso   1.00
C40    C     0.73650   0.14950   0.19640   0.01267  Uiso   1.00
C41    C     0.13110   0.48630   0.86110   0.01267  Uiso   1.00
C42    C     0.85050   0.58700   0.19640   0.01267  Uiso   1.00
C43    C     0.48630   0.35520   0.86110   0.01267  Uiso   1.00
C44    C     0.58700   0.73650   0.19640   0.01267  Uiso   1.00
C45    C     0.64480   0.13110   0.86110   0.01267  Uiso   1.00
C46    C     0.26350   0.85050   0.19640   0.01267  Uiso   1.00
C47    C     0.86890   0.51370   0.86110   0.01267  Uiso   1.00
C48    C     0.14950   0.41300   0.19640   0.01267  Uiso   1.00
O1     O     0.19600   0.61230   0.35495   0.01267  Uiso   1.00
O2     O     0.05360   0.61050   0.41050   0.01267  Uiso   1.00
O3     O     0.41630   0.80400   0.35495   0.01267  Uiso   1.00
O4     O     0.55690   0.94640   0.41050   0.01267  Uiso   1.00
O5     O     0.38770   0.58370   0.35495   0.01267  Uiso   1.00
O6     O     0.38950   0.44310   0.41050   0.01267  Uiso   1.00
O7     O     0.80400   0.38770   0.35495   0.01267  Uiso   1.00
O8     O     0.94640   0.38950   0.41050   0.01267  Uiso   1.00
O9     O     0.58370   0.19600   0.35495   0.01267  Uiso   1.00
O10    O     0.44310   0.05360   0.41050   0.01267  Uiso   1.00
O11    O     0.61230   0.41630   0.35495   0.01267  Uiso   1.00
O12    O     0.61050   0.55690   0.41050   0.01267  Uiso   1.00
O13    O     0.58370   0.38770   0.14505   0.01267  Uiso   1.00
O14    O     0.44310   0.38950   0.08950   0.01267  Uiso   1.00
O15    O     0.61230   0.19600   0.14505   0.01267  Uiso   1.00
O16    O     0.61050   0.05360   0.08950   0.01267  Uiso   1.00
O17    O     0.80400   0.41630   0.14505   0.01267  Uiso   1.00
O18    O     0.94640   0.55690   0.08950   0.01267  Uiso   1.00
O19    O     0.41630   0.61230   0.14505   0.01267  Uiso   1.00
O20    O     0.55690   0.61050   0.08950   0.01267  Uiso   1.00
O21    O     0.38770   0.80400   0.14505   0.01267  Uiso   1.00
O22    O     0.38950   0.94640   0.08950   0.01267  Uiso   1.00
O23    O     0.19600   0.58370   0.14505   0.01267  Uiso   1.00
O24    O     0.05360   0.44310   0.08950   0.01267  Uiso   1.00
O25    O     0.80400   0.38770   0.64505   0.01267  Uiso   1.00
O26    O     0.94640   0.38950   0.58950   0.01267  Uiso   1.00
O27    O     0.58370   0.19600   0.64505   0.01267  Uiso   1.00
O28    O     0.44310   0.05360   0.58950   0.01267  Uiso   1.00
O29    O     0.61230   0.41630   0.64505   0.01267  Uiso   1.00
O30    O     0.61050   0.55690   0.58950   0.01267  Uiso   1.00
O31    O     0.19600   0.61230   0.64505   0.01267  Uiso   1.00
O32    O     0.05360   0.61050   0.58950   0.01267  Uiso   1.00
O33    O     0.41630   0.80400   0.64505   0.01267  Uiso   1.00
O34    O     0.55690   0.94640   0.58950   0.01267  Uiso   1.00
O35    O     0.38770   0.58370   0.64505   0.01267  Uiso   1.00
O36    O     0.38950   0.44310   0.58950   0.01267  Uiso   1.00
O37    O     0.41630   0.61230   0.85495   0.01267  Uiso   1.00
O38    O     0.55690   0.61050   0.91050   0.01267  Uiso   1.00
O39    O     0.38770   0.80400   0.85495   0.01267  Uiso   1.00
O40    O     0.38950   0.94640   0.91050   0.01267  Uiso   1.00
O41    O     0.19600   0.58370   0.85495   0.01267  Uiso   1.00
O42    O     0.05360   0.44310   0.91050   0.01267  Uiso   1.00
O43    O     0.58370   0.38770   0.85495   0.01267  Uiso   1.00
O44    O     0.44310   0.38950   0.91050   0.01267  Uiso   1.00
O45    O     0.61230   0.19600   0.85495   0.01267  Uiso   1.00
O46    O     0.61050   0.05360   0.91050   0.01267  Uiso   1.00
O47    O     0.80400   0.41630   0.85495   0.01267  Uiso   1.00
O48    O     0.94640   0.55690   0.91050   0.01267  Uiso   1.00
O49    O     0.76380   0.23620   0.75000   0.01267  Uiso   1.00
O50    O     0.47240   0.23620   0.75000   0.01267  Uiso   1.00
O51    O     0.76380   0.52760   0.75000   0.01267  Uiso   1.00
O52    O     0.23620   0.76380   0.75000   0.01267  Uiso   1.00
O53    O     0.52760   0.76380   0.75000   0.01267  Uiso   1.00
O54    O     0.23620   0.47240   0.75000   0.01267  Uiso   1.00
O55    O     0.23620   0.76380   0.25000   0.01267  Uiso   1.00
O56    O     0.52760   0.76380   0.25000   0.01267  Uiso   1.00
O57    O     0.23620   0.47240   0.25000   0.01267  Uiso   1.00
O58    O     0.76380   0.23620   0.25000   0.01267  Uiso   1.00
O59    O     0.47240   0.23620   0.25000   0.01267  Uiso   1.00
O60    O     0.76380   0.52760   0.25000   0.01267  Uiso   1.00
