data_WEVRUK_clean
_audit_creation_date              2014-07-02
_audit_creation_method            'Materials Studio'
_symmetry_space_group_name_H-M    'P1'
_symmetry_Int_Tables_number       1
_symmetry_cell_setting            triclinic
loop_
_symmetry_equiv_pos_as_xyz
  x,y,z
_cell_length_a                    14.5840
_cell_length_b                    15.1990
_cell_length_c                    15.1990
_cell_angle_alpha                 120.0000
_cell_angle_beta                  90.0000
_cell_angle_gamma                 90.0000
loop_
_atom_site_label
_atom_site_type_symbol
_atom_site_fract_x
_atom_site_fract_y
_atom_site_fract_z
_atom_site_U_iso_or_equiv
_atom_site_adp_type
_atom_site_occupancy
Pr1    Pr    0.25000   0.33333   0.66666   0.01267  Uiso   1.00
Pr2    Pr    0.25000   0.66667   0.33334   0.01267  Uiso   1.00
Pr3    Pr    0.75000   0.66667   0.33334   0.01267  Uiso   1.00
Pr4    Pr    0.75000   0.33333   0.66666   0.01267  Uiso   1.00
Cu1    Cu    0.00000   0.50000   0.50000   0.01267  Uiso   1.00
Cu2    Cu    1.00000   0.00000   0.50000   0.01267  Uiso   1.00
Cu3    Cu    0.00000   0.50000  -0.00000   0.01267  Uiso   1.00
Cu4    Cu    0.50000   0.00000   0.50000   0.01267  Uiso   1.00
Cu5    Cu    0.50000   0.50000   0.50000   0.01267  Uiso   1.00
Cu6    Cu    0.50000   0.50000   0.00000   0.01267  Uiso   1.00
H1     H     0.83680   0.78610   0.15070   0.01267  Uiso   1.00
H2     H     0.75740   0.71000   0.08920   0.01267  Uiso   1.00
H3     H     0.83680   0.36460   0.21390   0.01267  Uiso   1.00
H4     H     0.75740   0.37920   0.29000   0.01267  Uiso   1.00
H5     H     0.83680   0.84930   0.63540   0.01267  Uiso   1.00
H6     H     0.75740   0.91080   0.62080   0.01267  Uiso   1.00
H7     H     0.83680   0.21390   0.84930   0.01267  Uiso   1.00
H8     H     0.75740   0.29000   0.91080   0.01267  Uiso   1.00
H9     H     0.83680   0.63540   0.78610   0.01267  Uiso   1.00
H10    H     0.75740   0.62080   0.71000   0.01267  Uiso   1.00
H11    H     0.83680   0.15070   0.36460   0.01267  Uiso   1.00
H12    H     0.75740   0.08920   0.37920   0.01267  Uiso   1.00
H13    H     0.66320   0.63540   0.84930   0.01267  Uiso   1.00
H14    H     0.74260   0.62080   0.91080   0.01267  Uiso   1.00
H15    H     0.66320   0.15070   0.78610   0.01267  Uiso   1.00
H16    H     0.74260   0.08920   0.71000   0.01267  Uiso   1.00
H17    H     0.66320   0.21390   0.36460   0.01267  Uiso   1.00
H18    H     0.74260   0.29000   0.37920   0.01267  Uiso   1.00
H19    H     0.66320   0.36460   0.15070   0.01267  Uiso   1.00
H20    H     0.74260   0.37920   0.08920   0.01267  Uiso   1.00
H21    H     0.66320   0.84930   0.21390   0.01267  Uiso   1.00
H22    H     0.74260   0.91080   0.29000   0.01267  Uiso   1.00
H23    H     0.66320   0.78610   0.63540   0.01267  Uiso   1.00
H24    H     0.74260   0.71000   0.62080   0.01267  Uiso   1.00
H25    H     0.16320   0.21390   0.84930   0.01267  Uiso   1.00
H26    H     0.24260   0.29000   0.91080   0.01267  Uiso   1.00
H27    H     0.16320   0.63540   0.78610   0.01267  Uiso   1.00
H28    H     0.24260   0.62080   0.71000   0.01267  Uiso   1.00
H29    H     0.16320   0.15070   0.36460   0.01267  Uiso   1.00
H30    H     0.24260   0.08920   0.37920   0.01267  Uiso   1.00
H31    H     0.16320   0.78610   0.15070   0.01267  Uiso   1.00
H32    H     0.24260   0.71000   0.08920   0.01267  Uiso   1.00
H33    H     0.16320   0.36460   0.21390   0.01267  Uiso   1.00
H34    H     0.24260   0.37920   0.29000   0.01267  Uiso   1.00
H35    H     0.16320   0.84930   0.63540   0.01267  Uiso   1.00
H36    H     0.24260   0.91080   0.62080   0.01267  Uiso   1.00
H37    H     0.33680   0.36460   0.15070   0.01267  Uiso   1.00
H38    H     0.25740   0.37920   0.08920   0.01267  Uiso   1.00
H39    H     0.33680   0.84930   0.21390   0.01267  Uiso   1.00
H40    H     0.25740   0.91080   0.29000   0.01267  Uiso   1.00
H41    H     0.33680   0.78610   0.63540   0.01267  Uiso   1.00
H42    H     0.25740   0.71000   0.62080   0.01267  Uiso   1.00
H43    H     0.33680   0.63540   0.84930   0.01267  Uiso   1.00
H44    H     0.25740   0.62080   0.91080   0.01267  Uiso   1.00
H45    H     0.33680   0.15070   0.78610   0.01267  Uiso   1.00
H46    H     0.25740   0.08920   0.71000   0.01267  Uiso   1.00
H47    H     0.33680   0.21390   0.36460   0.01267  Uiso   1.00
H48    H     0.25740   0.29000   0.37920   0.01267  Uiso   1.00
C1     C     0.35980   0.12750   0.64300   0.01267  Uiso   1.00
C2     C     0.70050   0.85440   0.26910   0.01267  Uiso   1.00
C3     C     0.35980   0.51550   0.87250   0.01267  Uiso   1.00
C4     C     0.70050   0.41470   0.14560   0.01267  Uiso   1.00
C5     C     0.35980   0.35700   0.48450   0.01267  Uiso   1.00
C6     C     0.70050   0.73090   0.58530   0.01267  Uiso   1.00
C7     C     0.35980   0.87250   0.35700   0.01267  Uiso   1.00
C8     C     0.70050   0.14560   0.73090   0.01267  Uiso   1.00
C9     C     0.35980   0.48450   0.12750   0.01267  Uiso   1.00
C10    C     0.70050   0.58530   0.85440   0.01267  Uiso   1.00
C11    C     0.35980   0.64300   0.51550   0.01267  Uiso   1.00
C12    C     0.70050   0.26910   0.41470   0.01267  Uiso   1.00
C13    C     0.14020   0.48450   0.35700   0.01267  Uiso   1.00
C14    C     0.79950   0.58530   0.73090   0.01267  Uiso   1.00
C15    C     0.14020   0.64300   0.12750   0.01267  Uiso   1.00
C16    C     0.79950   0.26910   0.85440   0.01267  Uiso   1.00
C17    C     0.14020   0.87250   0.51550   0.01267  Uiso   1.00
C18    C     0.79950   0.14560   0.41470   0.01267  Uiso   1.00
C19    C     0.14020   0.51550   0.64300   0.01267  Uiso   1.00
C20    C     0.79950   0.41470   0.26910   0.01267  Uiso   1.00
C21    C     0.14020   0.35700   0.87250   0.01267  Uiso   1.00
C22    C     0.79950   0.73090   0.14560   0.01267  Uiso   1.00
C23    C     0.14020   0.12750   0.48450   0.01267  Uiso   1.00
C24    C     0.79950   0.85440   0.58530   0.01267  Uiso   1.00
C25    C     0.64020   0.87250   0.35700   0.01267  Uiso   1.00
C26    C     0.29950   0.14560   0.73090   0.01267  Uiso   1.00
C27    C     0.64020   0.48450   0.12750   0.01267  Uiso   1.00
C28    C     0.29950   0.58530   0.85440   0.01267  Uiso   1.00
C29    C     0.64020   0.64300   0.51550   0.01267  Uiso   1.00
C30    C     0.29950   0.26910   0.41470   0.01267  Uiso   1.00
C31    C     0.64020   0.12750   0.64300   0.01267  Uiso   1.00
C32    C     0.29950   0.85440   0.26910   0.01267  Uiso   1.00
C33    C     0.64020   0.51550   0.87250   0.01267  Uiso   1.00
C34    C     0.29950   0.41470   0.14560   0.01267  Uiso   1.00
C35    C     0.64020   0.35700   0.48450   0.01267  Uiso   1.00
C36    C     0.29950   0.73090   0.58530   0.01267  Uiso   1.00
C37    C     0.85980   0.51550   0.64300   0.01267  Uiso   1.00
C38    C     0.20050   0.41470   0.26910   0.01267  Uiso   1.00
C39    C     0.85980   0.35700   0.87250   0.01267  Uiso   1.00
C40    C     0.20050   0.73090   0.14560   0.01267  Uiso   1.00
C41    C     0.85980   0.12750   0.48450   0.01267  Uiso   1.00
C42    C     0.20050   0.85440   0.58530   0.01267  Uiso   1.00
C43    C     0.85980   0.48450   0.35700   0.01267  Uiso   1.00
C44    C     0.20050   0.58530   0.73090   0.01267  Uiso   1.00
C45    C     0.85980   0.64300   0.12750   0.01267  Uiso   1.00
C46    C     0.20050   0.26910   0.85440   0.01267  Uiso   1.00
C47    C     0.85980   0.87250   0.51550   0.01267  Uiso   1.00
C48    C     0.20050   0.14560   0.41470   0.01267  Uiso   1.00
O1     O     0.35930   0.19200   0.61490   0.01267  Uiso   1.00
O2     O     0.40640   0.04830   0.60630   0.01267  Uiso   1.00
O3     O     0.35930   0.42290   0.80800   0.01267  Uiso   1.00
O4     O     0.40640   0.55800   0.95170   0.01267  Uiso   1.00
O5     O     0.35930   0.38510   0.57710   0.01267  Uiso   1.00
O6     O     0.40640   0.39370   0.44200   0.01267  Uiso   1.00
O7     O     0.35930   0.80800   0.38510   0.01267  Uiso   1.00
O8     O     0.40640   0.95170   0.39370   0.01267  Uiso   1.00
O9     O     0.35930   0.57710   0.19200   0.01267  Uiso   1.00
O10    O     0.40640   0.44200   0.04830   0.01267  Uiso   1.00
O11    O     0.35930   0.61490   0.42290   0.01267  Uiso   1.00
O12    O     0.40640   0.60630   0.55800   0.01267  Uiso   1.00
O13    O     0.14070   0.57710   0.38510   0.01267  Uiso   1.00
O14    O     0.09360   0.44200   0.39370   0.01267  Uiso   1.00
O15    O     0.14070   0.61490   0.19200   0.01267  Uiso   1.00
O16    O     0.09360   0.60630   0.04830   0.01267  Uiso   1.00
O17    O     0.14070   0.80800   0.42290   0.01267  Uiso   1.00
O18    O     0.09360   0.95170   0.55800   0.01267  Uiso   1.00
O19    O     0.14070   0.42290   0.61490   0.01267  Uiso   1.00
O20    O     0.09360   0.55800   0.60630   0.01267  Uiso   1.00
O21    O     0.14070   0.38510   0.80800   0.01267  Uiso   1.00
O22    O     0.09360   0.39370   0.95170   0.01267  Uiso   1.00
O23    O     0.14070   0.19200   0.57710   0.01267  Uiso   1.00
O24    O     0.09360   0.04830   0.44200   0.01267  Uiso   1.00
O25    O     0.64070   0.80800   0.38510   0.01267  Uiso   1.00
O26    O     0.59360   0.95170   0.39370   0.01267  Uiso   1.00
O27    O     0.64070   0.57710   0.19200   0.01267  Uiso   1.00
O28    O     0.59360   0.44200   0.04830   0.01267  Uiso   1.00
O29    O     0.64070   0.61490   0.42290   0.01267  Uiso   1.00
O30    O     0.59360   0.60630   0.55800   0.01267  Uiso   1.00
O31    O     0.64070   0.19200   0.61490   0.01267  Uiso   1.00
O32    O     0.59360   0.04830   0.60630   0.01267  Uiso   1.00
O33    O     0.64070   0.42290   0.80800   0.01267  Uiso   1.00
O34    O     0.59360   0.55800   0.95170   0.01267  Uiso   1.00
O35    O     0.64070   0.38510   0.57710   0.01267  Uiso   1.00
O36    O     0.59360   0.39370   0.44200   0.01267  Uiso   1.00
O37    O     0.85930   0.42290   0.61490   0.01267  Uiso   1.00
O38    O     0.90640   0.55800   0.60630   0.01267  Uiso   1.00
O39    O     0.85930   0.38510   0.80800   0.01267  Uiso   1.00
O40    O     0.90640   0.39370   0.95170   0.01267  Uiso   1.00
O41    O     0.85930   0.19200   0.57710   0.01267  Uiso   1.00
O42    O     0.90640   0.04830   0.44200   0.01267  Uiso   1.00
O43    O     0.85930   0.57710   0.38510   0.01267  Uiso   1.00
O44    O     0.90640   0.44200   0.39370   0.01267  Uiso   1.00
O45    O     0.85930   0.61490   0.19200   0.01267  Uiso   1.00
O46    O     0.90640   0.60630   0.04830   0.01267  Uiso   1.00
O47    O     0.85930   0.80800   0.42290   0.01267  Uiso   1.00
O48    O     0.90640   0.95170   0.55800   0.01267  Uiso   1.00
O49    O     0.75000   0.76380   0.23620   0.01267  Uiso   1.00
O50    O     0.75000   0.47240   0.23620   0.01267  Uiso   1.00
O51    O     0.75000   0.76380   0.52760   0.01267  Uiso   1.00
O52    O     0.75000   0.23620   0.76380   0.01267  Uiso   1.00
O53    O     0.75000   0.52760   0.76380   0.01267  Uiso   1.00
O54    O     0.75000   0.23620   0.47240   0.01267  Uiso   1.00
O55    O     0.25000   0.23620   0.76380   0.01267  Uiso   1.00
O56    O     0.25000   0.52760   0.76380   0.01267  Uiso   1.00
O57    O     0.25000   0.23620   0.47240   0.01267  Uiso   1.00
O58    O     0.25000   0.76380   0.23620   0.01267  Uiso   1.00
O59    O     0.25000   0.47240   0.23620   0.01267  Uiso   1.00
O60    O     0.25000   0.76380   0.52760   0.01267  Uiso   1.00
