data_WEVZUT_clean
_audit_creation_date              2014-07-02
_audit_creation_method            'Materials Studio'
_symmetry_space_group_name_H-M    'P1'
_symmetry_Int_Tables_number       1
_symmetry_cell_setting            triclinic
loop_
_symmetry_equiv_pos_as_xyz
  x,y,z
_cell_length_a                    14.3339
_cell_length_b                    20.7600
_cell_length_c                    21.5070
_cell_angle_alpha                 69.9920
_cell_angle_beta                  73.1540
_cell_angle_gamma                 72.3530
loop_
_atom_site_label
_atom_site_type_symbol
_atom_site_fract_x
_atom_site_fract_y
_atom_site_fract_z
_atom_site_U_iso_or_equiv
_atom_site_adp_type
_atom_site_occupancy
La1    La    0.57138   0.88566   0.58807   0.01267  Uiso   1.00
La2    La    0.87820   0.51704   0.61284   0.01267  Uiso   1.00
La3    La    0.51010   0.91077   0.93592   0.01267  Uiso   1.00
La4    La    0.43309   0.54890   0.13231   0.01267  Uiso   1.00
La5    La    0.42862   0.11434   0.41193   0.01267  Uiso   1.00
La6    La    0.12180   0.48296   0.38716   0.01267  Uiso   1.00
La7    La    0.48990   0.08923   0.06408   0.01267  Uiso   1.00
La8    La    0.56691   0.45110   0.86769   0.01267  Uiso   1.00
P1     P     0.54629   0.93987   0.74522   0.01267  Uiso   1.00
P2     P     0.33219   0.93123   0.82728   0.01267  Uiso   1.00
P3     P     0.30360   0.99779   0.06017   0.01267  Uiso   1.00
P4     P     0.36974   0.09979   0.92552   0.01267  Uiso   1.00
P5     P     0.62722   0.06897   0.51499   0.01267  Uiso   1.00
P6     P     0.67998   0.98844   0.41141   0.01267  Uiso   1.00
P7     P     0.16238   0.45954   0.56222   0.01267  Uiso   1.00
P8     P     0.07761   0.60827   0.49068   0.01267  Uiso   1.00
P9     P     0.42236   0.75097   0.06689   0.01267  Uiso   1.00
P10    P     0.62103   0.65742   0.09755   0.01267  Uiso   1.00
P11    P     0.82712   0.38210   0.77894   0.01267  Uiso   1.00
P12    P     0.66615   0.42052   0.69970   0.01267  Uiso   1.00
P13    P     0.72404   0.70559   0.56618   0.01267  Uiso   1.00
P14    P     0.84774   0.79889   0.57532   0.01267  Uiso   1.00
P15    P     0.63438   0.54178   0.97154   0.01267  Uiso   1.00
P16    P     0.65355   0.40781   0.09159   0.01267  Uiso   1.00
P17    P     0.45371   0.06013   0.25478   0.01267  Uiso   1.00
P18    P     0.66781   0.06877   0.17272   0.01267  Uiso   1.00
P19    P     0.69640   0.00221   0.93983   0.01267  Uiso   1.00
P20    P     0.63026   0.90021   0.07448   0.01267  Uiso   1.00
P21    P     0.37278   0.93103   0.48501   0.01267  Uiso   1.00
P22    P     0.32002   0.01156   0.58859   0.01267  Uiso   1.00
P23    P     0.83762   0.54046   0.43778   0.01267  Uiso   1.00
P24    P     0.92239   0.39173   0.50932   0.01267  Uiso   1.00
P25    P     0.57764   0.24903   0.93311   0.01267  Uiso   1.00
P26    P     0.37897   0.34258   0.90245   0.01267  Uiso   1.00
P27    P     0.17288   0.61790   0.22106   0.01267  Uiso   1.00
P28    P     0.33385   0.57948   0.30030   0.01267  Uiso   1.00
P29    P     0.27596   0.29441   0.43382   0.01267  Uiso   1.00
P30    P     0.15226   0.20111   0.42468   0.01267  Uiso   1.00
P31    P     0.36562   0.45822   0.02846   0.01267  Uiso   1.00
P32    P     0.34645   0.59219   0.90841   0.01267  Uiso   1.00
H1     H     0.33380   0.05580   0.79830   0.01267  Uiso   1.00
H2     H     0.43950   0.04570   0.79350   0.01267  Uiso   1.00
H3     H     0.25110   0.04520   0.91050   0.01267  Uiso   1.00
H4     H     0.22540   0.99280   0.97300   0.01267  Uiso   1.00
H5     H     0.81260   0.94920   0.47810   0.01267  Uiso   1.00
H6     H     0.80430   0.99690   0.51590   0.01267  Uiso   1.00
H7     H     0.25790   0.59720   0.45910   0.01267  Uiso   1.00
H8     H     0.29640   0.52220   0.47780   0.01267  Uiso   1.00
H9     H     0.42600   0.69050   0.19550   0.01267  Uiso   1.00
H10    H     0.52250   0.68070   0.20960   0.01267  Uiso   1.00
H11    H     0.88860   0.32890   0.68050   0.01267  Uiso   1.00
H12    H     0.80670   0.33460   0.65150   0.01267  Uiso   1.00
H13    H     0.84010   0.83680   0.45470   0.01267  Uiso   1.00
H14    H     0.74650   0.81880   0.46400   0.01267  Uiso   1.00
H15    H     0.80750   0.41700   0.98430   0.01267  Uiso   1.00
H16    H     0.82180   0.48790   0.95670   0.01267  Uiso   1.00
H17    H     0.39040   0.99110   0.71480   0.01267  Uiso   1.00
H18    H     0.42920   0.08150   0.63410   0.01267  Uiso   1.00
H19    H     0.41840   0.19200   0.56040   0.01267  Uiso   1.00
H20    H     0.37670   0.29080   0.60160   0.01267  Uiso   1.00
H21    H     0.34620   0.27420   0.71550   0.01267  Uiso   1.00
H22    H     0.21650   0.10570   0.00280   0.01267  Uiso   1.00
H23    H     0.06300   0.12840   0.01150   0.01267  Uiso   1.00
H24    H     0.90090   0.15300   0.99990   0.01267  Uiso   1.00
H25    H     0.85740   0.10790   0.93220   0.01267  Uiso   1.00
H26    H     0.97530   0.03840   0.87410   0.01267  Uiso   1.00
H27    H     0.74240   0.07950   0.41280   0.01267  Uiso   1.00
H28    H     0.88300   0.10010   0.37570   0.01267  Uiso   1.00
H29    H     0.04940   0.10310   0.33370   0.01267  Uiso   1.00
H30    H     0.17460   0.00800   0.37440   0.01267  Uiso   1.00
H31    H     0.13010   0.91300   0.45400   0.01267  Uiso   1.00
H32    H     0.16590   0.56430   0.57830   0.01267  Uiso   1.00
H33    H     0.29750   0.55290   0.61680   0.01267  Uiso   1.00
H34    H     0.44310   0.56420   0.63390   0.01267  Uiso   1.00
H35    H     0.57550   0.58860   0.54620   0.01267  Uiso   1.00
H36    H     0.56620   0.59870   0.44220   0.01267  Uiso   1.00
H37    H     0.54490   0.77150   0.10460   0.01267  Uiso   1.00
H38    H     0.45110   0.85250   0.15030   0.01267  Uiso   1.00
H39    H     0.38700   0.92460   0.22080   0.01267  Uiso   1.00
H40    H     0.33430   0.87880   0.33660   0.01267  Uiso   1.00
H41    H     0.33670   0.76090   0.37900   0.01267  Uiso   1.00
H42    H     0.72970   0.31380   0.77360   0.01267  Uiso   1.00
H43    H     0.80270   0.20340   0.79600   0.01267  Uiso   1.00
H44    H     0.86160   0.08810   0.79440   0.01267  Uiso   1.00
H45    H     0.95510   0.05910   0.69440   0.01267  Uiso   1.00
H46    H     0.98160   0.14880   0.59920   0.01267  Uiso   1.00
H47    H     0.88980   0.71450   0.51650   0.01267  Uiso   1.00
H48    H     0.89900   0.68000   0.42570   0.01267  Uiso   1.00
H49    H     0.94680   0.66790   0.31810   0.01267  Uiso   1.00
H50    H     0.92270   0.76660   0.22520   0.01267  Uiso   1.00
H51    H     0.84720   0.87480   0.24500   0.01267  Uiso   1.00
H52    H     0.71770   0.50680   0.05930   0.01267  Uiso   1.00
H53    H     0.99210   0.41160   0.93640   0.01267  Uiso   1.00
H54    H     0.13650   0.37800   0.97870   0.01267  Uiso   1.00
H55    H     0.12670   0.37980   0.08770   0.01267  Uiso   1.00
H56    H     0.97250   0.41510   0.15440   0.01267  Uiso   1.00
H57    H     0.60550   0.00370   0.65850   0.01267  Uiso   1.00
H58    H     0.38650   0.82840   0.83860   0.01267  Uiso   1.00
H59    H     0.17290   0.01290   0.12570   0.01267  Uiso   1.00
H60    H     0.66790   0.15030   0.52080   0.01267  Uiso   1.00
H61    H     0.23230   0.42090   0.64010   0.01267  Uiso   1.00
H62    H     0.33600   0.84300   0.08180   0.01267  Uiso   1.00
H63    H     0.73200   0.67980   0.11950   0.01267  Uiso   1.00
H64    H     0.86940   0.30630   0.85950   0.01267  Uiso   1.00
H65    H     0.73200   0.64930   0.50460   0.01267  Uiso   1.00
H66    H     0.87330   0.75650   0.66890   0.01267  Uiso   1.00
H67    H     0.65350   0.63710   0.91230   0.01267  Uiso   1.00
H68    H     0.57420   0.40050   0.03220   0.01267  Uiso   1.00
H69    H     0.66620   0.94420   0.20170   0.01267  Uiso   1.00
H70    H     0.56050   0.95430   0.20650   0.01267  Uiso   1.00
H71    H     0.74890   0.95480   0.08950   0.01267  Uiso   1.00
H72    H     0.77460   0.00720   0.02700   0.01267  Uiso   1.00
H73    H     0.18740   0.05080   0.52190   0.01267  Uiso   1.00
H74    H     0.19570   0.00310   0.48410   0.01267  Uiso   1.00
H75    H     0.74210   0.40280   0.54090   0.01267  Uiso   1.00
H76    H     0.70360   0.47780   0.52220   0.01267  Uiso   1.00
H77    H     0.57400   0.30950   0.80450   0.01267  Uiso   1.00
H78    H     0.47750   0.31930   0.79040   0.01267  Uiso   1.00
H79    H     0.11140   0.67110   0.31950   0.01267  Uiso   1.00
H80    H     0.19330   0.66540   0.34850   0.01267  Uiso   1.00
H81    H     0.15990   0.16320   0.54530   0.01267  Uiso   1.00
H82    H     0.25350   0.18120   0.53600   0.01267  Uiso   1.00
H83    H     0.19250   0.58300   0.01570   0.01267  Uiso   1.00
H84    H     0.17820   0.51210   0.04330   0.01267  Uiso   1.00
H85    H     0.60960   0.00890   0.28520   0.01267  Uiso   1.00
H86    H     0.57080   0.91850   0.36590   0.01267  Uiso   1.00
H87    H     0.58160   0.80800   0.43960   0.01267  Uiso   1.00
H88    H     0.62330   0.70920   0.39840   0.01267  Uiso   1.00
H89    H     0.65380   0.72580   0.28450   0.01267  Uiso   1.00
H90    H     0.78350   0.89430   0.99720   0.01267  Uiso   1.00
H91    H     0.93700   0.87160   0.98850   0.01267  Uiso   1.00
H92    H     0.09910   0.84700   0.00010   0.01267  Uiso   1.00
H93    H     0.14260   0.89210   0.06780   0.01267  Uiso   1.00
H94    H     0.02470   0.96160   0.12590   0.01267  Uiso   1.00
H95    H     0.25760   0.92050   0.58720   0.01267  Uiso   1.00
H96    H     0.11700   0.89990   0.62430   0.01267  Uiso   1.00
H97    H     0.95060   0.89690   0.66630   0.01267  Uiso   1.00
H98    H     0.82540   0.99200   0.62560   0.01267  Uiso   1.00
H99    H     0.86990   0.08700   0.54600   0.01267  Uiso   1.00
H100   H     0.83410   0.43570   0.42170   0.01267  Uiso   1.00
H101   H     0.70250   0.44710   0.38320   0.01267  Uiso   1.00
H102   H     0.55690   0.43580   0.36610   0.01267  Uiso   1.00
H103   H     0.42450   0.41140   0.45380   0.01267  Uiso   1.00
H104   H     0.43380   0.40130   0.55780   0.01267  Uiso   1.00
H105   H     0.45510   0.22850   0.89540   0.01267  Uiso   1.00
H106   H     0.54890   0.14750   0.84970   0.01267  Uiso   1.00
H107   H     0.61300   0.07540   0.77920   0.01267  Uiso   1.00
H108   H     0.66570   0.12120   0.66340   0.01267  Uiso   1.00
H109   H     0.66330   0.23910   0.62100   0.01267  Uiso   1.00
H110   H     0.27030   0.68620   0.22640   0.01267  Uiso   1.00
H111   H     0.19730   0.79660   0.20400   0.01267  Uiso   1.00
H112   H     0.13840   0.91190   0.20560   0.01267  Uiso   1.00
H113   H     0.04490   0.94090   0.30560   0.01267  Uiso   1.00
H114   H     0.01840   0.85120   0.40080   0.01267  Uiso   1.00
H115   H     0.11020   0.28550   0.48350   0.01267  Uiso   1.00
H116   H     0.10100   0.32000   0.57430   0.01267  Uiso   1.00
H117   H     0.05320   0.33210   0.68190   0.01267  Uiso   1.00
H118   H     0.07730   0.23340   0.77480   0.01267  Uiso   1.00
H119   H     0.15280   0.12520   0.75500   0.01267  Uiso   1.00
H120   H     0.28230   0.49320   0.94070   0.01267  Uiso   1.00
H121   H     0.00790   0.58840   0.06360   0.01267  Uiso   1.00
H122   H     0.86350   0.62200   0.02130   0.01267  Uiso   1.00
H123   H     0.87330   0.62020   0.91230   0.01267  Uiso   1.00
H124   H     0.02750   0.58490   0.84560   0.01267  Uiso   1.00
H125   H     0.39450   0.99630   0.34150   0.01267  Uiso   1.00
H126   H     0.61350   0.17160   0.16140   0.01267  Uiso   1.00
H127   H     0.82710   0.98710   0.87430   0.01267  Uiso   1.00
H128   H     0.33210   0.84970   0.47920   0.01267  Uiso   1.00
H129   H     0.76770   0.57910   0.35990   0.01267  Uiso   1.00
H130   H     0.66400   0.15700   0.91820   0.01267  Uiso   1.00
H131   H     0.26800   0.32020   0.88050   0.01267  Uiso   1.00
H132   H     0.13060   0.69370   0.14050   0.01267  Uiso   1.00
H133   H     0.26800   0.35070   0.49540   0.01267  Uiso   1.00
H134   H     0.12670   0.24350   0.33110   0.01267  Uiso   1.00
H135   H     0.34650   0.36290   0.08770   0.01267  Uiso   1.00
H136   H     0.42580   0.59950   0.96780   0.01267  Uiso   1.00
C1     C     0.41220   0.98280   0.75660   0.01267  Uiso   1.00
C2     C     0.39420   0.11180   0.72090   0.01267  Uiso   1.00
C3     C     0.41270   0.12050   0.65030   0.01267  Uiso   1.00
C4     C     0.40620   0.18620   0.60670   0.01267  Uiso   1.00
C5     C     0.38110   0.24580   0.63120   0.01267  Uiso   1.00
C6     C     0.36360   0.23550   0.69860   0.01267  Uiso   1.00
C7     C     0.26470   0.06660   0.98730   0.01267  Uiso   1.00
C8     C     0.12040   0.06210   0.94930   0.01267  Uiso   1.00
C9     C     0.04620   0.10880   0.98440   0.01267  Uiso   1.00
C10    C     0.95030   0.12360   0.97660   0.01267  Uiso   1.00
C11    C     0.92370   0.09690   0.93610   0.01267  Uiso   1.00
C12    C     0.99300   0.05550   0.90270   0.01267  Uiso   1.00
C13    C     0.72390   0.03840   0.44850   0.01267  Uiso   1.00
C14    C     0.90720   0.00130   0.44230   0.01267  Uiso   1.00
C15    C     0.93270   0.06210   0.39180   0.01267  Uiso   1.00
C16    C     0.03200   0.06360   0.36700   0.01267  Uiso   1.00
C17    C     0.10750   0.00670   0.39100   0.01267  Uiso   1.00
C18    C     0.08060   0.95100   0.43780   0.01267  Uiso   1.00
C19    C     0.17460   0.55030   0.53750   0.01267  Uiso   1.00
C20    C     0.34660   0.56820   0.51390   0.01267  Uiso   1.00
C21    C     0.35100   0.56180   0.58080   0.01267  Uiso   1.00
C22    C     0.43820   0.56910   0.59030   0.01267  Uiso   1.00
C23    C     0.51820   0.58350   0.53810   0.01267  Uiso   1.00
C24    C     0.51190   0.58950   0.47750   0.01267  Uiso   1.00
C25    C     0.51770   0.72980   0.11660   0.01267  Uiso   1.00
C26    C     0.43460   0.76090   0.22460   0.01267  Uiso   1.00
C27    C     0.42920   0.83380   0.19650   0.01267  Uiso   1.00
C28    C     0.39090   0.87650   0.23880   0.01267  Uiso   1.00
C29    C     0.35770   0.84960   0.30820   0.01267  Uiso   1.00
C30    C     0.36060   0.77960   0.33310   0.01267  Uiso   1.00
C31    C     0.76330   0.34890   0.73840   0.01267  Uiso   1.00
C32    C     0.85930   0.24480   0.69590   0.01267  Uiso   1.00
C33    C     0.83920   0.19200   0.75620   0.01267  Uiso   1.00
C34    C     0.87450   0.12370   0.75490   0.01267  Uiso   1.00
C35    C     0.92990   0.10570   0.69520   0.01267  Uiso   1.00
C36    C     0.94470   0.15900   0.63940   0.01267  Uiso   1.00
C37    C     0.82830   0.75020   0.52480   0.01267  Uiso   1.00
C38    C     0.84430   0.78630   0.39960   0.01267  Uiso   1.00
C39    C     0.88890   0.71940   0.38900   0.01267  Uiso   1.00
C40    C     0.91740   0.71220   0.32480   0.01267  Uiso   1.00
C41    C     0.90280   0.77100   0.26910   0.01267  Uiso   1.00
C42    C     0.85840   0.83510   0.28120   0.01267  Uiso   1.00
C43    C     0.71030   0.47990   0.03220   0.01267  Uiso   1.00
C44    C     0.89580   0.43350   0.02010   0.01267  Uiso   1.00
C45    C     0.98820   0.41230   0.98010   0.01267  Uiso   1.00
C46    C     0.07470   0.39220   0.00550   0.01267  Uiso   1.00
C47    C     0.06880   0.39320   0.07080   0.01267  Uiso   1.00
C48    C     0.97640   0.41440   0.11070   0.01267  Uiso   1.00
C49    C     0.58780   0.01720   0.24340   0.01267  Uiso   1.00
C50    C     0.60580   0.88820   0.27910   0.01267  Uiso   1.00
C51    C     0.58730   0.87950   0.34970   0.01267  Uiso   1.00
C52    C     0.59380   0.81380   0.39330   0.01267  Uiso   1.00
C53    C     0.61890   0.75420   0.36880   0.01267  Uiso   1.00
C54    C     0.63640   0.76450   0.30140   0.01267  Uiso   1.00
C55    C     0.73530   0.93340   0.01270   0.01267  Uiso   1.00
C56    C     0.87960   0.93790   0.05070   0.01267  Uiso   1.00
C57    C     0.95380   0.89120   0.01560   0.01267  Uiso   1.00
C58    C     0.04970   0.87640   0.02340   0.01267  Uiso   1.00
C59    C     0.07630   0.90310   0.06390   0.01267  Uiso   1.00
C60    C     0.00700   0.94450   0.09730   0.01267  Uiso   1.00
C61    C     0.27610   0.96160   0.55150   0.01267  Uiso   1.00
C62    C     0.09280   0.99870   0.55770   0.01267  Uiso   1.00
C63    C     0.06730   0.93790   0.60820   0.01267  Uiso   1.00
C64    C     0.96800   0.93640   0.63300   0.01267  Uiso   1.00
C65    C     0.89250   0.99330   0.60900   0.01267  Uiso   1.00
C66    C     0.91940   0.04900   0.56220   0.01267  Uiso   1.00
C67    C     0.82540   0.44970   0.46250   0.01267  Uiso   1.00
C68    C     0.65340   0.43180   0.48610   0.01267  Uiso   1.00
C69    C     0.64900   0.43820   0.41920   0.01267  Uiso   1.00
C70    C     0.56180   0.43090   0.40970   0.01267  Uiso   1.00
C71    C     0.48180   0.41650   0.46190   0.01267  Uiso   1.00
C72    C     0.48810   0.41050   0.52250   0.01267  Uiso   1.00
C73    C     0.48230   0.27020   0.88340   0.01267  Uiso   1.00
C74    C     0.56540   0.23910   0.77540   0.01267  Uiso   1.00
C75    C     0.57080   0.16620   0.80350   0.01267  Uiso   1.00
C76    C     0.60910   0.12350   0.76120   0.01267  Uiso   1.00
C77    C     0.64230   0.15040   0.69180   0.01267  Uiso   1.00
C78    C     0.63940   0.22040   0.66690   0.01267  Uiso   1.00
C79    C     0.23670   0.65110   0.26160   0.01267  Uiso   1.00
C80    C     0.14070   0.75520   0.30410   0.01267  Uiso   1.00
C81    C     0.16080   0.80800   0.24380   0.01267  Uiso   1.00
C82    C     0.12550   0.87630   0.24510   0.01267  Uiso   1.00
C83    C     0.07010   0.89430   0.30480   0.01267  Uiso   1.00
C84    C     0.05530   0.84100   0.36060   0.01267  Uiso   1.00
C85    C     0.17170   0.24980   0.47520   0.01267  Uiso   1.00
C86    C     0.15570   0.21370   0.60040   0.01267  Uiso   1.00
C87    C     0.11110   0.28060   0.61100   0.01267  Uiso   1.00
C88    C     0.08260   0.28780   0.67520   0.01267  Uiso   1.00
C89    C     0.09720   0.22900   0.73090   0.01267  Uiso   1.00
C90    C     0.14160   0.16490   0.71880   0.01267  Uiso   1.00
C91    C     0.28970   0.52010   0.96780   0.01267  Uiso   1.00
C92    C     0.10420   0.56650   0.97990   0.01267  Uiso   1.00
C93    C     0.01180   0.58770   0.01990   0.01267  Uiso   1.00
C94    C     0.92530   0.60780   0.99450   0.01267  Uiso   1.00
C95    C     0.93120   0.60680   0.92920   0.01267  Uiso   1.00
C96    C     0.02360   0.58560   0.88930   0.01267  Uiso   1.00
N1     N     0.39390   0.05030   0.77000   0.01267  Uiso   1.00
N2     N     0.37070   0.17010   0.74230   0.01267  Uiso   1.00
N3     N     0.21580   0.03960   0.95340   0.01267  Uiso   1.00
N4     N     0.09130   0.03710   0.90920   0.01267  Uiso   1.00
N5     N     0.81320   0.99380   0.47380   0.01267  Uiso   1.00
N6     N     0.98270   0.94730   0.46330   0.01267  Uiso   1.00
N7     N     0.27110   0.55970   0.49440   0.01267  Uiso   1.00
N8     N     0.42740   0.58300   0.46270   0.01267  Uiso   1.00
N9     N     0.47440   0.71280   0.18910   0.01267  Uiso   1.00
N10    N     0.39760   0.73610   0.29200   0.01267  Uiso   1.00
N11    N     0.83140   0.31490   0.68950   0.01267  Uiso   1.00
N12    N     0.90860   0.22590   0.63950   0.01267  Uiso   1.00
N13    N     0.81300   0.80120   0.45930   0.01267  Uiso   1.00
N14    N     0.83050   0.84190   0.34470   0.01267  Uiso   1.00
N15    N     0.81110   0.45400   0.99570   0.01267  Uiso   1.00
N16    N     0.88990   0.43450   0.08540   0.01267  Uiso   1.00
N17    N     0.60610   0.94970   0.23000   0.01267  Uiso   1.00
N18    N     0.62930   0.82990   0.25770   0.01267  Uiso   1.00
N19    N     0.78420   0.96040   0.04660   0.01267  Uiso   1.00
N20    N     0.90870   0.96290   0.09080   0.01267  Uiso   1.00
N21    N     0.18680   0.00620   0.52620   0.01267  Uiso   1.00
N22    N     0.01730   0.05270   0.53670   0.01267  Uiso   1.00
N23    N     0.72890   0.44030   0.50560   0.01267  Uiso   1.00
N24    N     0.57260   0.41700   0.53730   0.01267  Uiso   1.00
N25    N     0.52560   0.28720   0.81090   0.01267  Uiso   1.00
N26    N     0.60240   0.26390   0.70800   0.01267  Uiso   1.00
N27    N     0.16860   0.68510   0.31050   0.01267  Uiso   1.00
N28    N     0.09140   0.77410   0.36050   0.01267  Uiso   1.00
N29    N     0.18700   0.19880   0.54070   0.01267  Uiso   1.00
N30    N     0.16950   0.15810   0.65530   0.01267  Uiso   1.00
N31    N     0.18890   0.54600   0.00430   0.01267  Uiso   1.00
N32    N     0.11010   0.56550   0.91460   0.01267  Uiso   1.00
O1     O     0.60090   0.00070   0.69822   0.01267  Uiso   1.00
O2     O     0.56730   0.88440   0.70950   0.01267  Uiso   1.00
O3     O     0.57420   0.91690   0.81303   0.01267  Uiso   1.00
O4     O     0.22450   0.96780   0.82550   0.01267  Uiso   1.00
O5     O     0.35550   0.85930   0.81140   0.01267  Uiso   1.00
O6     O     0.36060   0.92270   0.89218   0.01267  Uiso   1.00
O7     O     0.35980   0.93324   0.03636   0.01267  Uiso   1.00
O8     O     0.20320   0.98050   0.10880   0.01267  Uiso   1.00
O9     O     0.35490   0.02630   0.09294   0.01267  Uiso   1.00
O10    O     0.32490   0.16070   0.87117   0.01267  Uiso   1.00
O11    O     0.42240   0.12240   0.96338   0.01267  Uiso   1.00
O12    O     0.43230   0.03798   0.89804   0.01267  Uiso   1.00
O13    O     0.60890   0.00403   0.57195   0.01267  Uiso   1.00
O14    O     0.54110   0.11574   0.48311   0.01267  Uiso   1.00
O15    O     0.67480   0.10900   0.54334   0.01267  Uiso   1.00
O16    O     0.58840   0.03578   0.38503   0.01267  Uiso   1.00
O17    O     0.65890   0.92361   0.46855   0.01267  Uiso   1.00
O18    O     0.76760   0.96884   0.35582   0.01267  Uiso   1.00
O19    O     0.24770   0.41450   0.60250   0.01267  Uiso   1.00
O20    O     0.06080   0.45637   0.60510   0.01267  Uiso   1.00
O21    O     0.18980   0.43718   0.49810   0.01267  Uiso   1.00
O22    O     0.10310   0.58594   0.42630   0.01267  Uiso   1.00
O23    O     0.09030   0.68216   0.47550   0.01267  Uiso   1.00
O24    O     0.97740   0.59727   0.53470   0.01267  Uiso   1.00
O25    O     0.33020   0.80220   0.09980   0.01267  Uiso   1.00
O26    O     0.39140   0.68396   0.07898   0.01267  Uiso   1.00
O27    O     0.46160   0.79031   0.99563   0.01267  Uiso   1.00
O28    O     0.58400   0.59047   0.12640   0.01267  Uiso   1.00
O29    O     0.69970   0.64940   0.13920   0.01267  Uiso   1.00
O30    O     0.66370   0.67800   0.02264   0.01267  Uiso   1.00
O31    O     0.74940   0.41760   0.82770   0.01267  Uiso   1.00
O32    O     0.89330   0.42570   0.72420   0.01267  Uiso   1.00
O33    O     0.89650   0.31620   0.81940   0.01267  Uiso   1.00
O34    O     0.71080   0.48440   0.66330   0.01267  Uiso   1.00
O35    O     0.63940   0.39330   0.65090   0.01267  Uiso   1.00
O36    O     0.58060   0.42840   0.75950   0.01267  Uiso   1.00
O37    O     0.69850   0.68820   0.50790   0.01267  Uiso   1.00
O38    O     0.63480   0.75880   0.58980   0.01267  Uiso   1.00
O39    O     0.75900   0.63806   0.61711   0.01267  Uiso   1.00
O40    O     0.75720   0.85660   0.58430   0.01267  Uiso   1.00
O41    O     0.86050   0.74040   0.64330   0.01267  Uiso   1.00
O42    O     0.94290   0.82460   0.54190   0.01267  Uiso   1.00
O43    O     0.53000   0.56170   0.01154   0.01267  Uiso   1.00
O44    O     0.68420   0.60710   0.94020   0.01267  Uiso   1.00
O45    O     0.64550   0.50920   0.91680   0.01267  Uiso   1.00
O46    O     0.56270   0.44150   0.13510   0.01267  Uiso   1.00
O47    O     0.62300   0.37390   0.04710   0.01267  Uiso   1.00
O48    O     0.73140   0.35340   0.12590   0.01267  Uiso   1.00
O49    O     0.39910   0.99930   0.30178   0.01267  Uiso   1.00
O50    O     0.43270   0.11560   0.29050   0.01267  Uiso   1.00
O51    O     0.42580   0.08310   0.18697   0.01267  Uiso   1.00
O52    O     0.77550   0.03220   0.17450   0.01267  Uiso   1.00
O53    O     0.64450   0.14070   0.18860   0.01267  Uiso   1.00
O54    O     0.63940   0.07730   0.10782   0.01267  Uiso   1.00
O55    O     0.64020   0.06676   0.96364   0.01267  Uiso   1.00
O56    O     0.79680   0.01950   0.89120   0.01267  Uiso   1.00
O57    O     0.64510   0.97370   0.90706   0.01267  Uiso   1.00
O58    O     0.67510   0.83930   0.12883   0.01267  Uiso   1.00
O59    O     0.57760   0.87760   0.03662   0.01267  Uiso   1.00
O60    O     0.56770   0.96202   0.10196   0.01267  Uiso   1.00
O61    O     0.39110   0.99597   0.42805   0.01267  Uiso   1.00
O62    O     0.45890   0.88426   0.51689   0.01267  Uiso   1.00
O63    O     0.32520   0.89100   0.45666   0.01267  Uiso   1.00
O64    O     0.41160   0.96422   0.61497   0.01267  Uiso   1.00
O65    O     0.34110   0.07639   0.53145   0.01267  Uiso   1.00
O66    O     0.23240   0.03116   0.64418   0.01267  Uiso   1.00
O67    O     0.75230   0.58550   0.39750   0.01267  Uiso   1.00
O68    O     0.93920   0.54363   0.39490   0.01267  Uiso   1.00
O69    O     0.81020   0.56282   0.50190   0.01267  Uiso   1.00
O70    O     0.89690   0.41406   0.57370   0.01267  Uiso   1.00
O71    O     0.90970   0.31784   0.52450   0.01267  Uiso   1.00
O72    O     0.02260   0.40273   0.46530   0.01267  Uiso   1.00
O73    O     0.66980   0.19780   0.90020   0.01267  Uiso   1.00
O74    O     0.60860   0.31604   0.92102   0.01267  Uiso   1.00
O75    O     0.53840   0.20969   0.00437   0.01267  Uiso   1.00
O76    O     0.41600   0.40953   0.87360   0.01267  Uiso   1.00
O77    O     0.30030   0.35060   0.86080   0.01267  Uiso   1.00
O78    O     0.33630   0.32200   0.97736   0.01267  Uiso   1.00
O79    O     0.25060   0.58240   0.17230   0.01267  Uiso   1.00
O80    O     0.10670   0.57430   0.27580   0.01267  Uiso   1.00
O81    O     0.10350   0.68380   0.18060   0.01267  Uiso   1.00
O82    O     0.28920   0.51560   0.33670   0.01267  Uiso   1.00
O83    O     0.36060   0.60670   0.34910   0.01267  Uiso   1.00
O84    O     0.41940   0.57160   0.24050   0.01267  Uiso   1.00
O85    O     0.30150   0.31180   0.49210   0.01267  Uiso   1.00
O86    O     0.36520   0.24120   0.41020   0.01267  Uiso   1.00
O87    O     0.24100   0.36194   0.38289   0.01267  Uiso   1.00
O88    O     0.24280   0.14340   0.41570   0.01267  Uiso   1.00
O89    O     0.13950   0.25960   0.35670   0.01267  Uiso   1.00
O90    O     0.05710   0.17540   0.45810   0.01267  Uiso   1.00
O91    O     0.47000   0.43830   0.98846   0.01267  Uiso   1.00
O92    O     0.31580   0.39290   0.05980   0.01267  Uiso   1.00
O93    O     0.35450   0.49080   0.08320   0.01267  Uiso   1.00
O94    O     0.43730   0.55850   0.86490   0.01267  Uiso   1.00
O95    O     0.37700   0.62610   0.95290   0.01267  Uiso   1.00
O96    O     0.26860   0.64660   0.87410   0.01267  Uiso   1.00
