data_WEWGAH_clean
_audit_creation_date              2014-07-02
_audit_creation_method            'Materials Studio'
_symmetry_space_group_name_H-M    'P1'
_symmetry_Int_Tables_number       1
_symmetry_cell_setting            triclinic
loop_
_symmetry_equiv_pos_as_xyz
  x,y,z
_cell_length_a                    7.6210
_cell_length_b                    9.6340
_cell_length_c                    10.5000
_cell_angle_alpha                 106.4090
_cell_angle_beta                  105.2730
_cell_angle_gamma                 100.8800
loop_
_atom_site_label
_atom_site_type_symbol
_atom_site_fract_x
_atom_site_fract_y
_atom_site_fract_z
_atom_site_U_iso_or_equiv
_atom_site_adp_type
_atom_site_occupancy
Ho1    Ho    0.75333   0.96738   0.54823   0.01267  Uiso   1.00
Ho2    Ho    0.24667   0.03262   0.45177   0.01267  Uiso   1.00
H1     H     0.53790   0.80040   0.04820   0.01267  Uiso   1.00
H2     H     0.81580   0.48880   0.96380   0.01267  Uiso   1.00
H3     H     0.54840   0.62280   0.65400   0.01267  Uiso   1.00
H4     H     0.36380   0.87600   0.87750   0.01267  Uiso   1.00
H5     H     0.26140   0.73670   0.73290   0.01267  Uiso   1.00
H6     H     0.63550   0.67730   0.21590   0.01267  Uiso   1.00
H7     H     0.76740   0.56840   0.19080   0.01267  Uiso   1.00
H8     H     0.85040   0.39750   0.73560   0.01267  Uiso   1.00
H9     H     0.77530   0.47070   0.62010   0.01267  Uiso   1.00
H10    H     0.46210   0.19960   0.95180   0.01267  Uiso   1.00
H11    H     0.18420   0.51120   0.03620   0.01267  Uiso   1.00
H12    H     0.45160   0.37720   0.34600   0.01267  Uiso   1.00
H13    H     0.63620   0.12400   0.12250   0.01267  Uiso   1.00
H14    H     0.73860   0.26330   0.26710   0.01267  Uiso   1.00
H15    H     0.36450   0.32270   0.78410   0.01267  Uiso   1.00
H16    H     0.23260   0.43160   0.80920   0.01267  Uiso   1.00
H17    H     0.14960   0.60250   0.26440   0.01267  Uiso   1.00
H18    H     0.22470   0.52930   0.37990   0.01267  Uiso   1.00
C1     C     0.52220   0.72610   0.84480   0.01267  Uiso   1.00
C2     C     0.57750   0.73420   0.98300   0.01267  Uiso   1.00
C3     C     0.68850   0.64930   0.02970   0.01267  Uiso   1.00
C4     C     0.74260   0.55040   0.93350   0.01267  Uiso   1.00
C5     C     0.69140   0.54040   0.79430   0.01267  Uiso   1.00
C6     C     0.58250   0.62850   0.74940   0.01267  Uiso   1.00
C7     C     0.38470   0.81140   0.79420   0.01267  Uiso   1.00
C8     C     0.44360   0.90910   0.71480   0.01267  Uiso   1.00
C9     C     0.74300   0.66330   0.18230   0.01267  Uiso   1.00
C10    C     0.91720   0.79380   0.27500   0.01267  Uiso   1.00
C11    C     0.73990   0.42530   0.68670   0.01267  Uiso   1.00
C12    C     0.57540   0.28580   0.60590   0.01267  Uiso   1.00
C13    C     0.47780   0.27390   0.15520   0.01267  Uiso   1.00
C14    C     0.42250   0.26580   0.01700   0.01267  Uiso   1.00
C15    C     0.31150   0.35070   0.97030   0.01267  Uiso   1.00
C16    C     0.25740   0.44960   0.06650   0.01267  Uiso   1.00
C17    C     0.30860   0.45960   0.20570   0.01267  Uiso   1.00
C18    C     0.41750   0.37150   0.25060   0.01267  Uiso   1.00
C19    C     0.61530   0.18860   0.20580   0.01267  Uiso   1.00
C20    C     0.55640   0.09090   0.28520   0.01267  Uiso   1.00
C21    C     0.25700   0.33670   0.81770   0.01267  Uiso   1.00
C22    C     0.08280   0.20620   0.72500   0.01267  Uiso   1.00
C23    C     0.26010   0.57470   0.31330   0.01267  Uiso   1.00
C24    C     0.42460   0.71420   0.39410   0.01267  Uiso   1.00
O1     O     0.60770   0.93180   0.70840   0.01267  Uiso   1.00
O2     O     0.31470   0.96080   0.65540   0.01267  Uiso   1.00
O3     O     0.04390   0.83380   0.22770   0.01267  Uiso   1.00
O4     O     0.93670   0.86220   0.40410   0.01267  Uiso   1.00
O5     O     0.41150   0.29620   0.55850   0.01267  Uiso   1.00
O6     O     0.60070   0.15500   0.58340   0.01267  Uiso   1.00
O7     O     0.39230   0.06820   0.29160   0.01267  Uiso   1.00
O8     O     0.68530   0.03920   0.34460   0.01267  Uiso   1.00
O9     O     0.95610   0.16620   0.77230   0.01267  Uiso   1.00
O10    O     0.06330   0.13780   0.59590   0.01267  Uiso   1.00
O11    O     0.58850   0.70380   0.44150   0.01267  Uiso   1.00
O12    O     0.39930   0.84500   0.41660   0.01267  Uiso   1.00
