data_WEXNIW_clean
_audit_creation_date              2014-07-02
_audit_creation_method            'Materials Studio'
_symmetry_space_group_name_H-M    'P1'
_symmetry_Int_Tables_number       1
_symmetry_cell_setting            triclinic
loop_
_symmetry_equiv_pos_as_xyz
  x,y,z
_cell_length_a                    7.7969
_cell_length_b                    8.5017
_cell_length_c                    9.0179
_cell_angle_alpha                 78.6690
_cell_angle_beta                  68.3720
_cell_angle_gamma                 83.6340
loop_
_atom_site_label
_atom_site_type_symbol
_atom_site_fract_x
_atom_site_fract_y
_atom_site_fract_z
_atom_site_U_iso_or_equiv
_atom_site_adp_type
_atom_site_occupancy
Ba1    Ba    0.40382   0.85107   0.27183   0.01267  Uiso   1.00
Ba2    Ba    0.59618   0.14893   0.72817   0.01267  Uiso   1.00
V1     V     0.96696   0.31852   0.88245   0.01267  Uiso   1.00
V2     V     0.03304   0.68148   0.11755   0.01267  Uiso   1.00
H1     H     0.79990   0.68300   0.71730   0.01267  Uiso   1.00
H2     H     0.98110   0.86100   0.72480   0.01267  Uiso   1.00
H3     H     0.20010   0.31700   0.28270   0.01267  Uiso   1.00
H4     H     0.01890   0.13900   0.27520   0.01267  Uiso   1.00
C1     C     0.05610   0.58820   0.63420   0.01267  Uiso   1.00
C2     C     0.88560   0.64180   0.76670   0.01267  Uiso   1.00
C3     C     0.94890   0.77090   0.83310   0.01267  Uiso   1.00
C4     C     0.78220   0.81990   0.96970   0.01267  Uiso   1.00
C5     C     0.94390   0.41180   0.36580   0.01267  Uiso   1.00
C6     C     0.11440   0.35820   0.23330   0.01267  Uiso   1.00
C7     C     0.05110   0.22910   0.16690   0.01267  Uiso   1.00
C8     C     0.21780   0.18010   0.03030   0.01267  Uiso   1.00
O1     O     0.12780   0.67700   0.50590   0.01267  Uiso   1.00
O2     O     0.64070   0.88070   0.94540   0.01267  Uiso   1.00
O3     O     0.11620   0.44330   0.67090   0.01267  Uiso   1.00
O4     O     0.79230   0.78370   0.11120   0.01267  Uiso   1.00
O5     O     0.81190   0.51200   0.89080   0.01267  Uiso   1.00
O6     O     0.09230   0.71150   0.88850   0.01267  Uiso   1.00
O7     O     0.13470   0.81560   0.15650   0.01267  Uiso   1.00
O8     O     0.87220   0.32300   0.49410   0.01267  Uiso   1.00
O9     O     0.35930   0.11930   0.05460   0.01267  Uiso   1.00
O10    O     0.88380   0.55670   0.32910   0.01267  Uiso   1.00
O11    O     0.20770   0.21630   0.88880   0.01267  Uiso   1.00
O12    O     0.18810   0.48800   0.10920   0.01267  Uiso   1.00
O13    O     0.90770   0.28850   0.11150   0.01267  Uiso   1.00
O14    O     0.86530   0.18440   0.84350   0.01267  Uiso   1.00
