data_image0
_cell_length_a       9.551
_cell_length_b       9.979
_cell_length_c       10
_cell_angle_alpha    107.67
_cell_angle_beta     97.92
_cell_angle_gamma    114.91

_symmetry_space_group_name_H-M    "P 1"
_symmetry_int_tables_number       1

loop_
  _symmetry_equiv_pos_as_xyz
  'x, y, z'

loop_
  _atom_site_label
  _atom_site_occupancy
  _atom_site_fract_x
  _atom_site_fract_y
  _atom_site_fract_z
  _atom_site_thermal_displace_type
  _atom_site_B_iso_or_equiv
  _atom_site_type_symbol
  Co1      1.0000 0.68560  0.20660  0.15670  Biso   1.000  Co
  Co2      1.0000 0.86380  0.03300  0.61260  Biso   1.000  Co
  P1       1.0000 0.82510  0.59930  0.27000  Biso   1.000  P
  P2       1.0000 0.84420  0.02920  0.30630  Biso   1.000  P
  P3       1.0000 0.66310  0.96950  0.83850  Biso   1.000  P
  O1       1.0000 0.65880  0.10940  0.94920  Biso   1.000  O
  O2       1.0000 0.82300  0.15920  0.27570  Biso   1.000  O
  O3       1.0000 0.82900  0.44130  0.21080  Biso   1.000  O
  O4       1.0000 0.50920  0.81080  0.79660  Biso   1.000  O
  O5       1.0000 0.75050  0.96460  0.40380  Biso   1.000  O
  O6       1.0000 0.99350  0.73600  0.30180  Biso   1.000  O
  O7       1.0000 0.69380  0.99960  0.70320  Biso   1.000  O
  O8       1.0000 0.02620  0.09310  0.37420  Biso   1.000  O
  O9       1.0000 0.69570  0.60440  0.16800  Biso   1.000  O
  O10      1.0000 0.78100  0.61560  0.41970  Biso   1.000  O
  O11      1.0000 0.78090  0.88220  0.15130  Biso   1.000  O
  O12      1.0000 0.81310  0.95460  0.90830  Biso   1.000  O
  Co3      1.0000 0.31440  0.79340  0.84330  Biso   1.000  Co
  Co4      1.0000 0.13620  0.96700  0.38740  Biso   1.000  Co
  P4       1.0000 0.17490  0.40070  0.73000  Biso   1.000  P
  P5       1.0000 0.15580  0.97080  0.69370  Biso   1.000  P
  P6       1.0000 0.33690  0.03050  0.16150  Biso   1.000  P
  O13      1.0000 0.34120  0.89060  0.05080  Biso   1.000  O
  O14      1.0000 0.17700  0.84080  0.72430  Biso   1.000  O
  O15      1.0000 0.17100  0.55870  0.78920  Biso   1.000  O
  O16      1.0000 0.49080  0.18920  0.20340  Biso   1.000  O
  O17      1.0000 0.24950  0.03540  0.59620  Biso   1.000  O
  O18      1.0000 0.00650  0.26400  0.69820  Biso   1.000  O
  O19      1.0000 0.30620  0.00040  0.29680  Biso   1.000  O
  O20      1.0000 0.97380  0.90690  0.62580  Biso   1.000  O
  O21      1.0000 0.30430  0.39560  0.83200  Biso   1.000  O
  O22      1.0000 0.21900  0.38440  0.58030  Biso   1.000  O
  O23      1.0000 0.21910  0.11780  0.84870  Biso   1.000  O
  O24      1.0000 0.18690  0.04540  0.09170  Biso   1.000  O
