data_image0
_cell_length_a       5.2352
_cell_length_b       15.437
_cell_length_c       17.975
_cell_angle_alpha    90
_cell_angle_beta     91.786
_cell_angle_gamma    90

_symmetry_space_group_name_H-M    "P 1"
_symmetry_int_tables_number       1

loop_
  _symmetry_equiv_pos_as_xyz
  'x, y, z'

loop_
  _atom_site_label
  _atom_site_occupancy
  _atom_site_fract_x
  _atom_site_fract_y
  _atom_site_fract_z
  _atom_site_thermal_displace_type
  _atom_site_B_iso_or_equiv
  _atom_site_type_symbol
  Zn1      1.0000 0.06150  0.76500  0.69878  Biso   1.000  Zn
  Zn2      1.0000 0.56730  0.89155  0.74338  Biso   1.000  Zn
  Zn3      1.0000 0.42480  0.59512  0.69630  Biso   1.000  Zn
  Zn4      1.0000 0.89050  0.72522  0.93184  Biso   1.000  Zn
  P1       1.0000 0.53930  0.76250  0.60560  Biso   1.000  P
  P2       1.0000 0.07330  0.88570  0.83850  Biso   1.000  P
  P3       1.0000 0.93930  0.59980  0.79400  Biso   1.000  P
  O1       1.0000 0.82480  0.77810  0.61670  Biso   1.000  O
  O2       1.0000 0.10250  0.64390  0.73270  Biso   1.000  O
  O3       1.0000 0.40120  0.80870  0.67110  Biso   1.000  O
  O4       1.0000 0.91710  0.85150  0.76800  Biso   1.000  O
  O5       1.0000 0.00380  0.50390  0.79100  Biso   1.000  O
  O6       1.0000 0.35220  0.86280  0.82700  Biso   1.000  O
  O7       1.0000 0.02800  0.98270  0.84510  Biso   1.000  O
  O8       1.0000 0.65910  0.61930  0.77840  Biso   1.000  O
  O9       1.0000 0.46780  0.66860  0.60780  Biso   1.000  O
  O10      1.0000 0.98410  0.84170  0.90820  Biso   1.000  O
  O11      1.0000 0.02400  0.63580  0.86990  Biso   1.000  O
  O12      1.0000 0.45110  0.80580  0.53380  Biso   1.000  O
  O13      1.0000 0.51180  0.72540  0.90670  Biso   1.000  O
  H1       1.0000 0.45320  0.67690  0.91380  Biso   1.000  H
  Zn5      1.0000 0.43850  0.26500  0.80122  Biso   1.000  Zn
  Zn6      1.0000 0.93270  0.39155  0.75662  Biso   1.000  Zn
  Zn7      1.0000 0.07520  0.09512  0.80370  Biso   1.000  Zn
  Zn8      1.0000 0.60950  0.22522  0.56816  Biso   1.000  Zn
  P4       1.0000 0.96070  0.26250  0.89440  Biso   1.000  P
  P5       1.0000 0.42670  0.38570  0.66150  Biso   1.000  P
  P6       1.0000 0.56070  0.09980  0.70600  Biso   1.000  P
  O14      1.0000 0.67520  0.27810  0.88330  Biso   1.000  O
  O15      1.0000 0.39750  0.14390  0.76730  Biso   1.000  O
  O16      1.0000 0.09880  0.30870  0.82890  Biso   1.000  O
  O17      1.0000 0.58290  0.35150  0.73200  Biso   1.000  O
  O18      1.0000 0.49620  0.00390  0.70900  Biso   1.000  O
  O19      1.0000 0.14780  0.36280  0.67300  Biso   1.000  O
  O20      1.0000 0.47200  0.48270  0.65490  Biso   1.000  O
  O21      1.0000 0.84090  0.11930  0.72160  Biso   1.000  O
  O22      1.0000 0.03220  0.16860  0.89220  Biso   1.000  O
  O23      1.0000 0.51590  0.34170  0.59180  Biso   1.000  O
  O24      1.0000 0.47600  0.13580  0.63010  Biso   1.000  O
  O25      1.0000 0.04890  0.30580  0.96620  Biso   1.000  O
  O26      1.0000 0.98820  0.22540  0.59330  Biso   1.000  O
  H2       1.0000 0.04680  0.17690  0.58620  Biso   1.000  H
  Zn9      1.0000 0.93850  0.23500  0.30122  Biso   1.000  Zn
  Zn10     1.0000 0.43270  0.10845  0.25662  Biso   1.000  Zn
  Zn11     1.0000 0.57520  0.40488  0.30370  Biso   1.000  Zn
  Zn12     1.0000 0.10950  0.27478  0.06816  Biso   1.000  Zn
  P7       1.0000 0.46070  0.23750  0.39440  Biso   1.000  P
  P8       1.0000 0.92670  0.11430  0.16150  Biso   1.000  P
  P9       1.0000 0.06070  0.40020  0.20600  Biso   1.000  P
  O27      1.0000 0.17520  0.22190  0.38330  Biso   1.000  O
  O28      1.0000 0.89750  0.35610  0.26730  Biso   1.000  O
  O29      1.0000 0.59880  0.19130  0.32890  Biso   1.000  O
  O30      1.0000 0.08290  0.14850  0.23200  Biso   1.000  O
  O31      1.0000 0.99620  0.49610  0.20900  Biso   1.000  O
  O32      1.0000 0.64780  0.13720  0.17300  Biso   1.000  O
  O33      1.0000 0.97200  0.01730  0.15490  Biso   1.000  O
  O34      1.0000 0.34090  0.38070  0.22160  Biso   1.000  O
  O35      1.0000 0.53220  0.33140  0.39220  Biso   1.000  O
  O36      1.0000 0.01590  0.15830  0.09180  Biso   1.000  O
  O37      1.0000 0.97600  0.36420  0.13010  Biso   1.000  O
  O38      1.0000 0.54890  0.19420  0.46620  Biso   1.000  O
  O39      1.0000 0.48820  0.27460  0.09330  Biso   1.000  O
  H3       1.0000 0.54680  0.32310  0.08620  Biso   1.000  H
  Zn13     1.0000 0.56150  0.73500  0.19878  Biso   1.000  Zn
  Zn14     1.0000 0.06730  0.60845  0.24338  Biso   1.000  Zn
  Zn15     1.0000 0.92480  0.90488  0.19630  Biso   1.000  Zn
  Zn16     1.0000 0.39050  0.77478  0.43184  Biso   1.000  Zn
  P10      1.0000 0.03930  0.73750  0.10560  Biso   1.000  P
  P11      1.0000 0.57330  0.61430  0.33850  Biso   1.000  P
  P12      1.0000 0.43930  0.90020  0.29400  Biso   1.000  P
  O40      1.0000 0.32480  0.72190  0.11670  Biso   1.000  O
  O41      1.0000 0.60250  0.85610  0.23270  Biso   1.000  O
  O42      1.0000 0.90120  0.69130  0.17110  Biso   1.000  O
  O43      1.0000 0.41710  0.64850  0.26800  Biso   1.000  O
  O44      1.0000 0.50380  0.99610  0.29100  Biso   1.000  O
  O45      1.0000 0.85220  0.63720  0.32700  Biso   1.000  O
  O46      1.0000 0.52800  0.51730  0.34510  Biso   1.000  O
  O47      1.0000 0.15910  0.88070  0.27840  Biso   1.000  O
  O48      1.0000 0.96780  0.83140  0.10780  Biso   1.000  O
  O49      1.0000 0.48410  0.65830  0.40820  Biso   1.000  O
  O50      1.0000 0.52400  0.86420  0.36990  Biso   1.000  O
  O51      1.0000 0.95110  0.69420  0.03380  Biso   1.000  O
  O52      1.0000 0.01180  0.77460  0.40670  Biso   1.000  O
  H4       1.0000 0.95320  0.82310  0.41380  Biso   1.000  H
