data_image0
_cell_length_a       8.7142
_cell_length_b       10.8075
_cell_length_c       18.074
_cell_angle_alpha    90
_cell_angle_beta     90
_cell_angle_gamma    90

_symmetry_space_group_name_H-M    "P 1"
_symmetry_int_tables_number       1

loop_
  _symmetry_equiv_pos_as_xyz
  'x, y, z'

loop_
  _atom_site_label
  _atom_site_occupancy
  _atom_site_fract_x
  _atom_site_fract_y
  _atom_site_fract_z
  _atom_site_thermal_displace_type
  _atom_site_B_iso_or_equiv
  _atom_site_type_symbol
  Co1      1.0000 0.84020  0.67345  0.87976  Biso   1.000  Co
  Co2      1.0000 0.83880  0.95076  0.95588  Biso   1.000  Co
  Cl1      1.0000 0.71080  0.86460  0.84610  Biso   1.000  Cl
  P1       1.0000 0.84170  0.28190  0.53307  Biso   1.000  P
  N1       1.0000 0.72280  0.29750  0.67820  Biso   1.000  N
  H1       1.0000 0.82370  0.28640  0.68930  Biso   1.000  H
  C1       1.0000 0.65400  0.37790  0.73820  Biso   1.000  C
  H2       1.0000 0.56140  0.41810  0.71930  Biso   1.000  H
  C2       1.0000 0.61200  0.29080  0.79930  Biso   1.000  C
  H3       1.0000 0.68390  0.29820  0.83990  Biso   1.000  H
  H4       1.0000 0.50980  0.31000  0.81770  Biso   1.000  H
  C3       1.0000 0.61500  0.16280  0.76870  Biso   1.000  C
  H5       1.0000 0.51800  0.12160  0.77790  Biso   1.000  H
  H6       1.0000 0.69610  0.11520  0.79210  Biso   1.000  H
  C4       1.0000 0.64370  0.17270  0.68630  Biso   1.000  C
  H7       1.0000 0.54810  0.17070  0.65890  Biso   1.000  H
  H8       1.0000 0.70930  0.10610  0.66920  Biso   1.000  H
  C5       1.0000 0.76540  0.47540  0.76490  Biso   1.000  C
  C6       1.0000 0.71500  0.34960  0.60240  Biso   1.000  C
  H9       1.0000 0.73740  0.43740  0.60550  Biso   1.000  H
  H10      1.0000 0.61020  0.34150  0.58490  Biso   1.000  H
  O1       1.0000 0.71320  0.54700  0.81390  Biso   1.000  O
  O2       1.0000 0.90130  0.47580  0.74020  Biso   1.000  O
  O3       1.0000 0.00760  0.29650  0.55950  Biso   1.000  O
  O4       1.0000 0.79910  0.14590  0.52600  Biso   1.000  O
  O5       1.0000 0.80700  0.35900  0.46450  Biso   1.000  O
  Co3      1.0000 0.65980  0.32655  0.37976  Biso   1.000  Co
  Co4      1.0000 0.66120  0.04924  0.45588  Biso   1.000  Co
  Cl2      1.0000 0.78920  0.13540  0.34610  Biso   1.000  Cl
  P2       1.0000 0.65830  0.71810  0.03307  Biso   1.000  P
  N2       1.0000 0.77720  0.70250  0.17820  Biso   1.000  N
  H11      1.0000 0.67630  0.71360  0.18930  Biso   1.000  H
  C7       1.0000 0.84600  0.62210  0.23820  Biso   1.000  C
  H12      1.0000 0.93860  0.58190  0.21930  Biso   1.000  H
  C8       1.0000 0.88800  0.70920  0.29930  Biso   1.000  C
  H13      1.0000 0.81610  0.70180  0.33990  Biso   1.000  H
  H14      1.0000 0.99020  0.69000  0.31770  Biso   1.000  H
  C9       1.0000 0.88500  0.83720  0.26870  Biso   1.000  C
  H15      1.0000 0.98200  0.87840  0.27790  Biso   1.000  H
  H16      1.0000 0.80390  0.88480  0.29210  Biso   1.000  H
  C10      1.0000 0.85630  0.82730  0.18630  Biso   1.000  C
  H17      1.0000 0.95190  0.82930  0.15890  Biso   1.000  H
  H18      1.0000 0.79070  0.89390  0.16920  Biso   1.000  H
  C11      1.0000 0.73460  0.52460  0.26490  Biso   1.000  C
  C12      1.0000 0.78500  0.65040  0.10240  Biso   1.000  C
  H19      1.0000 0.76260  0.56260  0.10550  Biso   1.000  H
  H20      1.0000 0.88980  0.65850  0.08490  Biso   1.000  H
  O6       1.0000 0.78680  0.45300  0.31390  Biso   1.000  O
  O7       1.0000 0.59870  0.52420  0.24020  Biso   1.000  O
  O8       1.0000 0.49240  0.70350  0.05950  Biso   1.000  O
  O9       1.0000 0.70090  0.85410  0.02600  Biso   1.000  O
  O10      1.0000 0.69300  0.64100  0.96450  Biso   1.000  O
  Co5      1.0000 0.15980  0.17345  0.62024  Biso   1.000  Co
  Co6      1.0000 0.16120  0.45076  0.54412  Biso   1.000  Co
  Cl3      1.0000 0.28920  0.36460  0.65390  Biso   1.000  Cl
  P3       1.0000 0.15830  0.78190  0.96693  Biso   1.000  P
  N3       1.0000 0.27720  0.79750  0.82180  Biso   1.000  N
  H21      1.0000 0.17630  0.78640  0.81070  Biso   1.000  H
  C13      1.0000 0.34600  0.87790  0.76180  Biso   1.000  C
  H22      1.0000 0.43860  0.91810  0.78070  Biso   1.000  H
  C14      1.0000 0.38800  0.79080  0.70070  Biso   1.000  C
  H23      1.0000 0.31610  0.79820  0.66010  Biso   1.000  H
  H24      1.0000 0.49020  0.81000  0.68230  Biso   1.000  H
  C15      1.0000 0.38500  0.66280  0.73130  Biso   1.000  C
  H25      1.0000 0.48200  0.62160  0.72210  Biso   1.000  H
  H26      1.0000 0.30390  0.61520  0.70790  Biso   1.000  H
  C16      1.0000 0.35630  0.67270  0.81370  Biso   1.000  C
  H27      1.0000 0.45190  0.67070  0.84110  Biso   1.000  H
  H28      1.0000 0.29070  0.60610  0.83080  Biso   1.000  H
  C17      1.0000 0.23460  0.97540  0.73510  Biso   1.000  C
  C18      1.0000 0.28500  0.84960  0.89760  Biso   1.000  C
  H29      1.0000 0.26260  0.93740  0.89450  Biso   1.000  H
  H30      1.0000 0.38980  0.84150  0.91510  Biso   1.000  H
  O11      1.0000 0.28680  0.04700  0.68610  Biso   1.000  O
  O12      1.0000 0.09870  0.97580  0.75980  Biso   1.000  O
  O13      1.0000 0.99240  0.79650  0.94050  Biso   1.000  O
  O14      1.0000 0.20090  0.64590  0.97400  Biso   1.000  O
  O15      1.0000 0.19300  0.85900  0.03550  Biso   1.000  O
  Co7      1.0000 0.34020  0.82655  0.12024  Biso   1.000  Co
  Co8      1.0000 0.33880  0.54924  0.04412  Biso   1.000  Co
  Cl4      1.0000 0.21080  0.63540  0.15390  Biso   1.000  Cl
  P4       1.0000 0.34170  0.21810  0.46693  Biso   1.000  P
  N4       1.0000 0.22280  0.20250  0.32180  Biso   1.000  N
  H31      1.0000 0.32370  0.21360  0.31070  Biso   1.000  H
  C19      1.0000 0.15400  0.12210  0.26180  Biso   1.000  C
  H32      1.0000 0.06140  0.08190  0.28070  Biso   1.000  H
  C20      1.0000 0.11200  0.20920  0.20070  Biso   1.000  C
  H33      1.0000 0.18390  0.20180  0.16010  Biso   1.000  H
  H34      1.0000 0.00980  0.19000  0.18230  Biso   1.000  H
  C21      1.0000 0.11500  0.33720  0.23130  Biso   1.000  C
  H35      1.0000 0.01800  0.37840  0.22210  Biso   1.000  H
  H36      1.0000 0.19610  0.38480  0.20790  Biso   1.000  H
  C22      1.0000 0.14370  0.32730  0.31370  Biso   1.000  C
  H37      1.0000 0.04810  0.32930  0.34110  Biso   1.000  H
  H38      1.0000 0.20930  0.39390  0.33080  Biso   1.000  H
  C23      1.0000 0.26540  0.02460  0.23510  Biso   1.000  C
  C24      1.0000 0.21500  0.15040  0.39760  Biso   1.000  C
  H39      1.0000 0.23740  0.06260  0.39450  Biso   1.000  H
  H40      1.0000 0.11020  0.15850  0.41510  Biso   1.000  H
  O16      1.0000 0.21320  0.95300  0.18610  Biso   1.000  O
  O17      1.0000 0.40130  0.02420  0.25980  Biso   1.000  O
  O18      1.0000 0.50760  0.20350  0.44050  Biso   1.000  O
  O19      1.0000 0.29910  0.35410  0.47400  Biso   1.000  O
  O20      1.0000 0.30700  0.14100  0.53550  Biso   1.000  O
