data_WEYMIY_clean
_audit_creation_date              2014-07-02
_audit_creation_method            'Materials Studio'
_symmetry_space_group_name_H-M    'P1'
_symmetry_Int_Tables_number       1
_symmetry_cell_setting            triclinic
loop_
_symmetry_equiv_pos_as_xyz
  x,y,z
_cell_length_a                    10.6261
_cell_length_b                    10.6261
_cell_length_c                    10.6261
_cell_angle_alpha                 103.6450
_cell_angle_beta                  112.4610
_cell_angle_gamma                 112.4610
loop_
_atom_site_label
_atom_site_type_symbol
_atom_site_fract_x
_atom_site_fract_y
_atom_site_fract_z
_atom_site_U_iso_or_equiv
_atom_site_adp_type
_atom_site_occupancy
Co1    Co    0.49422   0.69464   0.79958   0.01267  Uiso   1.00
Co2    Co    0.50578   0.30536   0.20042   0.01267  Uiso   1.00
Co3    Co    0.10494   0.79958   0.30536   0.01267  Uiso   1.00
Co4    Co    0.89506   0.20042   0.69464   0.01267  Uiso   1.00
Mo1    Mo    0.00000   0.74996   0.74996   0.01267  Uiso   1.00
Mo2    Mo    0.00000   0.25004   0.25004   0.01267  Uiso   1.00
H1     H     0.34010   0.75310   0.58700   0.01267  Uiso   1.00
H2     H     0.65990   0.24690   0.41300   0.01267  Uiso   1.00
H3     H     0.83390   0.58700   0.24690   0.01267  Uiso   1.00
H4     H     0.16610   0.41300   0.75310   0.01267  Uiso   1.00
C1     C     0.19654   0.71049   0.80479   0.01267  Uiso   1.00
C2     C     0.78741   0.02739   0.07936   0.01267  Uiso   1.00
C3     C     0.80346   0.60825   0.51395   0.01267  Uiso   1.00
C4     C     0.21259   0.29195   0.23998   0.01267  Uiso   1.00
C5     C     0.09430   0.80479   0.60825   0.01267  Uiso   1.00
C6     C     0.05197   0.07936   0.29195   0.01267  Uiso   1.00
C7     C     0.90570   0.51395   0.71049   0.01267  Uiso   1.00
C8     C     0.94803   0.23998   0.02739   0.01267  Uiso   1.00
C9     C     0.80346   0.28951   0.19521   0.01267  Uiso   1.00
C10    C     0.21259   0.97261   0.92064   0.01267  Uiso   1.00
C11    C     0.19654   0.39175   0.48605   0.01267  Uiso   1.00
C12    C     0.78741   0.70805   0.76002   0.01267  Uiso   1.00
C13    C     0.90570   0.19521   0.39175   0.01267  Uiso   1.00
C14    C     0.94803   0.92064   0.70805   0.01267  Uiso   1.00
C15    C     0.09430   0.48605   0.28951   0.01267  Uiso   1.00
C16    C     0.05197   0.76002   0.97261   0.01267  Uiso   1.00
N1     N     0.30638   0.69863   0.83161   0.01267  Uiso   1.00
N2     N     0.67170   0.91420   0.98504   0.01267  Uiso   1.00
N3     N     0.69362   0.52523   0.39225   0.01267  Uiso   1.00
N4     N     0.32830   0.31334   0.24250   0.01267  Uiso   1.00
N5     N     0.13298   0.83161   0.52523   0.01267  Uiso   1.00
N6     N     0.07084   0.98504   0.31334   0.01267  Uiso   1.00
N7     N     0.86702   0.39225   0.69863   0.01267  Uiso   1.00
N8     N     0.92916   0.24250   0.91420   0.01267  Uiso   1.00
N9     N     0.69362   0.30137   0.16839   0.01267  Uiso   1.00
N10    N     0.32830   0.08580   0.01496   0.01267  Uiso   1.00
N11    N     0.30638   0.47477   0.60775   0.01267  Uiso   1.00
N12    N     0.67170   0.68666   0.75750   0.01267  Uiso   1.00
N13    N     0.86702   0.16839   0.47477   0.01267  Uiso   1.00
N14    N     0.92916   0.01496   0.68666   0.01267  Uiso   1.00
N15    N     0.13298   0.60775   0.30137   0.01267  Uiso   1.00
N16    N     0.07084   0.75750   0.08580   0.01267  Uiso   1.00
O1     O     0.43941   0.79121   0.64820   0.01267  Uiso   1.00
O2     O     0.56059   0.20879   0.35180   0.01267  Uiso   1.00
O3     O     0.85699   0.64820   0.20879   0.01267  Uiso   1.00
O4     O     0.14301   0.35180   0.79121   0.01267  Uiso   1.00
