data_image0
_cell_length_a       15.0401
_cell_length_b       12.5366
_cell_length_c       16.532
_cell_angle_alpha    90
_cell_angle_beta     90
_cell_angle_gamma    90

_symmetry_space_group_name_H-M    "P 1"
_symmetry_int_tables_number       1

loop_
  _symmetry_equiv_pos_as_xyz
  'x, y, z'

loop_
  _atom_site_label
  _atom_site_occupancy
  _atom_site_fract_x
  _atom_site_fract_y
  _atom_site_fract_z
  _atom_site_thermal_displace_type
  _atom_site_B_iso_or_equiv
  _atom_site_type_symbol
  Mn1      1.0000 0.60380  0.48718  0.58350  Biso   1.000  Mn
  O1       1.0000 0.59280  0.35540  0.67340  Biso   1.000  O
  O2       1.0000 0.66800  0.49330  0.70970  Biso   1.000  O
  O3       1.0000 0.52870  0.38080  0.50790  Biso   1.000  O
  O4       1.0000 0.49990  0.58920  0.62165  Biso   1.000  O
  O5       1.0000 0.69980  0.63540  0.55690  Biso   1.000  O
  O6       1.0000 0.70690  0.48880  0.49060  Biso   1.000  O
  C1       1.0000 0.63330  0.40530  0.72460  Biso   1.000  C
  C2       1.0000 0.63950  0.36340  0.80980  Biso   1.000  C
  C3       1.0000 0.59150  0.27290  0.83260  Biso   1.000  C
  C4       1.0000 0.69340  0.41250  0.86710  Biso   1.000  C
  C5       1.0000 0.59630  0.23230  0.91060  Biso   1.000  C
  C6       1.0000 0.70180  0.36980  0.94440  Biso   1.000  C
  C7       1.0000 0.53880  0.13980  0.93380  Biso   1.000  C
  C8       1.0000 0.65230  0.28070  0.96550  Biso   1.000  C
  C9       1.0000 0.76880  0.42040  0.00190  Biso   1.000  C
  Mn2      1.0000 0.89620  0.51282  0.08350  Biso   1.000  Mn
  O7       1.0000 0.90720  0.64460  0.17340  Biso   1.000  O
  O8       1.0000 0.83200  0.50670  0.20970  Biso   1.000  O
  O9       1.0000 0.97130  0.61920  0.00790  Biso   1.000  O
  O10      1.0000 0.00010  0.41080  0.12165  Biso   1.000  O
  O11      1.0000 0.80020  0.36460  0.05690  Biso   1.000  O
  O12      1.0000 0.79310  0.51120  0.99060  Biso   1.000  O
  C10      1.0000 0.86670  0.59470  0.22460  Biso   1.000  C
  C11      1.0000 0.86050  0.63660  0.30980  Biso   1.000  C
  C12      1.0000 0.90850  0.72710  0.33260  Biso   1.000  C
  C13      1.0000 0.80660  0.58750  0.36710  Biso   1.000  C
  C14      1.0000 0.90370  0.76770  0.41060  Biso   1.000  C
  C15      1.0000 0.79820  0.63020  0.44440  Biso   1.000  C
  C16      1.0000 0.96120  0.86020  0.43380  Biso   1.000  C
  C17      1.0000 0.84770  0.71930  0.46550  Biso   1.000  C
  C18      1.0000 0.73120  0.57960  0.50190  Biso   1.000  C
  Mn3      1.0000 0.39620  0.98718  0.91650  Biso   1.000  Mn
  O13      1.0000 0.40720  0.85540  0.82660  Biso   1.000  O
  O14      1.0000 0.33200  0.99330  0.79030  Biso   1.000  O
  O15      1.0000 0.47130  0.88080  0.99210  Biso   1.000  O
  O16      1.0000 0.50010  0.08920  0.87835  Biso   1.000  O
  O17      1.0000 0.30020  0.13540  0.94310  Biso   1.000  O
  O18      1.0000 0.29310  0.98880  0.00940  Biso   1.000  O
  C19      1.0000 0.36670  0.90530  0.77540  Biso   1.000  C
  C20      1.0000 0.36050  0.86340  0.69020  Biso   1.000  C
  C21      1.0000 0.40850  0.77290  0.66740  Biso   1.000  C
  C22      1.0000 0.30660  0.91250  0.63290  Biso   1.000  C
  C23      1.0000 0.40370  0.73230  0.58940  Biso   1.000  C
  C24      1.0000 0.29820  0.86980  0.55560  Biso   1.000  C
  C25      1.0000 0.46120  0.63980  0.56620  Biso   1.000  C
  C26      1.0000 0.34770  0.78070  0.53450  Biso   1.000  C
  C27      1.0000 0.23120  0.92040  0.49810  Biso   1.000  C
  Mn4      1.0000 0.10380  0.01282  0.41650  Biso   1.000  Mn
  O19      1.0000 0.09280  0.14460  0.32660  Biso   1.000  O
  O20      1.0000 0.16800  0.00670  0.29030  Biso   1.000  O
  O21      1.0000 0.02870  0.11920  0.49210  Biso   1.000  O
  O22      1.0000 0.99990  0.91080  0.37835  Biso   1.000  O
  O23      1.0000 0.19980  0.86460  0.44310  Biso   1.000  O
  O24      1.0000 0.20690  0.01120  0.50940  Biso   1.000  O
  C28      1.0000 0.13330  0.09470  0.27540  Biso   1.000  C
  C29      1.0000 0.13950  0.13660  0.19020  Biso   1.000  C
  C30      1.0000 0.09150  0.22710  0.16740  Biso   1.000  C
  C31      1.0000 0.19340  0.08750  0.13290  Biso   1.000  C
  C32      1.0000 0.09630  0.26770  0.08940  Biso   1.000  C
  C33      1.0000 0.20180  0.13020  0.05560  Biso   1.000  C
  C34      1.0000 0.03880  0.36020  0.06620  Biso   1.000  C
  C35      1.0000 0.15230  0.21930  0.03450  Biso   1.000  C
  C36      1.0000 0.26880  0.07960  0.99810  Biso   1.000  C
  Mn5      1.0000 0.39620  0.51282  0.41650  Biso   1.000  Mn
  O25      1.0000 0.40720  0.64460  0.32660  Biso   1.000  O
  O26      1.0000 0.33200  0.50670  0.29030  Biso   1.000  O
  O27      1.0000 0.47130  0.61920  0.49210  Biso   1.000  O
  O28      1.0000 0.50010  0.41080  0.37835  Biso   1.000  O
  O29      1.0000 0.30020  0.36460  0.44310  Biso   1.000  O
  O30      1.0000 0.29310  0.51120  0.50940  Biso   1.000  O
  C37      1.0000 0.36670  0.59470  0.27540  Biso   1.000  C
  C38      1.0000 0.36050  0.63660  0.19020  Biso   1.000  C
  C39      1.0000 0.40850  0.72710  0.16740  Biso   1.000  C
  C40      1.0000 0.30660  0.58750  0.13290  Biso   1.000  C
  C41      1.0000 0.40370  0.76770  0.08940  Biso   1.000  C
  C42      1.0000 0.29820  0.63020  0.05560  Biso   1.000  C
  C43      1.0000 0.46120  0.86020  0.06620  Biso   1.000  C
  C44      1.0000 0.34770  0.71930  0.03450  Biso   1.000  C
  C45      1.0000 0.23120  0.57960  0.99810  Biso   1.000  C
  Mn6      1.0000 0.10380  0.48718  0.91650  Biso   1.000  Mn
  O31      1.0000 0.09280  0.35540  0.82660  Biso   1.000  O
  O32      1.0000 0.16800  0.49330  0.79030  Biso   1.000  O
  O33      1.0000 0.02870  0.38080  0.99210  Biso   1.000  O
  O34      1.0000 0.99990  0.58920  0.87835  Biso   1.000  O
  O35      1.0000 0.19980  0.63540  0.94310  Biso   1.000  O
  O36      1.0000 0.20690  0.48880  0.00940  Biso   1.000  O
  C46      1.0000 0.13330  0.40530  0.77540  Biso   1.000  C
  C47      1.0000 0.13950  0.36340  0.69020  Biso   1.000  C
  C48      1.0000 0.09150  0.27290  0.66740  Biso   1.000  C
  C49      1.0000 0.19340  0.41250  0.63290  Biso   1.000  C
  C50      1.0000 0.09630  0.23230  0.58940  Biso   1.000  C
  C51      1.0000 0.20180  0.36980  0.55560  Biso   1.000  C
  C52      1.0000 0.03880  0.13980  0.56620  Biso   1.000  C
  C53      1.0000 0.15230  0.28070  0.53450  Biso   1.000  C
  C54      1.0000 0.26880  0.42040  0.49810  Biso   1.000  C
  Mn7      1.0000 0.60380  0.01282  0.08350  Biso   1.000  Mn
  O37      1.0000 0.59280  0.14460  0.17340  Biso   1.000  O
  O38      1.0000 0.66800  0.00670  0.20970  Biso   1.000  O
  O39      1.0000 0.52870  0.11920  0.00790  Biso   1.000  O
  O40      1.0000 0.49990  0.91080  0.12165  Biso   1.000  O
  O41      1.0000 0.69980  0.86460  0.05690  Biso   1.000  O
  O42      1.0000 0.70690  0.01120  0.99060  Biso   1.000  O
  C55      1.0000 0.63330  0.09470  0.22460  Biso   1.000  C
  C56      1.0000 0.63950  0.13660  0.30980  Biso   1.000  C
  C57      1.0000 0.59150  0.22710  0.33260  Biso   1.000  C
  C58      1.0000 0.69340  0.08750  0.36710  Biso   1.000  C
  C59      1.0000 0.59630  0.26770  0.41060  Biso   1.000  C
  C60      1.0000 0.70180  0.13020  0.44440  Biso   1.000  C
  C61      1.0000 0.53880  0.36020  0.43380  Biso   1.000  C
  C62      1.0000 0.65230  0.21930  0.46550  Biso   1.000  C
  C63      1.0000 0.76880  0.07960  0.50190  Biso   1.000  C
  Mn8      1.0000 0.89620  0.98718  0.58350  Biso   1.000  Mn
  O43      1.0000 0.90720  0.85540  0.67340  Biso   1.000  O
  O44      1.0000 0.83200  0.99330  0.70970  Biso   1.000  O
  O45      1.0000 0.97130  0.88080  0.50790  Biso   1.000  O
  O46      1.0000 0.00010  0.08920  0.62165  Biso   1.000  O
  O47      1.0000 0.80020  0.13540  0.55690  Biso   1.000  O
  O48      1.0000 0.79310  0.98880  0.49060  Biso   1.000  O
  C64      1.0000 0.86670  0.90530  0.72460  Biso   1.000  C
  C65      1.0000 0.86050  0.86340  0.80980  Biso   1.000  C
  C66      1.0000 0.90850  0.77290  0.83260  Biso   1.000  C
  C67      1.0000 0.80660  0.91250  0.86710  Biso   1.000  C
  C68      1.0000 0.90370  0.73230  0.91060  Biso   1.000  C
  C69      1.0000 0.79820  0.86980  0.94440  Biso   1.000  C
  C70      1.0000 0.96120  0.63980  0.93380  Biso   1.000  C
  C71      1.0000 0.84770  0.78070  0.96550  Biso   1.000  C
  C72      1.0000 0.73120  0.92040  0.00190  Biso   1.000  C
