data_image0
_cell_length_a       14.9773
_cell_length_b       12.5017
_cell_length_c       16.5629
_cell_angle_alpha    90
_cell_angle_beta     90
_cell_angle_gamma    90

_symmetry_space_group_name_H-M    "P 1"
_symmetry_int_tables_number       1

loop_
  _symmetry_equiv_pos_as_xyz
  'x, y, z'

loop_
  _atom_site_label
  _atom_site_occupancy
  _atom_site_fract_x
  _atom_site_fract_y
  _atom_site_fract_z
  _atom_site_thermal_displace_type
  _atom_site_B_iso_or_equiv
  _atom_site_type_symbol
  C1       1.0000 0.76830  0.42140  0.00080  Biso   1.000  C
  O1       1.0000 0.52810  0.11920  0.00679  Biso   1.000  O
  C2       1.0000 0.63410  0.40400  0.72280  Biso   1.000  C
  O2       1.0000 0.50080  0.08670  0.87730  Biso   1.000  O
  C3       1.0000 0.59180  0.27210  0.83060  Biso   1.000  C
  H1       1.0000 0.55600  0.23780  0.79270  Biso   1.000  H
  C4       1.0000 0.53850  0.13890  0.93320  Biso   1.000  C
  Mn1      1.0000 0.60384  0.48631  0.58239  Biso   1.000  Mn
  O3       1.0000 0.59300  0.35360  0.67170  Biso   1.000  O
  C5       1.0000 0.70260  0.36970  0.94280  Biso   1.000  C
  C6       1.0000 0.65250  0.28060  0.96430  Biso   1.000  C
  H2       1.0000 0.65690  0.25320  0.01640  Biso   1.000  H
  C7       1.0000 0.64000  0.36150  0.80840  Biso   1.000  C
  C8       1.0000 0.69390  0.41220  0.86500  Biso   1.000  C
  H3       1.0000 0.72420  0.47450  0.85120  Biso   1.000  H
  C9       1.0000 0.59640  0.23250  0.90940  Biso   1.000  C
  O4       1.0000 0.80110  0.36550  0.05470  Biso   1.000  O
  O5       1.0000 0.66950  0.49280  0.70800  Biso   1.000  O
  O6       1.0000 0.79250  0.51360  0.98960  Biso   1.000  O
  C10      1.0000 0.73170  0.57860  0.50080  Biso   1.000  C
  O7       1.0000 0.97190  0.88080  0.50679  Biso   1.000  O
  C11      1.0000 0.86590  0.59600  0.22280  Biso   1.000  C
  O8       1.0000 0.99920  0.91330  0.37730  Biso   1.000  O
  C12      1.0000 0.90820  0.72790  0.33060  Biso   1.000  C
  H4       1.0000 0.94400  0.76220  0.29270  Biso   1.000  H
  C13      1.0000 0.96150  0.86110  0.43320  Biso   1.000  C
  Mn2      1.0000 0.89616  0.51369  0.08239  Biso   1.000  Mn
  O9       1.0000 0.90700  0.64640  0.17170  Biso   1.000  O
  C14      1.0000 0.79740  0.63030  0.44280  Biso   1.000  C
  C15      1.0000 0.84750  0.71940  0.46430  Biso   1.000  C
  H5       1.0000 0.84310  0.74680  0.51640  Biso   1.000  H
  C16      1.0000 0.86000  0.63850  0.30840  Biso   1.000  C
  C17      1.0000 0.80610  0.58780  0.36500  Biso   1.000  C
  H6       1.0000 0.77580  0.52550  0.35120  Biso   1.000  H
  C18      1.0000 0.90360  0.76750  0.40940  Biso   1.000  C
  O10      1.0000 0.69890  0.63450  0.55470  Biso   1.000  O
  O11      1.0000 0.83050  0.50720  0.20800  Biso   1.000  O
  O12      1.0000 0.70750  0.48640  0.48960  Biso   1.000  O
  C19      1.0000 0.23170  0.92140  0.49920  Biso   1.000  C
  O13      1.0000 0.47190  0.61920  0.49321  Biso   1.000  O
  C20      1.0000 0.36590  0.90400  0.77720  Biso   1.000  C
  O14      1.0000 0.49920  0.58670  0.62270  Biso   1.000  O
  C21      1.0000 0.40820  0.77210  0.66940  Biso   1.000  C
  H7       1.0000 0.44400  0.73780  0.70730  Biso   1.000  H
  C22      1.0000 0.46150  0.63890  0.56680  Biso   1.000  C
  Mn3      1.0000 0.39616  0.98631  0.91761  Biso   1.000  Mn
  O15      1.0000 0.40700  0.85360  0.82830  Biso   1.000  O
  C23      1.0000 0.29740  0.86970  0.55720  Biso   1.000  C
  C24      1.0000 0.34750  0.78060  0.53570  Biso   1.000  C
  H8       1.0000 0.34310  0.75320  0.48360  Biso   1.000  H
  C25      1.0000 0.36000  0.86150  0.69160  Biso   1.000  C
  C26      1.0000 0.30610  0.91220  0.63500  Biso   1.000  C
  H9       1.0000 0.27580  0.97450  0.64880  Biso   1.000  H
  C27      1.0000 0.40360  0.73250  0.59060  Biso   1.000  C
  O16      1.0000 0.19890  0.86550  0.44530  Biso   1.000  O
  O17      1.0000 0.33050  0.99280  0.79200  Biso   1.000  O
  O18      1.0000 0.20750  0.01360  0.51040  Biso   1.000  O
  C28      1.0000 0.26830  0.07860  0.99920  Biso   1.000  C
  O19      1.0000 0.02810  0.38080  0.99321  Biso   1.000  O
  C29      1.0000 0.13410  0.09600  0.27720  Biso   1.000  C
  O20      1.0000 0.00080  0.41330  0.12270  Biso   1.000  O
  C30      1.0000 0.09180  0.22790  0.16940  Biso   1.000  C
  H10      1.0000 0.05600  0.26220  0.20730  Biso   1.000  H
  C31      1.0000 0.03850  0.36110  0.06680  Biso   1.000  C
  Mn4      1.0000 0.10384  0.01369  0.41761  Biso   1.000  Mn
  O21      1.0000 0.09300  0.14640  0.32830  Biso   1.000  O
  C32      1.0000 0.20260  0.13030  0.05720  Biso   1.000  C
  C33      1.0000 0.15250  0.21940  0.03570  Biso   1.000  C
  H11      1.0000 0.15690  0.24680  0.98360  Biso   1.000  H
  C34      1.0000 0.14000  0.13850  0.19160  Biso   1.000  C
  C35      1.0000 0.19390  0.08780  0.13500  Biso   1.000  C
  H12      1.0000 0.22420  0.02550  0.14880  Biso   1.000  H
  C36      1.0000 0.09640  0.26750  0.09060  Biso   1.000  C
  O22      1.0000 0.30110  0.13450  0.94530  Biso   1.000  O
  O23      1.0000 0.16950  0.00720  0.29200  Biso   1.000  O
  O24      1.0000 0.29250  0.98640  0.01040  Biso   1.000  O
  C37      1.0000 0.23170  0.57860  0.99920  Biso   1.000  C
  O25      1.0000 0.47190  0.88080  0.99321  Biso   1.000  O
  C38      1.0000 0.36590  0.59600  0.27720  Biso   1.000  C
  O26      1.0000 0.49920  0.91330  0.12270  Biso   1.000  O
  C39      1.0000 0.40820  0.72790  0.16940  Biso   1.000  C
  H13      1.0000 0.44400  0.76220  0.20730  Biso   1.000  H
  C40      1.0000 0.46150  0.86110  0.06680  Biso   1.000  C
  Mn5      1.0000 0.39616  0.51369  0.41761  Biso   1.000  Mn
  O27      1.0000 0.40700  0.64640  0.32830  Biso   1.000  O
  C41      1.0000 0.29740  0.63030  0.05720  Biso   1.000  C
  C42      1.0000 0.34750  0.71940  0.03570  Biso   1.000  C
  H14      1.0000 0.34310  0.74680  0.98360  Biso   1.000  H
  C43      1.0000 0.36000  0.63850  0.19160  Biso   1.000  C
  C44      1.0000 0.30610  0.58780  0.13500  Biso   1.000  C
  H15      1.0000 0.27580  0.52550  0.14880  Biso   1.000  H
  C45      1.0000 0.40360  0.76750  0.09060  Biso   1.000  C
  O28      1.0000 0.19890  0.63450  0.94530  Biso   1.000  O
  O29      1.0000 0.33050  0.50720  0.29200  Biso   1.000  O
  O30      1.0000 0.20750  0.48640  0.01040  Biso   1.000  O
  C46      1.0000 0.26830  0.42140  0.49920  Biso   1.000  C
  O31      1.0000 0.02810  0.11920  0.49321  Biso   1.000  O
  C47      1.0000 0.13410  0.40400  0.77720  Biso   1.000  C
  O32      1.0000 0.00080  0.08670  0.62270  Biso   1.000  O
  C48      1.0000 0.09180  0.27210  0.66940  Biso   1.000  C
  H16      1.0000 0.05600  0.23780  0.70730  Biso   1.000  H
  C49      1.0000 0.03850  0.13890  0.56680  Biso   1.000  C
  Mn6      1.0000 0.10384  0.48631  0.91761  Biso   1.000  Mn
  O33      1.0000 0.09300  0.35360  0.82830  Biso   1.000  O
  C50      1.0000 0.20260  0.36970  0.55720  Biso   1.000  C
  C51      1.0000 0.15250  0.28060  0.53570  Biso   1.000  C
  H17      1.0000 0.15690  0.25320  0.48360  Biso   1.000  H
  C52      1.0000 0.14000  0.36150  0.69160  Biso   1.000  C
  C53      1.0000 0.19390  0.41220  0.63500  Biso   1.000  C
  H18      1.0000 0.22420  0.47450  0.64880  Biso   1.000  H
  C54      1.0000 0.09640  0.23250  0.59060  Biso   1.000  C
  O34      1.0000 0.30110  0.36550  0.44530  Biso   1.000  O
  O35      1.0000 0.16950  0.49280  0.79200  Biso   1.000  O
  O36      1.0000 0.29250  0.51360  0.51040  Biso   1.000  O
  C55      1.0000 0.76830  0.07860  0.50080  Biso   1.000  C
  O37      1.0000 0.52810  0.38080  0.50679  Biso   1.000  O
  C56      1.0000 0.63410  0.09600  0.22280  Biso   1.000  C
  O38      1.0000 0.50080  0.41330  0.37730  Biso   1.000  O
  C57      1.0000 0.59180  0.22790  0.33060  Biso   1.000  C
  H19      1.0000 0.55600  0.26220  0.29270  Biso   1.000  H
  C58      1.0000 0.53850  0.36110  0.43320  Biso   1.000  C
  Mn7      1.0000 0.60384  0.01369  0.08239  Biso   1.000  Mn
  O39      1.0000 0.59300  0.14640  0.17170  Biso   1.000  O
  C59      1.0000 0.70260  0.13030  0.44280  Biso   1.000  C
  C60      1.0000 0.65250  0.21940  0.46430  Biso   1.000  C
  H20      1.0000 0.65690  0.24680  0.51640  Biso   1.000  H
  C61      1.0000 0.64000  0.13850  0.30840  Biso   1.000  C
  C62      1.0000 0.69390  0.08780  0.36500  Biso   1.000  C
  H21      1.0000 0.72420  0.02550  0.35120  Biso   1.000  H
  C63      1.0000 0.59640  0.26750  0.40940  Biso   1.000  C
  O40      1.0000 0.80110  0.13450  0.55470  Biso   1.000  O
  O41      1.0000 0.66950  0.00720  0.20800  Biso   1.000  O
  O42      1.0000 0.79250  0.98640  0.48960  Biso   1.000  O
  C64      1.0000 0.73170  0.92140  0.00080  Biso   1.000  C
  O43      1.0000 0.97190  0.61920  0.00679  Biso   1.000  O
  C65      1.0000 0.86590  0.90400  0.72280  Biso   1.000  C
  O44      1.0000 0.99920  0.58670  0.87730  Biso   1.000  O
  C66      1.0000 0.90820  0.77210  0.83060  Biso   1.000  C
  H22      1.0000 0.94400  0.73780  0.79270  Biso   1.000  H
  C67      1.0000 0.96150  0.63890  0.93320  Biso   1.000  C
  Mn8      1.0000 0.89616  0.98631  0.58239  Biso   1.000  Mn
  O45      1.0000 0.90700  0.85360  0.67170  Biso   1.000  O
  C68      1.0000 0.79740  0.86970  0.94280  Biso   1.000  C
  C69      1.0000 0.84750  0.78060  0.96430  Biso   1.000  C
  H23      1.0000 0.84310  0.75320  0.01640  Biso   1.000  H
  C70      1.0000 0.86000  0.86150  0.80840  Biso   1.000  C
  C71      1.0000 0.80610  0.91220  0.86500  Biso   1.000  C
  H24      1.0000 0.77580  0.97450  0.85120  Biso   1.000  H
  C72      1.0000 0.90360  0.73250  0.90940  Biso   1.000  C
  O46      1.0000 0.69890  0.86550  0.05470  Biso   1.000  O
  O47      1.0000 0.83050  0.99280  0.70800  Biso   1.000  O
  O48      1.0000 0.70750  0.01360  0.98960  Biso   1.000  O
