data_image0
_cell_length_a       14.6666
_cell_length_b       12.395
_cell_length_c       16.6351
_cell_angle_alpha    90
_cell_angle_beta     90
_cell_angle_gamma    90

_symmetry_space_group_name_H-M    "P 1"
_symmetry_int_tables_number       1

loop_
  _symmetry_equiv_pos_as_xyz
  'x, y, z'

loop_
  _atom_site_label
  _atom_site_occupancy
  _atom_site_fract_x
  _atom_site_fract_y
  _atom_site_fract_z
  _atom_site_thermal_displace_type
  _atom_site_B_iso_or_equiv
  _atom_site_type_symbol
  Mn1      1.0000 0.60521  0.48211  0.57858  Biso   1.000  Mn
  O1       1.0000 0.59455  0.34596  0.66585  Biso   1.000  O
  O2       1.0000 0.67486  0.48798  0.70128  Biso   1.000  O
  O3       1.0000 0.70905  0.47937  0.48412  Biso   1.000  O
  O4       1.0000 0.69872  0.63114  0.55141  Biso   1.000  O
  O5       1.0000 0.49860  0.57987  0.62631  Biso   1.000  O
  O6       1.0000 0.52326  0.38012  0.50253  Biso   1.000  O
  C1       1.0000 0.63727  0.39929  0.71807  Biso   1.000  C
  C2       1.0000 0.64237  0.35806  0.80271  Biso   1.000  C
  C3       1.0000 0.69562  0.41130  0.85950  Biso   1.000  C
  C4       1.0000 0.59313  0.26701  0.82532  Biso   1.000  C
  C5       1.0000 0.70287  0.37141  0.93758  Biso   1.000  C
  C6       1.0000 0.59608  0.22966  0.90429  Biso   1.000  C
  C7       1.0000 0.65238  0.28092  0.95974  Biso   1.000  C
  C8       1.0000 0.76842  0.42328  0.99526  Biso   1.000  C
  C9       1.0000 0.53716  0.13615  0.92866  Biso   1.000  C
  Mn2      1.0000 0.89479  0.51789  0.07858  Biso   1.000  Mn
  O7       1.0000 0.90545  0.65404  0.16585  Biso   1.000  O
  O8       1.0000 0.82514  0.51202  0.20128  Biso   1.000  O
  O9       1.0000 0.79095  0.52063  0.98412  Biso   1.000  O
  O10      1.0000 0.80128  0.36886  0.05141  Biso   1.000  O
  O11      1.0000 0.00140  0.42013  0.12631  Biso   1.000  O
  O12      1.0000 0.97674  0.61988  0.00253  Biso   1.000  O
  C10      1.0000 0.86273  0.60071  0.21807  Biso   1.000  C
  C11      1.0000 0.85763  0.64194  0.30271  Biso   1.000  C
  C12      1.0000 0.80438  0.58870  0.35950  Biso   1.000  C
  C13      1.0000 0.90687  0.73299  0.32532  Biso   1.000  C
  C14      1.0000 0.79713  0.62859  0.43758  Biso   1.000  C
  C15      1.0000 0.90392  0.77034  0.40429  Biso   1.000  C
  C16      1.0000 0.84762  0.71908  0.45974  Biso   1.000  C
  C17      1.0000 0.73158  0.57672  0.49526  Biso   1.000  C
  C18      1.0000 0.96284  0.86385  0.42866  Biso   1.000  C
  Mn3      1.0000 0.39479  0.98211  0.92142  Biso   1.000  Mn
  O13      1.0000 0.40545  0.84596  0.83415  Biso   1.000  O
  O14      1.0000 0.32514  0.98798  0.79872  Biso   1.000  O
  O15      1.0000 0.29095  0.97937  0.01588  Biso   1.000  O
  O16      1.0000 0.30128  0.13114  0.94859  Biso   1.000  O
  O17      1.0000 0.50140  0.07987  0.87369  Biso   1.000  O
  O18      1.0000 0.47674  0.88012  0.99747  Biso   1.000  O
  C19      1.0000 0.36273  0.89929  0.78193  Biso   1.000  C
  C20      1.0000 0.35763  0.85806  0.69729  Biso   1.000  C
  C21      1.0000 0.30438  0.91130  0.64050  Biso   1.000  C
  C22      1.0000 0.40687  0.76701  0.67468  Biso   1.000  C
  C23      1.0000 0.29713  0.87141  0.56242  Biso   1.000  C
  C24      1.0000 0.40392  0.72966  0.59571  Biso   1.000  C
  C25      1.0000 0.34762  0.78092  0.54026  Biso   1.000  C
  C26      1.0000 0.23158  0.92328  0.50474  Biso   1.000  C
  C27      1.0000 0.46284  0.63615  0.57134  Biso   1.000  C
  Mn4      1.0000 0.10521  0.01789  0.42142  Biso   1.000  Mn
  O19      1.0000 0.09455  0.15404  0.33415  Biso   1.000  O
  O20      1.0000 0.17486  0.01202  0.29872  Biso   1.000  O
  O21      1.0000 0.20905  0.02063  0.51588  Biso   1.000  O
  O22      1.0000 0.19872  0.86886  0.44859  Biso   1.000  O
  O23      1.0000 0.99860  0.92013  0.37369  Biso   1.000  O
  O24      1.0000 0.02326  0.11988  0.49747  Biso   1.000  O
  C28      1.0000 0.13727  0.10071  0.28193  Biso   1.000  C
  C29      1.0000 0.14237  0.14194  0.19729  Biso   1.000  C
  C30      1.0000 0.19562  0.08870  0.14050  Biso   1.000  C
  C31      1.0000 0.09313  0.23299  0.17468  Biso   1.000  C
  C32      1.0000 0.20287  0.12859  0.06242  Biso   1.000  C
  C33      1.0000 0.09608  0.27034  0.09571  Biso   1.000  C
  C34      1.0000 0.15238  0.21908  0.04026  Biso   1.000  C
  C35      1.0000 0.26842  0.07672  0.00474  Biso   1.000  C
  C36      1.0000 0.03716  0.36385  0.07134  Biso   1.000  C
  Mn5      1.0000 0.39479  0.51789  0.42142  Biso   1.000  Mn
  O25      1.0000 0.40545  0.65404  0.33415  Biso   1.000  O
  O26      1.0000 0.32514  0.51202  0.29872  Biso   1.000  O
  O27      1.0000 0.29095  0.52063  0.51588  Biso   1.000  O
  O28      1.0000 0.30128  0.36886  0.44859  Biso   1.000  O
  O29      1.0000 0.50140  0.42013  0.37369  Biso   1.000  O
  O30      1.0000 0.47674  0.61988  0.49747  Biso   1.000  O
  C37      1.0000 0.36273  0.60071  0.28193  Biso   1.000  C
  C38      1.0000 0.35763  0.64194  0.19729  Biso   1.000  C
  C39      1.0000 0.30438  0.58870  0.14050  Biso   1.000  C
  C40      1.0000 0.40687  0.73299  0.17468  Biso   1.000  C
  C41      1.0000 0.29713  0.62859  0.06242  Biso   1.000  C
  C42      1.0000 0.40392  0.77034  0.09571  Biso   1.000  C
  C43      1.0000 0.34762  0.71908  0.04026  Biso   1.000  C
  C44      1.0000 0.23158  0.57672  0.00474  Biso   1.000  C
  C45      1.0000 0.46284  0.86385  0.07134  Biso   1.000  C
  Mn6      1.0000 0.10521  0.48211  0.92142  Biso   1.000  Mn
  O31      1.0000 0.09455  0.34596  0.83415  Biso   1.000  O
  O32      1.0000 0.17486  0.48798  0.79872  Biso   1.000  O
  O33      1.0000 0.20905  0.47937  0.01588  Biso   1.000  O
  O34      1.0000 0.19872  0.63114  0.94859  Biso   1.000  O
  O35      1.0000 0.99860  0.57987  0.87369  Biso   1.000  O
  O36      1.0000 0.02326  0.38012  0.99747  Biso   1.000  O
  C46      1.0000 0.13727  0.39929  0.78193  Biso   1.000  C
  C47      1.0000 0.14237  0.35806  0.69729  Biso   1.000  C
  C48      1.0000 0.19562  0.41130  0.64050  Biso   1.000  C
  C49      1.0000 0.09313  0.26701  0.67468  Biso   1.000  C
  C50      1.0000 0.20287  0.37141  0.56242  Biso   1.000  C
  C51      1.0000 0.09608  0.22966  0.59571  Biso   1.000  C
  C52      1.0000 0.15238  0.28092  0.54026  Biso   1.000  C
  C53      1.0000 0.26842  0.42328  0.50474  Biso   1.000  C
  C54      1.0000 0.03716  0.13615  0.57134  Biso   1.000  C
  Mn7      1.0000 0.60521  0.01789  0.07858  Biso   1.000  Mn
  O37      1.0000 0.59455  0.15404  0.16585  Biso   1.000  O
  O38      1.0000 0.67486  0.01202  0.20128  Biso   1.000  O
  O39      1.0000 0.70905  0.02063  0.98412  Biso   1.000  O
  O40      1.0000 0.69872  0.86886  0.05141  Biso   1.000  O
  O41      1.0000 0.49860  0.92013  0.12631  Biso   1.000  O
  O42      1.0000 0.52326  0.11988  0.00253  Biso   1.000  O
  C55      1.0000 0.63727  0.10071  0.21807  Biso   1.000  C
  C56      1.0000 0.64237  0.14194  0.30271  Biso   1.000  C
  C57      1.0000 0.69562  0.08870  0.35950  Biso   1.000  C
  C58      1.0000 0.59313  0.23299  0.32532  Biso   1.000  C
  C59      1.0000 0.70287  0.12859  0.43758  Biso   1.000  C
  C60      1.0000 0.59608  0.27034  0.40429  Biso   1.000  C
  C61      1.0000 0.65238  0.21908  0.45974  Biso   1.000  C
  C62      1.0000 0.76842  0.07672  0.49526  Biso   1.000  C
  C63      1.0000 0.53716  0.36385  0.42866  Biso   1.000  C
  Mn8      1.0000 0.89479  0.98211  0.57858  Biso   1.000  Mn
  O43      1.0000 0.90545  0.84596  0.66585  Biso   1.000  O
  O44      1.0000 0.82514  0.98798  0.70128  Biso   1.000  O
  O45      1.0000 0.79095  0.97937  0.48412  Biso   1.000  O
  O46      1.0000 0.80128  0.13114  0.55141  Biso   1.000  O
  O47      1.0000 0.00140  0.07987  0.62631  Biso   1.000  O
  O48      1.0000 0.97674  0.88012  0.50253  Biso   1.000  O
  C64      1.0000 0.86273  0.89929  0.71807  Biso   1.000  C
  C65      1.0000 0.85763  0.85806  0.80271  Biso   1.000  C
  C66      1.0000 0.80438  0.91130  0.85950  Biso   1.000  C
  C67      1.0000 0.90687  0.76701  0.82532  Biso   1.000  C
  C68      1.0000 0.79713  0.87141  0.93758  Biso   1.000  C
  C69      1.0000 0.90392  0.72966  0.90429  Biso   1.000  C
  C70      1.0000 0.84762  0.78092  0.95974  Biso   1.000  C
  C71      1.0000 0.73158  0.92328  0.99526  Biso   1.000  C
  C72      1.0000 0.96284  0.63615  0.92866  Biso   1.000  C
