data_image0
_cell_length_a       14.138
_cell_length_b       11.686
_cell_length_c       16.583
_cell_angle_alpha    90
_cell_angle_beta     90
_cell_angle_gamma    90

_symmetry_space_group_name_H-M    "P 1"
_symmetry_int_tables_number       1

loop_
  _symmetry_equiv_pos_as_xyz
  'x, y, z'

loop_
  _atom_site_label
  _atom_site_occupancy
  _atom_site_fract_x
  _atom_site_fract_y
  _atom_site_fract_z
  _atom_site_thermal_displace_type
  _atom_site_B_iso_or_equiv
  _atom_site_type_symbol
  Mn1      1.0000 0.61063  0.46860  0.56065  Biso   1.000  Mn
  O1       1.0000 0.79860  0.52350  0.95520  Biso   1.000  O
  O2       1.0000 0.78670  0.37930  0.03990  Biso   1.000  O
  O3       1.0000 0.60480  0.30930  0.64140  Biso   1.000  O
  O4       1.0000 0.48890  0.05850  0.86380  Biso   1.000  O
  C1       1.0000 0.63960  0.28570  0.94320  Biso   1.000  C
  H1       1.0000 0.63250  0.27210  0.99810  Biso   1.000  H
  O5       1.0000 0.50220  0.12020  0.99180  Biso   1.000  O
  C2       1.0000 0.76250  0.43100  0.97500  Biso   1.000  C
  C3       1.0000 0.70080  0.39960  0.83520  Biso   1.000  C
  H2       1.0000 0.73600  0.46190  0.81730  Biso   1.000  H
  C4       1.0000 0.64970  0.36800  0.69280  Biso   1.000  C
  C5       1.0000 0.70090  0.36740  0.91780  Biso   1.000  C
  C6       1.0000 0.52390  0.12800  0.91440  Biso   1.000  C
  O6       1.0000 0.69620  0.45190  0.67170  Biso   1.000  O
  C7       1.0000 0.59340  0.24300  0.80590  Biso   1.000  C
  H3       1.0000 0.56260  0.19670  0.76860  Biso   1.000  H
  C8       1.0000 0.58750  0.22230  0.88850  Biso   1.000  C
  C9       1.0000 0.64720  0.33600  0.78220  Biso   1.000  C
  Mn2      1.0000 0.88937  0.53140  0.06065  Biso   1.000  Mn
  O7       1.0000 0.70140  0.47650  0.45520  Biso   1.000  O
  O8       1.0000 0.71330  0.62070  0.53990  Biso   1.000  O
  O9       1.0000 0.89520  0.69070  0.14140  Biso   1.000  O
  O10      1.0000 0.01110  0.94150  0.36380  Biso   1.000  O
  C10      1.0000 0.86040  0.71430  0.44320  Biso   1.000  C
  H4       1.0000 0.86750  0.72790  0.49810  Biso   1.000  H
  O11      1.0000 0.99780  0.87980  0.49180  Biso   1.000  O
  C11      1.0000 0.73750  0.56900  0.47500  Biso   1.000  C
  C12      1.0000 0.79920  0.60040  0.33520  Biso   1.000  C
  H5       1.0000 0.76400  0.53810  0.31730  Biso   1.000  H
  C13      1.0000 0.85030  0.63200  0.19280  Biso   1.000  C
  C14      1.0000 0.79910  0.63260  0.41780  Biso   1.000  C
  C15      1.0000 0.97610  0.87200  0.41440  Biso   1.000  C
  O12      1.0000 0.80380  0.54810  0.17170  Biso   1.000  O
  C16      1.0000 0.90660  0.75700  0.30590  Biso   1.000  C
  H6       1.0000 0.93740  0.80330  0.26860  Biso   1.000  H
  C17      1.0000 0.91250  0.77770  0.38850  Biso   1.000  C
  C18      1.0000 0.85280  0.66400  0.28220  Biso   1.000  C
  Mn3      1.0000 0.38937  0.96860  0.93935  Biso   1.000  Mn
  O13      1.0000 0.20140  0.02350  0.54480  Biso   1.000  O
  O14      1.0000 0.21330  0.87930  0.46010  Biso   1.000  O
  O15      1.0000 0.39520  0.80930  0.85860  Biso   1.000  O
  O16      1.0000 0.51110  0.55850  0.63620  Biso   1.000  O
  C19      1.0000 0.36040  0.78570  0.55680  Biso   1.000  C
  H7       1.0000 0.36750  0.77210  0.50190  Biso   1.000  H
  O17      1.0000 0.49780  0.62020  0.50820  Biso   1.000  O
  C20      1.0000 0.23750  0.93100  0.52500  Biso   1.000  C
  C21      1.0000 0.29920  0.89960  0.66480  Biso   1.000  C
  H8       1.0000 0.26400  0.96190  0.68270  Biso   1.000  H
  C22      1.0000 0.35030  0.86800  0.80720  Biso   1.000  C
  C23      1.0000 0.29910  0.86740  0.58220  Biso   1.000  C
  C24      1.0000 0.47610  0.62800  0.58560  Biso   1.000  C
  O18      1.0000 0.30380  0.95190  0.82830  Biso   1.000  O
  C25      1.0000 0.40660  0.74300  0.69410  Biso   1.000  C
  H9       1.0000 0.43740  0.69670  0.73140  Biso   1.000  H
  C26      1.0000 0.41250  0.72230  0.61150  Biso   1.000  C
  C27      1.0000 0.35280  0.83600  0.71780  Biso   1.000  C
  Mn4      1.0000 0.11063  0.03140  0.43935  Biso   1.000  Mn
  O19      1.0000 0.29860  0.97650  0.04480  Biso   1.000  O
  O20      1.0000 0.28670  0.12070  0.96010  Biso   1.000  O
  O21      1.0000 0.10480  0.19070  0.35860  Biso   1.000  O
  O22      1.0000 0.98890  0.44150  0.13620  Biso   1.000  O
  C28      1.0000 0.13960  0.21430  0.05680  Biso   1.000  C
  H10      1.0000 0.13250  0.22790  0.00190  Biso   1.000  H
  O23      1.0000 0.00220  0.37980  0.00820  Biso   1.000  O
  C29      1.0000 0.26250  0.06900  0.02500  Biso   1.000  C
  C30      1.0000 0.20080  0.10040  0.16480  Biso   1.000  C
  H11      1.0000 0.23600  0.03810  0.18270  Biso   1.000  H
  C31      1.0000 0.14970  0.13200  0.30720  Biso   1.000  C
  C32      1.0000 0.20090  0.13260  0.08220  Biso   1.000  C
  C33      1.0000 0.02390  0.37200  0.08560  Biso   1.000  C
  O24      1.0000 0.19620  0.04810  0.32830  Biso   1.000  O
  C34      1.0000 0.09340  0.25700  0.19410  Biso   1.000  C
  H12      1.0000 0.06260  0.30330  0.23140  Biso   1.000  H
  C35      1.0000 0.08750  0.27770  0.11150  Biso   1.000  C
  C36      1.0000 0.14720  0.16400  0.21780  Biso   1.000  C
  Mn5      1.0000 0.38937  0.53140  0.43935  Biso   1.000  Mn
  O25      1.0000 0.20140  0.47650  0.04480  Biso   1.000  O
  O26      1.0000 0.21330  0.62070  0.96010  Biso   1.000  O
  O27      1.0000 0.39520  0.69070  0.35860  Biso   1.000  O
  O28      1.0000 0.51110  0.94150  0.13620  Biso   1.000  O
  C37      1.0000 0.36040  0.71430  0.05680  Biso   1.000  C
  H13      1.0000 0.36750  0.72790  0.00190  Biso   1.000  H
  O29      1.0000 0.49780  0.87980  0.00820  Biso   1.000  O
  C38      1.0000 0.23750  0.56900  0.02500  Biso   1.000  C
  C39      1.0000 0.29920  0.60040  0.16480  Biso   1.000  C
  H14      1.0000 0.26400  0.53810  0.18270  Biso   1.000  H
  C40      1.0000 0.35030  0.63200  0.30720  Biso   1.000  C
  C41      1.0000 0.29910  0.63260  0.08220  Biso   1.000  C
  C42      1.0000 0.47610  0.87200  0.08560  Biso   1.000  C
  O30      1.0000 0.30380  0.54810  0.32830  Biso   1.000  O
  C43      1.0000 0.40660  0.75700  0.19410  Biso   1.000  C
  H15      1.0000 0.43740  0.80330  0.23140  Biso   1.000  H
  C44      1.0000 0.41250  0.77770  0.11150  Biso   1.000  C
  C45      1.0000 0.35280  0.66400  0.21780  Biso   1.000  C
  Mn6      1.0000 0.11063  0.46860  0.93935  Biso   1.000  Mn
  O31      1.0000 0.29860  0.52350  0.54480  Biso   1.000  O
  O32      1.0000 0.28670  0.37930  0.46010  Biso   1.000  O
  O33      1.0000 0.10480  0.30930  0.85860  Biso   1.000  O
  O34      1.0000 0.98890  0.05850  0.63620  Biso   1.000  O
  C46      1.0000 0.13960  0.28570  0.55680  Biso   1.000  C
  H16      1.0000 0.13250  0.27210  0.50190  Biso   1.000  H
  O35      1.0000 0.00220  0.12020  0.50820  Biso   1.000  O
  C47      1.0000 0.26250  0.43100  0.52500  Biso   1.000  C
  C48      1.0000 0.20080  0.39960  0.66480  Biso   1.000  C
  H17      1.0000 0.23600  0.46190  0.68270  Biso   1.000  H
  C49      1.0000 0.14970  0.36800  0.80720  Biso   1.000  C
  C50      1.0000 0.20090  0.36740  0.58220  Biso   1.000  C
  C51      1.0000 0.02390  0.12800  0.58560  Biso   1.000  C
  O36      1.0000 0.19620  0.45190  0.82830  Biso   1.000  O
  C52      1.0000 0.09340  0.24300  0.69410  Biso   1.000  C
  H18      1.0000 0.06260  0.19670  0.73140  Biso   1.000  H
  C53      1.0000 0.08750  0.22230  0.61150  Biso   1.000  C
  C54      1.0000 0.14720  0.33600  0.71780  Biso   1.000  C
  Mn7      1.0000 0.61063  0.03140  0.06065  Biso   1.000  Mn
  O37      1.0000 0.79860  0.97650  0.45520  Biso   1.000  O
  O38      1.0000 0.78670  0.12070  0.53990  Biso   1.000  O
  O39      1.0000 0.60480  0.19070  0.14140  Biso   1.000  O
  O40      1.0000 0.48890  0.44150  0.36380  Biso   1.000  O
  C55      1.0000 0.63960  0.21430  0.44320  Biso   1.000  C
  H19      1.0000 0.63250  0.22790  0.49810  Biso   1.000  H
  O41      1.0000 0.50220  0.37980  0.49180  Biso   1.000  O
  C56      1.0000 0.76250  0.06900  0.47500  Biso   1.000  C
  C57      1.0000 0.70080  0.10040  0.33520  Biso   1.000  C
  H20      1.0000 0.73600  0.03810  0.31730  Biso   1.000  H
  C58      1.0000 0.64970  0.13200  0.19280  Biso   1.000  C
  C59      1.0000 0.70090  0.13260  0.41780  Biso   1.000  C
  C60      1.0000 0.52390  0.37200  0.41440  Biso   1.000  C
  O42      1.0000 0.69620  0.04810  0.17170  Biso   1.000  O
  C61      1.0000 0.59340  0.25700  0.30590  Biso   1.000  C
  H21      1.0000 0.56260  0.30330  0.26860  Biso   1.000  H
  C62      1.0000 0.58750  0.27770  0.38850  Biso   1.000  C
  C63      1.0000 0.64720  0.16400  0.28220  Biso   1.000  C
  Mn8      1.0000 0.88937  0.96860  0.56065  Biso   1.000  Mn
  O43      1.0000 0.70140  0.02350  0.95520  Biso   1.000  O
  O44      1.0000 0.71330  0.87930  0.03990  Biso   1.000  O
  O45      1.0000 0.89520  0.80930  0.64140  Biso   1.000  O
  O46      1.0000 0.01110  0.55850  0.86380  Biso   1.000  O
  C64      1.0000 0.86040  0.78570  0.94320  Biso   1.000  C
  H22      1.0000 0.86750  0.77210  0.99810  Biso   1.000  H
  O47      1.0000 0.99780  0.62020  0.99180  Biso   1.000  O
  C65      1.0000 0.73750  0.93100  0.97500  Biso   1.000  C
  C66      1.0000 0.79920  0.89960  0.83520  Biso   1.000  C
  H23      1.0000 0.76400  0.96190  0.81730  Biso   1.000  H
  C67      1.0000 0.85030  0.86800  0.69280  Biso   1.000  C
  C68      1.0000 0.79910  0.86740  0.91780  Biso   1.000  C
  C69      1.0000 0.97610  0.62800  0.91440  Biso   1.000  C
  O48      1.0000 0.80380  0.95190  0.67170  Biso   1.000  O
  C70      1.0000 0.90660  0.74300  0.80590  Biso   1.000  C
  H24      1.0000 0.93740  0.69670  0.76860  Biso   1.000  H
  C71      1.0000 0.91250  0.72230  0.88850  Biso   1.000  C
  C72      1.0000 0.85280  0.83600  0.78220  Biso   1.000  C
