data_image0
_cell_length_a       14.14
_cell_length_b       11.319
_cell_length_c       16.6
_cell_angle_alpha    90
_cell_angle_beta     90
_cell_angle_gamma    90

_symmetry_space_group_name_H-M    "P 1"
_symmetry_int_tables_number       1

loop_
  _symmetry_equiv_pos_as_xyz
  'x, y, z'

loop_
  _atom_site_label
  _atom_site_occupancy
  _atom_site_fract_x
  _atom_site_fract_y
  _atom_site_fract_z
  _atom_site_thermal_displace_type
  _atom_site_B_iso_or_equiv
  _atom_site_type_symbol
  Mn1      1.0000 0.61180  0.46610  0.55630  Biso   1.000  Mn
  O1       1.0000 0.80140  0.52400  0.94760  Biso   1.000  O
  O2       1.0000 0.78420  0.38100  0.03700  Biso   1.000  O
  O3       1.0000 0.60920  0.29600  0.63520  Biso   1.000  O
  O4       1.0000 0.48320  0.05200  0.86440  Biso   1.000  O
  C1       1.0000 0.63800  0.29000  0.93900  Biso   1.000  C
  H1       1.0000 0.63060  0.27860  0.99460  Biso   1.000  H
  O5       1.0000 0.49820  0.12200  0.99130  Biso   1.000  O
  C2       1.0000 0.76200  0.42300  0.97400  Biso   1.000  C
  C3       1.0000 0.70500  0.39800  0.82900  Biso   1.000  C
  H2       1.0000 0.74720  0.45470  0.80940  Biso   1.000  H
  C4       1.0000 0.65200  0.36800  0.68900  Biso   1.000  C
  C5       1.0000 0.69900  0.37100  0.91100  Biso   1.000  C
  C6       1.0000 0.51900  0.13300  0.91700  Biso   1.000  C
  O6       1.0000 0.70420  0.44800  0.66320  Biso   1.000  O
  C7       1.0000 0.59600  0.24400  0.80300  Biso   1.000  C
  H3       1.0000 0.56660  0.19430  0.76540  Biso   1.000  H
  C8       1.0000 0.58600  0.22100  0.88300  Biso   1.000  C
  C9       1.0000 0.64500  0.33500  0.77800  Biso   1.000  C
  Mn2      1.0000 0.88820  0.53390  0.05630  Biso   1.000  Mn
  O7       1.0000 0.69860  0.47600  0.44760  Biso   1.000  O
  O8       1.0000 0.71580  0.61900  0.53700  Biso   1.000  O
  O9       1.0000 0.89080  0.70400  0.13520  Biso   1.000  O
  O10      1.0000 0.01680  0.94800  0.36440  Biso   1.000  O
  C10      1.0000 0.86200  0.71000  0.43900  Biso   1.000  C
  H4       1.0000 0.86940  0.72140  0.49460  Biso   1.000  H
  O11      1.0000 0.00180  0.87800  0.49130  Biso   1.000  O
  C11      1.0000 0.73800  0.57700  0.47400  Biso   1.000  C
  C12      1.0000 0.79500  0.60200  0.32900  Biso   1.000  C
  H5       1.0000 0.75280  0.54530  0.30940  Biso   1.000  H
  C13      1.0000 0.84800  0.63200  0.18900  Biso   1.000  C
  C14      1.0000 0.80100  0.62900  0.41100  Biso   1.000  C
  C15      1.0000 0.98100  0.86700  0.41700  Biso   1.000  C
  O12      1.0000 0.79580  0.55200  0.16320  Biso   1.000  O
  C16      1.0000 0.90400  0.75600  0.30300  Biso   1.000  C
  H6       1.0000 0.93340  0.80570  0.26540  Biso   1.000  H
  C17      1.0000 0.91400  0.77900  0.38300  Biso   1.000  C
  C18      1.0000 0.85500  0.66500  0.27800  Biso   1.000  C
  Mn3      1.0000 0.38820  0.96610  0.94370  Biso   1.000  Mn
  O13      1.0000 0.19860  0.02400  0.55240  Biso   1.000  O
  O14      1.0000 0.21580  0.88100  0.46300  Biso   1.000  O
  O15      1.0000 0.39080  0.79600  0.86480  Biso   1.000  O
  O16      1.0000 0.51680  0.55200  0.63560  Biso   1.000  O
  C19      1.0000 0.36200  0.79000  0.56100  Biso   1.000  C
  H7       1.0000 0.36940  0.77860  0.50540  Biso   1.000  H
  O17      1.0000 0.50180  0.62200  0.50870  Biso   1.000  O
  C20      1.0000 0.23800  0.92300  0.52600  Biso   1.000  C
  C21      1.0000 0.29500  0.89800  0.67100  Biso   1.000  C
  H8       1.0000 0.25280  0.95470  0.69060  Biso   1.000  H
  C22      1.0000 0.34800  0.86800  0.81100  Biso   1.000  C
  C23      1.0000 0.30100  0.87100  0.58900  Biso   1.000  C
  C24      1.0000 0.48100  0.63300  0.58300  Biso   1.000  C
  O18      1.0000 0.29580  0.94800  0.83680  Biso   1.000  O
  C25      1.0000 0.40400  0.74400  0.69700  Biso   1.000  C
  H9       1.0000 0.43340  0.69430  0.73460  Biso   1.000  H
  C26      1.0000 0.41400  0.72100  0.61700  Biso   1.000  C
  C27      1.0000 0.35500  0.83500  0.72200  Biso   1.000  C
  Mn4      1.0000 0.11180  0.03390  0.44370  Biso   1.000  Mn
  O19      1.0000 0.30140  0.97600  0.05240  Biso   1.000  O
  O20      1.0000 0.28420  0.11900  0.96300  Biso   1.000  O
  O21      1.0000 0.10920  0.20400  0.36480  Biso   1.000  O
  O22      1.0000 0.98320  0.44800  0.13560  Biso   1.000  O
  C28      1.0000 0.13800  0.21000  0.06100  Biso   1.000  C
  H10      1.0000 0.13060  0.22140  0.00540  Biso   1.000  H
  O23      1.0000 0.99820  0.37800  0.00870  Biso   1.000  O
  C29      1.0000 0.26200  0.07700  0.02600  Biso   1.000  C
  C30      1.0000 0.20500  0.10200  0.17100  Biso   1.000  C
  H11      1.0000 0.24720  0.04530  0.19060  Biso   1.000  H
  C31      1.0000 0.15200  0.13200  0.31100  Biso   1.000  C
  C32      1.0000 0.19900  0.12900  0.08900  Biso   1.000  C
  C33      1.0000 0.01900  0.36700  0.08300  Biso   1.000  C
  O24      1.0000 0.20420  0.05200  0.33680  Biso   1.000  O
  C34      1.0000 0.09600  0.25600  0.19700  Biso   1.000  C
  H12      1.0000 0.06660  0.30570  0.23460  Biso   1.000  H
  C35      1.0000 0.08600  0.27900  0.11700  Biso   1.000  C
  C36      1.0000 0.14500  0.16500  0.22200  Biso   1.000  C
  Mn5      1.0000 0.38820  0.53390  0.44370  Biso   1.000  Mn
  O25      1.0000 0.19860  0.47600  0.05240  Biso   1.000  O
  O26      1.0000 0.21580  0.61900  0.96300  Biso   1.000  O
  O27      1.0000 0.39080  0.70400  0.36480  Biso   1.000  O
  O28      1.0000 0.51680  0.94800  0.13560  Biso   1.000  O
  C37      1.0000 0.36200  0.71000  0.06100  Biso   1.000  C
  H13      1.0000 0.36940  0.72140  0.00540  Biso   1.000  H
  O29      1.0000 0.50180  0.87800  0.00870  Biso   1.000  O
  C38      1.0000 0.23800  0.57700  0.02600  Biso   1.000  C
  C39      1.0000 0.29500  0.60200  0.17100  Biso   1.000  C
  H14      1.0000 0.25280  0.54530  0.19060  Biso   1.000  H
  C40      1.0000 0.34800  0.63200  0.31100  Biso   1.000  C
  C41      1.0000 0.30100  0.62900  0.08900  Biso   1.000  C
  C42      1.0000 0.48100  0.86700  0.08300  Biso   1.000  C
  O30      1.0000 0.29580  0.55200  0.33680  Biso   1.000  O
  C43      1.0000 0.40400  0.75600  0.19700  Biso   1.000  C
  H15      1.0000 0.43340  0.80570  0.23460  Biso   1.000  H
  C44      1.0000 0.41400  0.77900  0.11700  Biso   1.000  C
  C45      1.0000 0.35500  0.66500  0.22200  Biso   1.000  C
  Mn6      1.0000 0.11180  0.46610  0.94370  Biso   1.000  Mn
  O31      1.0000 0.30140  0.52400  0.55240  Biso   1.000  O
  O32      1.0000 0.28420  0.38100  0.46300  Biso   1.000  O
  O33      1.0000 0.10920  0.29600  0.86480  Biso   1.000  O
  O34      1.0000 0.98320  0.05200  0.63560  Biso   1.000  O
  C46      1.0000 0.13800  0.29000  0.56100  Biso   1.000  C
  H16      1.0000 0.13060  0.27860  0.50540  Biso   1.000  H
  O35      1.0000 0.99820  0.12200  0.50870  Biso   1.000  O
  C47      1.0000 0.26200  0.42300  0.52600  Biso   1.000  C
  C48      1.0000 0.20500  0.39800  0.67100  Biso   1.000  C
  H17      1.0000 0.24720  0.45470  0.69060  Biso   1.000  H
  C49      1.0000 0.15200  0.36800  0.81100  Biso   1.000  C
  C50      1.0000 0.19900  0.37100  0.58900  Biso   1.000  C
  C51      1.0000 0.01900  0.13300  0.58300  Biso   1.000  C
  O36      1.0000 0.20420  0.44800  0.83680  Biso   1.000  O
  C52      1.0000 0.09600  0.24400  0.69700  Biso   1.000  C
  H18      1.0000 0.06660  0.19430  0.73460  Biso   1.000  H
  C53      1.0000 0.08600  0.22100  0.61700  Biso   1.000  C
  C54      1.0000 0.14500  0.33500  0.72200  Biso   1.000  C
  Mn7      1.0000 0.61180  0.03390  0.05630  Biso   1.000  Mn
  O37      1.0000 0.80140  0.97600  0.44760  Biso   1.000  O
  O38      1.0000 0.78420  0.11900  0.53700  Biso   1.000  O
  O39      1.0000 0.60920  0.20400  0.13520  Biso   1.000  O
  O40      1.0000 0.48320  0.44800  0.36440  Biso   1.000  O
  C55      1.0000 0.63800  0.21000  0.43900  Biso   1.000  C
  H19      1.0000 0.63060  0.22140  0.49460  Biso   1.000  H
  O41      1.0000 0.49820  0.37800  0.49130  Biso   1.000  O
  C56      1.0000 0.76200  0.07700  0.47400  Biso   1.000  C
  C57      1.0000 0.70500  0.10200  0.32900  Biso   1.000  C
  H20      1.0000 0.74720  0.04530  0.30940  Biso   1.000  H
  C58      1.0000 0.65200  0.13200  0.18900  Biso   1.000  C
  C59      1.0000 0.69900  0.12900  0.41100  Biso   1.000  C
  C60      1.0000 0.51900  0.36700  0.41700  Biso   1.000  C
  O42      1.0000 0.70420  0.05200  0.16320  Biso   1.000  O
  C61      1.0000 0.59600  0.25600  0.30300  Biso   1.000  C
  H21      1.0000 0.56660  0.30570  0.26540  Biso   1.000  H
  C62      1.0000 0.58600  0.27900  0.38300  Biso   1.000  C
  C63      1.0000 0.64500  0.16500  0.27800  Biso   1.000  C
  Mn8      1.0000 0.88820  0.96610  0.55630  Biso   1.000  Mn
  O43      1.0000 0.69860  0.02400  0.94760  Biso   1.000  O
  O44      1.0000 0.71580  0.88100  0.03700  Biso   1.000  O
  O45      1.0000 0.89080  0.79600  0.63520  Biso   1.000  O
  O46      1.0000 0.01680  0.55200  0.86440  Biso   1.000  O
  C64      1.0000 0.86200  0.79000  0.93900  Biso   1.000  C
  H22      1.0000 0.86940  0.77860  0.99460  Biso   1.000  H
  O47      1.0000 0.00180  0.62200  0.99130  Biso   1.000  O
  C65      1.0000 0.73800  0.92300  0.97400  Biso   1.000  C
  C66      1.0000 0.79500  0.89800  0.82900  Biso   1.000  C
  H23      1.0000 0.75280  0.95470  0.80940  Biso   1.000  H
  C67      1.0000 0.84800  0.86800  0.68900  Biso   1.000  C
  C68      1.0000 0.80100  0.87100  0.91100  Biso   1.000  C
  C69      1.0000 0.98100  0.63300  0.91700  Biso   1.000  C
  O48      1.0000 0.79580  0.94800  0.66320  Biso   1.000  O
  C70      1.0000 0.90400  0.74400  0.80300  Biso   1.000  C
  H24      1.0000 0.93340  0.69430  0.76540  Biso   1.000  H
  C71      1.0000 0.91400  0.72100  0.88300  Biso   1.000  C
  C72      1.0000 0.85500  0.83500  0.77800  Biso   1.000  C
