data_image0
_cell_length_a       14.7716
_cell_length_b       12.426
_cell_length_c       16.6277
_cell_angle_alpha    90
_cell_angle_beta     90
_cell_angle_gamma    90

_symmetry_space_group_name_H-M    "P 1"
_symmetry_int_tables_number       1

loop_
  _symmetry_equiv_pos_as_xyz
  'x, y, z'

loop_
  _atom_site_label
  _atom_site_occupancy
  _atom_site_fract_x
  _atom_site_fract_y
  _atom_site_fract_z
  _atom_site_thermal_displace_type
  _atom_site_B_iso_or_equiv
  _atom_site_type_symbol
  Mn1      1.0000 0.60476  0.48355  0.57927  Biso   1.000  Mn
  O1       1.0000 0.59329  0.34818  0.66732  Biso   1.000  O
  O2       1.0000 0.67367  0.48897  0.70250  Biso   1.000  O
  O3       1.0000 0.70911  0.48089  0.48541  Biso   1.000  O
  O4       1.0000 0.69819  0.63237  0.55128  Biso   1.000  O
  O5       1.0000 0.49845  0.58148  0.62566  Biso   1.000  O
  O6       1.0000 0.52509  0.38039  0.50320  Biso   1.000  O
  C1       1.0000 0.63627  0.40077  0.71923  Biso   1.000  C
  C2       1.0000 0.64164  0.35903  0.80374  Biso   1.000  C
  C3       1.0000 0.69506  0.41174  0.86066  Biso   1.000  C
  C4       1.0000 0.59283  0.26833  0.82635  Biso   1.000  C
  H1       1.0000 0.72560  0.47440  0.84660  Biso   1.000  H
  C5       1.0000 0.70289  0.37115  0.93850  Biso   1.000  C
  H2       1.0000 0.55750  0.23260  0.78850  Biso   1.000  H
  C6       1.0000 0.59623  0.23029  0.90516  Biso   1.000  C
  C7       1.0000 0.65274  0.28084  0.96068  Biso   1.000  C
  C8       1.0000 0.76852  0.42228  0.99609  Biso   1.000  C
  C9       1.0000 0.53783  0.13685  0.92947  Biso   1.000  C
  H3       1.0000 0.65700  0.25420  0.01280  Biso   1.000  H
  Mn2      1.0000 0.89524  0.51645  0.07927  Biso   1.000  Mn
  O7       1.0000 0.90671  0.65182  0.16732  Biso   1.000  O
  O8       1.0000 0.82633  0.51103  0.20250  Biso   1.000  O
  O9       1.0000 0.79089  0.51911  0.98541  Biso   1.000  O
  O10      1.0000 0.80181  0.36763  0.05128  Biso   1.000  O
  O11      1.0000 0.00155  0.41852  0.12566  Biso   1.000  O
  O12      1.0000 0.97491  0.61961  0.00320  Biso   1.000  O
  C10      1.0000 0.86373  0.59923  0.21923  Biso   1.000  C
  C11      1.0000 0.85836  0.64097  0.30374  Biso   1.000  C
  C12      1.0000 0.80494  0.58826  0.36066  Biso   1.000  C
  C13      1.0000 0.90717  0.73167  0.32635  Biso   1.000  C
  H4       1.0000 0.77440  0.52560  0.34660  Biso   1.000  H
  C14      1.0000 0.79711  0.62885  0.43850  Biso   1.000  C
  H5       1.0000 0.94250  0.76740  0.28850  Biso   1.000  H
  C15      1.0000 0.90377  0.76971  0.40516  Biso   1.000  C
  C16      1.0000 0.84726  0.71916  0.46068  Biso   1.000  C
  C17      1.0000 0.73148  0.57772  0.49609  Biso   1.000  C
  C18      1.0000 0.96217  0.86315  0.42947  Biso   1.000  C
  H6       1.0000 0.84300  0.74580  0.51280  Biso   1.000  H
  Mn3      1.0000 0.39524  0.98355  0.92073  Biso   1.000  Mn
  O13      1.0000 0.40671  0.84818  0.83268  Biso   1.000  O
  O14      1.0000 0.32633  0.98897  0.79750  Biso   1.000  O
  O15      1.0000 0.29089  0.98089  0.01459  Biso   1.000  O
  O16      1.0000 0.30181  0.13237  0.94872  Biso   1.000  O
  O17      1.0000 0.50155  0.08148  0.87434  Biso   1.000  O
  O18      1.0000 0.47491  0.88039  0.99680  Biso   1.000  O
  C19      1.0000 0.36373  0.90077  0.78077  Biso   1.000  C
  C20      1.0000 0.35836  0.85903  0.69626  Biso   1.000  C
  C21      1.0000 0.30494  0.91174  0.63934  Biso   1.000  C
  C22      1.0000 0.40717  0.76833  0.67365  Biso   1.000  C
  H7       1.0000 0.27440  0.97440  0.65340  Biso   1.000  H
  C23      1.0000 0.29711  0.87115  0.56150  Biso   1.000  C
  H8       1.0000 0.44250  0.73260  0.71150  Biso   1.000  H
  C24      1.0000 0.40377  0.73029  0.59484  Biso   1.000  C
  C25      1.0000 0.34726  0.78084  0.53932  Biso   1.000  C
  C26      1.0000 0.23148  0.92228  0.50391  Biso   1.000  C
  C27      1.0000 0.46217  0.63685  0.57053  Biso   1.000  C
  H9       1.0000 0.34300  0.75420  0.48720  Biso   1.000  H
  Mn4      1.0000 0.10476  0.01645  0.42073  Biso   1.000  Mn
  O19      1.0000 0.09329  0.15182  0.33268  Biso   1.000  O
  O20      1.0000 0.17367  0.01103  0.29750  Biso   1.000  O
  O21      1.0000 0.20911  0.01911  0.51459  Biso   1.000  O
  O22      1.0000 0.19819  0.86763  0.44872  Biso   1.000  O
  O23      1.0000 0.99845  0.91852  0.37434  Biso   1.000  O
  O24      1.0000 0.02509  0.11961  0.49680  Biso   1.000  O
  C28      1.0000 0.13627  0.09923  0.28077  Biso   1.000  C
  C29      1.0000 0.14164  0.14097  0.19626  Biso   1.000  C
  C30      1.0000 0.19506  0.08826  0.13934  Biso   1.000  C
  C31      1.0000 0.09283  0.23167  0.17365  Biso   1.000  C
  H10      1.0000 0.22560  0.02560  0.15340  Biso   1.000  H
  C32      1.0000 0.20289  0.12885  0.06150  Biso   1.000  C
  H11      1.0000 0.05750  0.26740  0.21150  Biso   1.000  H
  C33      1.0000 0.09623  0.26971  0.09484  Biso   1.000  C
  C34      1.0000 0.15274  0.21916  0.03932  Biso   1.000  C
  C35      1.0000 0.26852  0.07772  0.00391  Biso   1.000  C
  C36      1.0000 0.03783  0.36315  0.07053  Biso   1.000  C
  H12      1.0000 0.15700  0.24580  0.98720  Biso   1.000  H
  Mn5      1.0000 0.39524  0.51645  0.42073  Biso   1.000  Mn
  O25      1.0000 0.40671  0.65182  0.33268  Biso   1.000  O
  O26      1.0000 0.32633  0.51103  0.29750  Biso   1.000  O
  O27      1.0000 0.29089  0.51911  0.51459  Biso   1.000  O
  O28      1.0000 0.30181  0.36763  0.44872  Biso   1.000  O
  O29      1.0000 0.50155  0.41852  0.37434  Biso   1.000  O
  O30      1.0000 0.47491  0.61961  0.49680  Biso   1.000  O
  C37      1.0000 0.36373  0.59923  0.28077  Biso   1.000  C
  C38      1.0000 0.35836  0.64097  0.19626  Biso   1.000  C
  C39      1.0000 0.30494  0.58826  0.13934  Biso   1.000  C
  C40      1.0000 0.40717  0.73167  0.17365  Biso   1.000  C
  H13      1.0000 0.27440  0.52560  0.15340  Biso   1.000  H
  C41      1.0000 0.29711  0.62885  0.06150  Biso   1.000  C
  H14      1.0000 0.44250  0.76740  0.21150  Biso   1.000  H
  C42      1.0000 0.40377  0.76971  0.09484  Biso   1.000  C
  C43      1.0000 0.34726  0.71916  0.03932  Biso   1.000  C
  C44      1.0000 0.23148  0.57772  0.00391  Biso   1.000  C
  C45      1.0000 0.46217  0.86315  0.07053  Biso   1.000  C
  H15      1.0000 0.34300  0.74580  0.98720  Biso   1.000  H
  Mn6      1.0000 0.10476  0.48355  0.92073  Biso   1.000  Mn
  O31      1.0000 0.09329  0.34818  0.83268  Biso   1.000  O
  O32      1.0000 0.17367  0.48897  0.79750  Biso   1.000  O
  O33      1.0000 0.20911  0.48089  0.01459  Biso   1.000  O
  O34      1.0000 0.19819  0.63237  0.94872  Biso   1.000  O
  O35      1.0000 0.99845  0.58148  0.87434  Biso   1.000  O
  O36      1.0000 0.02509  0.38039  0.99680  Biso   1.000  O
  C46      1.0000 0.13627  0.40077  0.78077  Biso   1.000  C
  C47      1.0000 0.14164  0.35903  0.69626  Biso   1.000  C
  C48      1.0000 0.19506  0.41174  0.63934  Biso   1.000  C
  C49      1.0000 0.09283  0.26833  0.67365  Biso   1.000  C
  H16      1.0000 0.22560  0.47440  0.65340  Biso   1.000  H
  C50      1.0000 0.20289  0.37115  0.56150  Biso   1.000  C
  H17      1.0000 0.05750  0.23260  0.71150  Biso   1.000  H
  C51      1.0000 0.09623  0.23029  0.59484  Biso   1.000  C
  C52      1.0000 0.15274  0.28084  0.53932  Biso   1.000  C
  C53      1.0000 0.26852  0.42228  0.50391  Biso   1.000  C
  C54      1.0000 0.03783  0.13685  0.57053  Biso   1.000  C
  H18      1.0000 0.15700  0.25420  0.48720  Biso   1.000  H
  Mn7      1.0000 0.60476  0.01645  0.07927  Biso   1.000  Mn
  O37      1.0000 0.59329  0.15182  0.16732  Biso   1.000  O
  O38      1.0000 0.67367  0.01103  0.20250  Biso   1.000  O
  O39      1.0000 0.70911  0.01911  0.98541  Biso   1.000  O
  O40      1.0000 0.69819  0.86763  0.05128  Biso   1.000  O
  O41      1.0000 0.49845  0.91852  0.12566  Biso   1.000  O
  O42      1.0000 0.52509  0.11961  0.00320  Biso   1.000  O
  C55      1.0000 0.63627  0.09923  0.21923  Biso   1.000  C
  C56      1.0000 0.64164  0.14097  0.30374  Biso   1.000  C
  C57      1.0000 0.69506  0.08826  0.36066  Biso   1.000  C
  C58      1.0000 0.59283  0.23167  0.32635  Biso   1.000  C
  H19      1.0000 0.72560  0.02560  0.34660  Biso   1.000  H
  C59      1.0000 0.70289  0.12885  0.43850  Biso   1.000  C
  H20      1.0000 0.55750  0.26740  0.28850  Biso   1.000  H
  C60      1.0000 0.59623  0.26971  0.40516  Biso   1.000  C
  C61      1.0000 0.65274  0.21916  0.46068  Biso   1.000  C
  C62      1.0000 0.76852  0.07772  0.49609  Biso   1.000  C
  C63      1.0000 0.53783  0.36315  0.42947  Biso   1.000  C
  H21      1.0000 0.65700  0.24580  0.51280  Biso   1.000  H
  Mn8      1.0000 0.89524  0.98355  0.57927  Biso   1.000  Mn
  O43      1.0000 0.90671  0.84818  0.66732  Biso   1.000  O
  O44      1.0000 0.82633  0.98897  0.70250  Biso   1.000  O
  O45      1.0000 0.79089  0.98089  0.48541  Biso   1.000  O
  O46      1.0000 0.80181  0.13237  0.55128  Biso   1.000  O
  O47      1.0000 0.00155  0.08148  0.62566  Biso   1.000  O
  O48      1.0000 0.97491  0.88039  0.50320  Biso   1.000  O
  C64      1.0000 0.86373  0.90077  0.71923  Biso   1.000  C
  C65      1.0000 0.85836  0.85903  0.80374  Biso   1.000  C
  C66      1.0000 0.80494  0.91174  0.86066  Biso   1.000  C
  C67      1.0000 0.90717  0.76833  0.82635  Biso   1.000  C
  H22      1.0000 0.77440  0.97440  0.84660  Biso   1.000  H
  C68      1.0000 0.79711  0.87115  0.93850  Biso   1.000  C
  H23      1.0000 0.94250  0.73260  0.78850  Biso   1.000  H
  C69      1.0000 0.90377  0.73029  0.90516  Biso   1.000  C
  C70      1.0000 0.84726  0.78084  0.96068  Biso   1.000  C
  C71      1.0000 0.73148  0.92228  0.99609  Biso   1.000  C
  C72      1.0000 0.96217  0.63685  0.92947  Biso   1.000  C
  H24      1.0000 0.84300  0.75420  0.01280  Biso   1.000  H
