data_image0
_cell_length_a       14.3847
_cell_length_b       12.2888
_cell_length_c       16.6029
_cell_angle_alpha    90
_cell_angle_beta     90
_cell_angle_gamma    90

_symmetry_space_group_name_H-M    "P 1"
_symmetry_int_tables_number       1

loop_
  _symmetry_equiv_pos_as_xyz
  'x, y, z'

loop_
  _atom_site_label
  _atom_site_occupancy
  _atom_site_fract_x
  _atom_site_fract_y
  _atom_site_fract_z
  _atom_site_thermal_displace_type
  _atom_site_B_iso_or_equiv
  _atom_site_type_symbol
  Mn1      1.0000 0.10689  0.47768  0.92615  Biso   1.000  Mn
  O1       1.0000 0.29030  0.52250  0.52250  Biso   1.000  O
  O2       1.0000 0.29580  0.37400  0.45090  Biso   1.000  O
  O3       1.0000 0.09850  0.33460  0.84110  Biso   1.000  O
  O4       1.0000 0.99940  0.07400  0.62910  Biso   1.000  O
  C1       1.0000 0.14810  0.28160  0.54440  Biso   1.000  C
  H1       1.0000 0.14970  0.25780  0.49120  Biso   1.000  H
  O5       1.0000 0.01700  0.11930  0.50070  Biso   1.000  O
  C2       1.0000 0.26520  0.42660  0.50920  Biso   1.000  C
  C3       1.0000 0.19520  0.40830  0.64650  Biso   1.000  C
  H2       1.0000 0.22640  0.47140  0.66150  Biso   1.000  H
  C4       1.0000 0.14070  0.39050  0.78890  Biso   1.000  C
  C5       1.0000 0.20050  0.37230  0.56700  Biso   1.000  C
  C6       1.0000 0.03360  0.13360  0.57420  Biso   1.000  C
  O6       1.0000 0.17940  0.47820  0.80620  Biso   1.000  O
  C7       1.0000 0.09340  0.26070  0.67940  Biso   1.000  C
  H3       1.0000 0.05890  0.22250  0.71740  Biso   1.000  H
  C8       1.0000 0.09320  0.22630  0.60030  Biso   1.000  C
  C9       1.0000 0.14410  0.35150  0.70330  Biso   1.000  C
  Mn2      1.0000 0.39311  0.52232  0.42615  Biso   1.000  Mn
  O7       1.0000 0.20970  0.47750  0.02250  Biso   1.000  O
  O8       1.0000 0.20420  0.62600  0.95090  Biso   1.000  O
  O9       1.0000 0.40150  0.66540  0.34110  Biso   1.000  O
  O10      1.0000 0.50060  0.92600  0.12910  Biso   1.000  O
  C10      1.0000 0.35190  0.71840  0.04440  Biso   1.000  C
  H4       1.0000 0.35030  0.74220  0.99120  Biso   1.000  H
  O11      1.0000 0.48300  0.88070  0.00070  Biso   1.000  O
  C11      1.0000 0.23480  0.57340  0.00920  Biso   1.000  C
  C12      1.0000 0.30480  0.59170  0.14650  Biso   1.000  C
  H5       1.0000 0.27360  0.52860  0.16150  Biso   1.000  H
  C13      1.0000 0.35930  0.60950  0.28890  Biso   1.000  C
  C14      1.0000 0.29950  0.62770  0.06700  Biso   1.000  C
  C15      1.0000 0.46640  0.86640  0.07420  Biso   1.000  C
  O12      1.0000 0.32060  0.52180  0.30620  Biso   1.000  O
  C16      1.0000 0.40660  0.73930  0.17940  Biso   1.000  C
  H6       1.0000 0.44110  0.77750  0.21740  Biso   1.000  H
  C17      1.0000 0.40680  0.77370  0.10030  Biso   1.000  C
  C18      1.0000 0.35590  0.64850  0.20330  Biso   1.000  C
  Mn3      1.0000 0.89311  0.97768  0.57385  Biso   1.000  Mn
  O13      1.0000 0.70970  0.02250  0.97750  Biso   1.000  O
  O14      1.0000 0.70420  0.87400  0.04910  Biso   1.000  O
  O15      1.0000 0.90150  0.83460  0.65890  Biso   1.000  O
  O16      1.0000 0.00060  0.57400  0.87090  Biso   1.000  O
  C19      1.0000 0.85190  0.78160  0.95560  Biso   1.000  C
  H7       1.0000 0.85030  0.75780  0.00880  Biso   1.000  H
  O17      1.0000 0.98300  0.61930  0.99930  Biso   1.000  O
  C20      1.0000 0.73480  0.92660  0.99080  Biso   1.000  C
  C21      1.0000 0.80480  0.90830  0.85350  Biso   1.000  C
  H8       1.0000 0.77360  0.97140  0.83850  Biso   1.000  H
  C22      1.0000 0.85930  0.89050  0.71110  Biso   1.000  C
  C23      1.0000 0.79950  0.87230  0.93300  Biso   1.000  C
  C24      1.0000 0.96640  0.63360  0.92580  Biso   1.000  C
  O18      1.0000 0.82060  0.97820  0.69380  Biso   1.000  O
  C25      1.0000 0.90660  0.76070  0.82060  Biso   1.000  C
  H9       1.0000 0.94110  0.72250  0.78260  Biso   1.000  H
  C26      1.0000 0.90680  0.72630  0.89970  Biso   1.000  C
  C27      1.0000 0.85590  0.85150  0.79670  Biso   1.000  C
  Mn4      1.0000 0.60689  0.02232  0.07385  Biso   1.000  Mn
  O19      1.0000 0.79030  0.97750  0.47750  Biso   1.000  O
  O20      1.0000 0.79580  0.12600  0.54910  Biso   1.000  O
  O21      1.0000 0.59850  0.16540  0.15890  Biso   1.000  O
  O22      1.0000 0.49940  0.42600  0.37090  Biso   1.000  O
  C28      1.0000 0.64810  0.21840  0.45560  Biso   1.000  C
  H10      1.0000 0.64970  0.24220  0.50880  Biso   1.000  H
  O23      1.0000 0.51700  0.38070  0.49930  Biso   1.000  O
  C29      1.0000 0.76520  0.07340  0.49080  Biso   1.000  C
  C30      1.0000 0.69520  0.09170  0.35350  Biso   1.000  C
  H11      1.0000 0.72640  0.02860  0.33850  Biso   1.000  H
  C31      1.0000 0.64070  0.10950  0.21110  Biso   1.000  C
  C32      1.0000 0.70050  0.12770  0.43300  Biso   1.000  C
  C33      1.0000 0.53360  0.36640  0.42580  Biso   1.000  C
  O24      1.0000 0.67940  0.02180  0.19380  Biso   1.000  O
  C34      1.0000 0.59340  0.23930  0.32060  Biso   1.000  C
  H12      1.0000 0.55890  0.27750  0.28260  Biso   1.000  H
  C35      1.0000 0.59320  0.27370  0.39970  Biso   1.000  C
  C36      1.0000 0.64410  0.14850  0.29670  Biso   1.000  C
  Mn5      1.0000 0.89311  0.52232  0.07385  Biso   1.000  Mn
  O25      1.0000 0.70970  0.47750  0.47750  Biso   1.000  O
  O26      1.0000 0.70420  0.62600  0.54910  Biso   1.000  O
  O27      1.0000 0.90150  0.66540  0.15890  Biso   1.000  O
  O28      1.0000 0.00060  0.92600  0.37090  Biso   1.000  O
  C37      1.0000 0.85190  0.71840  0.45560  Biso   1.000  C
  H13      1.0000 0.85030  0.74220  0.50880  Biso   1.000  H
  O29      1.0000 0.98300  0.88070  0.49930  Biso   1.000  O
  C38      1.0000 0.73480  0.57340  0.49080  Biso   1.000  C
  C39      1.0000 0.80480  0.59170  0.35350  Biso   1.000  C
  H14      1.0000 0.77360  0.52860  0.33850  Biso   1.000  H
  C40      1.0000 0.85930  0.60950  0.21110  Biso   1.000  C
  C41      1.0000 0.79950  0.62770  0.43300  Biso   1.000  C
  C42      1.0000 0.96640  0.86640  0.42580  Biso   1.000  C
  O30      1.0000 0.82060  0.52180  0.19380  Biso   1.000  O
  C43      1.0000 0.90660  0.73930  0.32060  Biso   1.000  C
  H15      1.0000 0.94110  0.77750  0.28260  Biso   1.000  H
  C44      1.0000 0.90680  0.77370  0.39970  Biso   1.000  C
  C45      1.0000 0.85590  0.64850  0.29670  Biso   1.000  C
  Mn6      1.0000 0.60689  0.47768  0.57385  Biso   1.000  Mn
  O31      1.0000 0.79030  0.52250  0.97750  Biso   1.000  O
  O32      1.0000 0.79580  0.37400  0.04910  Biso   1.000  O
  O33      1.0000 0.59850  0.33460  0.65890  Biso   1.000  O
  O34      1.0000 0.49940  0.07400  0.87090  Biso   1.000  O
  C46      1.0000 0.64810  0.28160  0.95560  Biso   1.000  C
  H16      1.0000 0.64970  0.25780  0.00880  Biso   1.000  H
  O35      1.0000 0.51700  0.11930  0.99930  Biso   1.000  O
  C47      1.0000 0.76520  0.42660  0.99080  Biso   1.000  C
  C48      1.0000 0.69520  0.40830  0.85350  Biso   1.000  C
  H17      1.0000 0.72640  0.47140  0.83850  Biso   1.000  H
  C49      1.0000 0.64070  0.39050  0.71110  Biso   1.000  C
  C50      1.0000 0.70050  0.37230  0.93300  Biso   1.000  C
  C51      1.0000 0.53360  0.13360  0.92580  Biso   1.000  C
  O36      1.0000 0.67940  0.47820  0.69380  Biso   1.000  O
  C52      1.0000 0.59340  0.26070  0.82060  Biso   1.000  C
  H18      1.0000 0.55890  0.22250  0.78260  Biso   1.000  H
  C53      1.0000 0.59320  0.22630  0.89970  Biso   1.000  C
  C54      1.0000 0.64410  0.35150  0.79670  Biso   1.000  C
  Mn7      1.0000 0.10689  0.02232  0.42615  Biso   1.000  Mn
  O37      1.0000 0.29030  0.97750  0.02250  Biso   1.000  O
  O38      1.0000 0.29580  0.12600  0.95090  Biso   1.000  O
  O39      1.0000 0.09850  0.16540  0.34110  Biso   1.000  O
  O40      1.0000 0.99940  0.42600  0.12910  Biso   1.000  O
  C55      1.0000 0.14810  0.21840  0.04440  Biso   1.000  C
  H19      1.0000 0.14970  0.24220  0.99120  Biso   1.000  H
  O41      1.0000 0.01700  0.38070  0.00070  Biso   1.000  O
  C56      1.0000 0.26520  0.07340  0.00920  Biso   1.000  C
  C57      1.0000 0.19520  0.09170  0.14650  Biso   1.000  C
  H20      1.0000 0.22640  0.02860  0.16150  Biso   1.000  H
  C58      1.0000 0.14070  0.10950  0.28890  Biso   1.000  C
  C59      1.0000 0.20050  0.12770  0.06700  Biso   1.000  C
  C60      1.0000 0.03360  0.36640  0.07420  Biso   1.000  C
  O42      1.0000 0.17940  0.02180  0.30620  Biso   1.000  O
  C61      1.0000 0.09340  0.23930  0.17940  Biso   1.000  C
  H21      1.0000 0.05890  0.27750  0.21740  Biso   1.000  H
  C62      1.0000 0.09320  0.27370  0.10030  Biso   1.000  C
  C63      1.0000 0.14410  0.14850  0.20330  Biso   1.000  C
  Mn8      1.0000 0.39311  0.97768  0.92615  Biso   1.000  Mn
  O43      1.0000 0.20970  0.02250  0.52250  Biso   1.000  O
  O44      1.0000 0.20420  0.87400  0.45090  Biso   1.000  O
  O45      1.0000 0.40150  0.83460  0.84110  Biso   1.000  O
  O46      1.0000 0.50060  0.57400  0.62910  Biso   1.000  O
  C64      1.0000 0.35190  0.78160  0.54440  Biso   1.000  C
  H22      1.0000 0.35030  0.75780  0.49120  Biso   1.000  H
  O47      1.0000 0.48300  0.61930  0.50070  Biso   1.000  O
  C65      1.0000 0.23480  0.92660  0.50920  Biso   1.000  C
  C66      1.0000 0.30480  0.90830  0.64650  Biso   1.000  C
  H23      1.0000 0.27360  0.97140  0.66150  Biso   1.000  H
  C67      1.0000 0.35930  0.89050  0.78890  Biso   1.000  C
  C68      1.0000 0.29950  0.87230  0.56700  Biso   1.000  C
  C69      1.0000 0.46640  0.63360  0.57420  Biso   1.000  C
  O48      1.0000 0.32060  0.97820  0.80620  Biso   1.000  O
  C70      1.0000 0.40660  0.76070  0.67940  Biso   1.000  C
  H24      1.0000 0.44110  0.72250  0.71740  Biso   1.000  H
  C71      1.0000 0.40680  0.72630  0.60030  Biso   1.000  C
  C72      1.0000 0.35590  0.85150  0.70330  Biso   1.000  C
