data_image0
_cell_length_a       14.9204
_cell_length_b       12.4737
_cell_length_c       16.5884
_cell_angle_alpha    90
_cell_angle_beta     90
_cell_angle_gamma    90

_symmetry_space_group_name_H-M    "P 1"
_symmetry_int_tables_number       1

loop_
  _symmetry_equiv_pos_as_xyz
  'x, y, z'

loop_
  _atom_site_label
  _atom_site_occupancy
  _atom_site_fract_x
  _atom_site_fract_y
  _atom_site_fract_z
  _atom_site_thermal_displace_type
  _atom_site_B_iso_or_equiv
  _atom_site_type_symbol
  Mn1      1.0000 0.60400  0.48558  0.58142  Biso   1.000  Mn
  O1       1.0000 0.59280  0.35250  0.67086  Biso   1.000  O
  O2       1.0000 0.67040  0.49150  0.70604  Biso   1.000  O
  O3       1.0000 0.52760  0.38050  0.50571  Biso   1.000  O
  O4       1.0000 0.49860  0.58540  0.62340  Biso   1.000  O
  O5       1.0000 0.70820  0.48490  0.48870  Biso   1.000  O
  O6       1.0000 0.69830  0.63360  0.55350  Biso   1.000  O
  C1       1.0000 0.63530  0.40280  0.72160  Biso   1.000  C
  C2       1.0000 0.64040  0.36140  0.80730  Biso   1.000  C
  C3       1.0000 0.69410  0.41250  0.86390  Biso   1.000  C
  C4       1.0000 0.59220  0.27100  0.82940  Biso   1.000  C
  H1       1.0000 0.72440  0.47500  0.85000  Biso   1.000  H
  C5       1.0000 0.70300  0.37040  0.94140  Biso   1.000  C
  C6       1.0000 0.59680  0.23180  0.90750  Biso   1.000  C
  H2       1.0000 0.55640  0.23640  0.79160  Biso   1.000  H
  C7       1.0000 0.76870  0.42230  0.99900  Biso   1.000  C
  C8       1.0000 0.65240  0.28100  0.96270  Biso   1.000  C
  C9       1.0000 0.53870  0.13890  0.93210  Biso   1.000  C
  H3       1.0000 0.65610  0.25410  0.01490  Biso   1.000  H
  Mn2      1.0000 0.89600  0.51442  0.08142  Biso   1.000  Mn
  O7       1.0000 0.90720  0.64750  0.17086  Biso   1.000  O
  O8       1.0000 0.82960  0.50850  0.20604  Biso   1.000  O
  O9       1.0000 0.97240  0.61950  0.00571  Biso   1.000  O
  O10      1.0000 0.00140  0.41460  0.12340  Biso   1.000  O
  O11      1.0000 0.79180  0.51510  0.98870  Biso   1.000  O
  O12      1.0000 0.80170  0.36640  0.05350  Biso   1.000  O
  C10      1.0000 0.86470  0.59720  0.22160  Biso   1.000  C
  C11      1.0000 0.85960  0.63860  0.30730  Biso   1.000  C
  C12      1.0000 0.80590  0.58750  0.36390  Biso   1.000  C
  C13      1.0000 0.90780  0.72900  0.32940  Biso   1.000  C
  H4       1.0000 0.77560  0.52500  0.35000  Biso   1.000  H
  C14      1.0000 0.79700  0.62960  0.44140  Biso   1.000  C
  C15      1.0000 0.90320  0.76820  0.40750  Biso   1.000  C
  H5       1.0000 0.94360  0.76360  0.29160  Biso   1.000  H
  C16      1.0000 0.73130  0.57770  0.49900  Biso   1.000  C
  C17      1.0000 0.84760  0.71900  0.46270  Biso   1.000  C
  C18      1.0000 0.96130  0.86110  0.43210  Biso   1.000  C
  H6       1.0000 0.84390  0.74590  0.51490  Biso   1.000  H
  Mn3      1.0000 0.39600  0.98558  0.91858  Biso   1.000  Mn
  O13      1.0000 0.40720  0.85250  0.82914  Biso   1.000  O
  O14      1.0000 0.32960  0.99150  0.79396  Biso   1.000  O
  O15      1.0000 0.47240  0.88050  0.99429  Biso   1.000  O
  O16      1.0000 0.50140  0.08540  0.87660  Biso   1.000  O
  O17      1.0000 0.29180  0.98490  0.01130  Biso   1.000  O
  O18      1.0000 0.30170  0.13360  0.94650  Biso   1.000  O
  C19      1.0000 0.36470  0.90280  0.77840  Biso   1.000  C
  C20      1.0000 0.35960  0.86140  0.69270  Biso   1.000  C
  C21      1.0000 0.30590  0.91250  0.63610  Biso   1.000  C
  C22      1.0000 0.40780  0.77100  0.67060  Biso   1.000  C
  H7       1.0000 0.27560  0.97500  0.65000  Biso   1.000  H
  C23      1.0000 0.29700  0.87040  0.55860  Biso   1.000  C
  C24      1.0000 0.40320  0.73180  0.59250  Biso   1.000  C
  H8       1.0000 0.44360  0.73640  0.70840  Biso   1.000  H
  C25      1.0000 0.23130  0.92230  0.50100  Biso   1.000  C
  C26      1.0000 0.34760  0.78100  0.53730  Biso   1.000  C
  C27      1.0000 0.46130  0.63890  0.56790  Biso   1.000  C
  H9       1.0000 0.34390  0.75410  0.48510  Biso   1.000  H
  Mn4      1.0000 0.10400  0.01442  0.41858  Biso   1.000  Mn
  O19      1.0000 0.09280  0.14750  0.32914  Biso   1.000  O
  O20      1.0000 0.17040  0.00850  0.29396  Biso   1.000  O
  O21      1.0000 0.02760  0.11950  0.49429  Biso   1.000  O
  O22      1.0000 0.99860  0.91460  0.37660  Biso   1.000  O
  O23      1.0000 0.20820  0.01510  0.51130  Biso   1.000  O
  O24      1.0000 0.19830  0.86640  0.44650  Biso   1.000  O
  C28      1.0000 0.13530  0.09720  0.27840  Biso   1.000  C
  C29      1.0000 0.14040  0.13860  0.19270  Biso   1.000  C
  C30      1.0000 0.19410  0.08750  0.13610  Biso   1.000  C
  C31      1.0000 0.09220  0.22900  0.17060  Biso   1.000  C
  H10      1.0000 0.22440  0.02500  0.15000  Biso   1.000  H
  C32      1.0000 0.20300  0.12960  0.05860  Biso   1.000  C
  C33      1.0000 0.09680  0.26820  0.09250  Biso   1.000  C
  H11      1.0000 0.05640  0.26360  0.20840  Biso   1.000  H
  C34      1.0000 0.26870  0.07770  0.00100  Biso   1.000  C
  C35      1.0000 0.15240  0.21900  0.03730  Biso   1.000  C
  C36      1.0000 0.03870  0.36110  0.06790  Biso   1.000  C
  H12      1.0000 0.15610  0.24590  0.98510  Biso   1.000  H
  Mn5      1.0000 0.39600  0.51442  0.41858  Biso   1.000  Mn
  O25      1.0000 0.40720  0.64750  0.32914  Biso   1.000  O
  O26      1.0000 0.32960  0.50850  0.29396  Biso   1.000  O
  O27      1.0000 0.47240  0.61950  0.49429  Biso   1.000  O
  O28      1.0000 0.50140  0.41460  0.37660  Biso   1.000  O
  O29      1.0000 0.29180  0.51510  0.51130  Biso   1.000  O
  O30      1.0000 0.30170  0.36640  0.44650  Biso   1.000  O
  C37      1.0000 0.36470  0.59720  0.27840  Biso   1.000  C
  C38      1.0000 0.35960  0.63860  0.19270  Biso   1.000  C
  C39      1.0000 0.30590  0.58750  0.13610  Biso   1.000  C
  C40      1.0000 0.40780  0.72900  0.17060  Biso   1.000  C
  H13      1.0000 0.27560  0.52500  0.15000  Biso   1.000  H
  C41      1.0000 0.29700  0.62960  0.05860  Biso   1.000  C
  C42      1.0000 0.40320  0.76820  0.09250  Biso   1.000  C
  H14      1.0000 0.44360  0.76360  0.20840  Biso   1.000  H
  C43      1.0000 0.23130  0.57770  0.00100  Biso   1.000  C
  C44      1.0000 0.34760  0.71900  0.03730  Biso   1.000  C
  C45      1.0000 0.46130  0.86110  0.06790  Biso   1.000  C
  H15      1.0000 0.34390  0.74590  0.98510  Biso   1.000  H
  Mn6      1.0000 0.10400  0.48558  0.91858  Biso   1.000  Mn
  O31      1.0000 0.09280  0.35250  0.82914  Biso   1.000  O
  O32      1.0000 0.17040  0.49150  0.79396  Biso   1.000  O
  O33      1.0000 0.02760  0.38050  0.99429  Biso   1.000  O
  O34      1.0000 0.99860  0.58540  0.87660  Biso   1.000  O
  O35      1.0000 0.20820  0.48490  0.01130  Biso   1.000  O
  O36      1.0000 0.19830  0.63360  0.94650  Biso   1.000  O
  C46      1.0000 0.13530  0.40280  0.77840  Biso   1.000  C
  C47      1.0000 0.14040  0.36140  0.69270  Biso   1.000  C
  C48      1.0000 0.19410  0.41250  0.63610  Biso   1.000  C
  C49      1.0000 0.09220  0.27100  0.67060  Biso   1.000  C
  H16      1.0000 0.22440  0.47500  0.65000  Biso   1.000  H
  C50      1.0000 0.20300  0.37040  0.55860  Biso   1.000  C
  C51      1.0000 0.09680  0.23180  0.59250  Biso   1.000  C
  H17      1.0000 0.05640  0.23640  0.70840  Biso   1.000  H
  C52      1.0000 0.26870  0.42230  0.50100  Biso   1.000  C
  C53      1.0000 0.15240  0.28100  0.53730  Biso   1.000  C
  C54      1.0000 0.03870  0.13890  0.56790  Biso   1.000  C
  H18      1.0000 0.15610  0.25410  0.48510  Biso   1.000  H
  Mn7      1.0000 0.60400  0.01442  0.08142  Biso   1.000  Mn
  O37      1.0000 0.59280  0.14750  0.17086  Biso   1.000  O
  O38      1.0000 0.67040  0.00850  0.20604  Biso   1.000  O
  O39      1.0000 0.52760  0.11950  0.00571  Biso   1.000  O
  O40      1.0000 0.49860  0.91460  0.12340  Biso   1.000  O
  O41      1.0000 0.70820  0.01510  0.98870  Biso   1.000  O
  O42      1.0000 0.69830  0.86640  0.05350  Biso   1.000  O
  C55      1.0000 0.63530  0.09720  0.22160  Biso   1.000  C
  C56      1.0000 0.64040  0.13860  0.30730  Biso   1.000  C
  C57      1.0000 0.69410  0.08750  0.36390  Biso   1.000  C
  C58      1.0000 0.59220  0.22900  0.32940  Biso   1.000  C
  H19      1.0000 0.72440  0.02500  0.35000  Biso   1.000  H
  C59      1.0000 0.70300  0.12960  0.44140  Biso   1.000  C
  C60      1.0000 0.59680  0.26820  0.40750  Biso   1.000  C
  H20      1.0000 0.55640  0.26360  0.29160  Biso   1.000  H
  C61      1.0000 0.76870  0.07770  0.49900  Biso   1.000  C
  C62      1.0000 0.65240  0.21900  0.46270  Biso   1.000  C
  C63      1.0000 0.53870  0.36110  0.43210  Biso   1.000  C
  H21      1.0000 0.65610  0.24590  0.51490  Biso   1.000  H
  Mn8      1.0000 0.89600  0.98558  0.58142  Biso   1.000  Mn
  O43      1.0000 0.90720  0.85250  0.67086  Biso   1.000  O
  O44      1.0000 0.82960  0.99150  0.70604  Biso   1.000  O
  O45      1.0000 0.97240  0.88050  0.50571  Biso   1.000  O
  O46      1.0000 0.00140  0.08540  0.62340  Biso   1.000  O
  O47      1.0000 0.79180  0.98490  0.48870  Biso   1.000  O
  O48      1.0000 0.80170  0.13360  0.55350  Biso   1.000  O
  C64      1.0000 0.86470  0.90280  0.72160  Biso   1.000  C
  C65      1.0000 0.85960  0.86140  0.80730  Biso   1.000  C
  C66      1.0000 0.80590  0.91250  0.86390  Biso   1.000  C
  C67      1.0000 0.90780  0.77100  0.82940  Biso   1.000  C
  H22      1.0000 0.77560  0.97500  0.85000  Biso   1.000  H
  C68      1.0000 0.79700  0.87040  0.94140  Biso   1.000  C
  C69      1.0000 0.90320  0.73180  0.90750  Biso   1.000  C
  H23      1.0000 0.94360  0.73640  0.79160  Biso   1.000  H
  C70      1.0000 0.73130  0.92230  0.99900  Biso   1.000  C
  C71      1.0000 0.84760  0.78100  0.96270  Biso   1.000  C
  C72      1.0000 0.96130  0.63890  0.93210  Biso   1.000  C
  H24      1.0000 0.84390  0.75410  0.01490  Biso   1.000  H
