data_image0
_cell_length_a       14.1985
_cell_length_b       12.0745
_cell_length_c       16.5616
_cell_angle_alpha    90
_cell_angle_beta     90
_cell_angle_gamma    90

_symmetry_space_group_name_H-M    "P 1"
_symmetry_int_tables_number       1

loop_
  _symmetry_equiv_pos_as_xyz
  'x, y, z'

loop_
  _atom_site_label
  _atom_site_occupancy
  _atom_site_fract_x
  _atom_site_fract_y
  _atom_site_fract_z
  _atom_site_thermal_displace_type
  _atom_site_B_iso_or_equiv
  _atom_site_type_symbol
  Mn1      1.0000 0.60887  0.47342  0.56774  Biso   1.000  Mn
  O1       1.0000 0.79280  0.52410  0.96760  Biso   1.000  O
  O2       1.0000 0.79030  0.37740  0.04570  Biso   1.000  O
  O3       1.0000 0.60190  0.32250  0.65060  Biso   1.000  O
  O4       1.0000 0.49630  0.06680  0.86740  Biso   1.000  O
  C1       1.0000 0.64400  0.28160  0.95130  Biso   1.000  C
  H1       1.0000 0.64270  0.26090  0.00540  Biso   1.000  H
  O5       1.0000 0.50940  0.11900  0.99540  Biso   1.000  O
  C2       1.0000 0.76440  0.42820  0.98470  Biso   1.000  C
  C3       1.0000 0.69640  0.40460  0.84650  Biso   1.000  C
  H2       1.0000 0.72870  0.46810  0.83100  Biso   1.000  H
  C4       1.0000 0.64560  0.38040  0.70260  Biso   1.000  C
  C5       1.0000 0.69850  0.37010  0.92740  Biso   1.000  C
  C6       1.0000 0.52770  0.13130  0.92050  Biso   1.000  C
  O6       1.0000 0.68790  0.46800  0.68380  Biso   1.000  O
  C7       1.0000 0.59340  0.25410  0.81350  Biso   1.000  C
  H3       1.0000 0.55950  0.21400  0.77540  Biso   1.000  H
  C8       1.0000 0.59050  0.22270  0.89480  Biso   1.000  C
  C9       1.0000 0.64610  0.34420  0.78960  Biso   1.000  C
  Mn2      1.0000 0.89113  0.52658  0.06774  Biso   1.000  Mn
  O7       1.0000 0.70720  0.47590  0.46760  Biso   1.000  O
  O8       1.0000 0.70970  0.62260  0.54570  Biso   1.000  O
  O9       1.0000 0.89810  0.67750  0.15060  Biso   1.000  O
  O10      1.0000 0.00370  0.93320  0.36740  Biso   1.000  O
  C10      1.0000 0.85600  0.71840  0.45130  Biso   1.000  C
  H4       1.0000 0.85730  0.73910  0.50540  Biso   1.000  H
  O11      1.0000 0.99060  0.88100  0.49540  Biso   1.000  O
  C11      1.0000 0.73560  0.57180  0.48470  Biso   1.000  C
  C12      1.0000 0.80360  0.59540  0.34650  Biso   1.000  C
  H5       1.0000 0.77130  0.53190  0.33100  Biso   1.000  H
  C13      1.0000 0.85440  0.61960  0.20260  Biso   1.000  C
  C14      1.0000 0.80150  0.62990  0.42740  Biso   1.000  C
  C15      1.0000 0.97230  0.86870  0.42050  Biso   1.000  C
  O12      1.0000 0.81210  0.53200  0.18380  Biso   1.000  O
  C16      1.0000 0.90660  0.74590  0.31350  Biso   1.000  C
  H6       1.0000 0.94050  0.78600  0.27540  Biso   1.000  H
  C17      1.0000 0.90950  0.77730  0.39480  Biso   1.000  C
  C18      1.0000 0.85390  0.65580  0.28960  Biso   1.000  C
  Mn3      1.0000 0.39113  0.97342  0.93226  Biso   1.000  Mn
  O13      1.0000 0.20720  0.02410  0.53240  Biso   1.000  O
  O14      1.0000 0.20970  0.87740  0.45430  Biso   1.000  O
  O15      1.0000 0.39810  0.82250  0.84940  Biso   1.000  O
  O16      1.0000 0.50370  0.56680  0.63260  Biso   1.000  O
  C19      1.0000 0.35600  0.78160  0.54870  Biso   1.000  C
  H7       1.0000 0.35730  0.76090  0.49460  Biso   1.000  H
  O17      1.0000 0.49060  0.61900  0.50460  Biso   1.000  O
  C20      1.0000 0.23560  0.92820  0.51530  Biso   1.000  C
  C21      1.0000 0.30360  0.90460  0.65350  Biso   1.000  C
  H8       1.0000 0.27130  0.96810  0.66900  Biso   1.000  H
  C22      1.0000 0.35440  0.88040  0.79740  Biso   1.000  C
  C23      1.0000 0.30150  0.87010  0.57260  Biso   1.000  C
  C24      1.0000 0.47230  0.63130  0.57950  Biso   1.000  C
  O18      1.0000 0.31210  0.96800  0.81620  Biso   1.000  O
  C25      1.0000 0.40660  0.75410  0.68650  Biso   1.000  C
  H9       1.0000 0.44050  0.71400  0.72460  Biso   1.000  H
  C26      1.0000 0.40950  0.72270  0.60520  Biso   1.000  C
  C27      1.0000 0.35390  0.84420  0.71040  Biso   1.000  C
  Mn4      1.0000 0.10887  0.02658  0.43226  Biso   1.000  Mn
  O19      1.0000 0.29280  0.97590  0.03240  Biso   1.000  O
  O20      1.0000 0.29030  0.12260  0.95430  Biso   1.000  O
  O21      1.0000 0.10190  0.17750  0.34940  Biso   1.000  O
  O22      1.0000 0.99630  0.43320  0.13260  Biso   1.000  O
  C28      1.0000 0.14400  0.21840  0.04870  Biso   1.000  C
  H10      1.0000 0.14270  0.23910  0.99460  Biso   1.000  H
  O23      1.0000 0.00940  0.38100  0.00460  Biso   1.000  O
  C29      1.0000 0.26440  0.07180  0.01530  Biso   1.000  C
  C30      1.0000 0.19640  0.09540  0.15350  Biso   1.000  C
  H11      1.0000 0.22870  0.03190  0.16900  Biso   1.000  H
  C31      1.0000 0.14560  0.11960  0.29740  Biso   1.000  C
  C32      1.0000 0.19850  0.12990  0.07260  Biso   1.000  C
  C33      1.0000 0.02770  0.36870  0.07950  Biso   1.000  C
  O24      1.0000 0.18790  0.03200  0.31620  Biso   1.000  O
  C34      1.0000 0.09340  0.24590  0.18650  Biso   1.000  C
  H12      1.0000 0.05950  0.28600  0.22460  Biso   1.000  H
  C35      1.0000 0.09050  0.27730  0.10520  Biso   1.000  C
  C36      1.0000 0.14610  0.15580  0.21040  Biso   1.000  C
  Mn5      1.0000 0.39113  0.52658  0.43226  Biso   1.000  Mn
  O25      1.0000 0.20720  0.47590  0.03240  Biso   1.000  O
  O26      1.0000 0.20970  0.62260  0.95430  Biso   1.000  O
  O27      1.0000 0.39810  0.67750  0.34940  Biso   1.000  O
  O28      1.0000 0.50370  0.93320  0.13260  Biso   1.000  O
  C37      1.0000 0.35600  0.71840  0.04870  Biso   1.000  C
  H13      1.0000 0.35730  0.73910  0.99460  Biso   1.000  H
  O29      1.0000 0.49060  0.88100  0.00460  Biso   1.000  O
  C38      1.0000 0.23560  0.57180  0.01530  Biso   1.000  C
  C39      1.0000 0.30360  0.59540  0.15350  Biso   1.000  C
  H14      1.0000 0.27130  0.53190  0.16900  Biso   1.000  H
  C40      1.0000 0.35440  0.61960  0.29740  Biso   1.000  C
  C41      1.0000 0.30150  0.62990  0.07260  Biso   1.000  C
  C42      1.0000 0.47230  0.86870  0.07950  Biso   1.000  C
  O30      1.0000 0.31210  0.53200  0.31620  Biso   1.000  O
  C43      1.0000 0.40660  0.74590  0.18650  Biso   1.000  C
  H15      1.0000 0.44050  0.78600  0.22460  Biso   1.000  H
  C44      1.0000 0.40950  0.77730  0.10520  Biso   1.000  C
  C45      1.0000 0.35390  0.65580  0.21040  Biso   1.000  C
  Mn6      1.0000 0.10887  0.47342  0.93226  Biso   1.000  Mn
  O31      1.0000 0.29280  0.52410  0.53240  Biso   1.000  O
  O32      1.0000 0.29030  0.37740  0.45430  Biso   1.000  O
  O33      1.0000 0.10190  0.32250  0.84940  Biso   1.000  O
  O34      1.0000 0.99630  0.06680  0.63260  Biso   1.000  O
  C46      1.0000 0.14400  0.28160  0.54870  Biso   1.000  C
  H16      1.0000 0.14270  0.26090  0.49460  Biso   1.000  H
  O35      1.0000 0.00940  0.11900  0.50460  Biso   1.000  O
  C47      1.0000 0.26440  0.42820  0.51530  Biso   1.000  C
  C48      1.0000 0.19640  0.40460  0.65350  Biso   1.000  C
  H17      1.0000 0.22870  0.46810  0.66900  Biso   1.000  H
  C49      1.0000 0.14560  0.38040  0.79740  Biso   1.000  C
  C50      1.0000 0.19850  0.37010  0.57260  Biso   1.000  C
  C51      1.0000 0.02770  0.13130  0.57950  Biso   1.000  C
  O36      1.0000 0.18790  0.46800  0.81620  Biso   1.000  O
  C52      1.0000 0.09340  0.25410  0.68650  Biso   1.000  C
  H18      1.0000 0.05950  0.21400  0.72460  Biso   1.000  H
  C53      1.0000 0.09050  0.22270  0.60520  Biso   1.000  C
  C54      1.0000 0.14610  0.34420  0.71040  Biso   1.000  C
  Mn7      1.0000 0.60887  0.02658  0.06774  Biso   1.000  Mn
  O37      1.0000 0.79280  0.97590  0.46760  Biso   1.000  O
  O38      1.0000 0.79030  0.12260  0.54570  Biso   1.000  O
  O39      1.0000 0.60190  0.17750  0.15060  Biso   1.000  O
  O40      1.0000 0.49630  0.43320  0.36740  Biso   1.000  O
  C55      1.0000 0.64400  0.21840  0.45130  Biso   1.000  C
  H19      1.0000 0.64270  0.23910  0.50540  Biso   1.000  H
  O41      1.0000 0.50940  0.38100  0.49540  Biso   1.000  O
  C56      1.0000 0.76440  0.07180  0.48470  Biso   1.000  C
  C57      1.0000 0.69640  0.09540  0.34650  Biso   1.000  C
  H20      1.0000 0.72870  0.03190  0.33100  Biso   1.000  H
  C58      1.0000 0.64560  0.11960  0.20260  Biso   1.000  C
  C59      1.0000 0.69850  0.12990  0.42740  Biso   1.000  C
  C60      1.0000 0.52770  0.36870  0.42050  Biso   1.000  C
  O42      1.0000 0.68790  0.03200  0.18380  Biso   1.000  O
  C61      1.0000 0.59340  0.24590  0.31350  Biso   1.000  C
  H21      1.0000 0.55950  0.28600  0.27540  Biso   1.000  H
  C62      1.0000 0.59050  0.27730  0.39480  Biso   1.000  C
  C63      1.0000 0.64610  0.15580  0.28960  Biso   1.000  C
  Mn8      1.0000 0.89113  0.97342  0.56774  Biso   1.000  Mn
  O43      1.0000 0.70720  0.02410  0.96760  Biso   1.000  O
  O44      1.0000 0.70970  0.87740  0.04570  Biso   1.000  O
  O45      1.0000 0.89810  0.82250  0.65060  Biso   1.000  O
  O46      1.0000 0.00370  0.56680  0.86740  Biso   1.000  O
  C64      1.0000 0.85600  0.78160  0.95130  Biso   1.000  C
  H22      1.0000 0.85730  0.76090  0.00540  Biso   1.000  H
  O47      1.0000 0.99060  0.61900  0.99540  Biso   1.000  O
  C65      1.0000 0.73560  0.92820  0.98470  Biso   1.000  C
  C66      1.0000 0.80360  0.90460  0.84650  Biso   1.000  C
  H23      1.0000 0.77130  0.96810  0.83100  Biso   1.000  H
  C67      1.0000 0.85440  0.88040  0.70260  Biso   1.000  C
  C68      1.0000 0.80150  0.87010  0.92740  Biso   1.000  C
  C69      1.0000 0.97230  0.63130  0.92050  Biso   1.000  C
  O48      1.0000 0.81210  0.96800  0.68380  Biso   1.000  O
  C70      1.0000 0.90660  0.75410  0.81350  Biso   1.000  C
  H24      1.0000 0.94050  0.71400  0.77540  Biso   1.000  H
  C71      1.0000 0.90950  0.72270  0.89480  Biso   1.000  C
  C72      1.0000 0.85390  0.84420  0.78960  Biso   1.000  C
