data_image0
_cell_length_a       14.7079
_cell_length_b       12.3931
_cell_length_c       16.6458
_cell_angle_alpha    90
_cell_angle_beta     90
_cell_angle_gamma    90

_symmetry_space_group_name_H-M    "P 1"
_symmetry_int_tables_number       1

loop_
  _symmetry_equiv_pos_as_xyz
  'x, y, z'

loop_
  _atom_site_label
  _atom_site_occupancy
  _atom_site_fract_x
  _atom_site_fract_y
  _atom_site_fract_z
  _atom_site_thermal_displace_type
  _atom_site_B_iso_or_equiv
  _atom_site_type_symbol
  O1       1.0000 0.50141  0.08060  0.87398  Biso   1.000  O
  O2       1.0000 0.59520  0.34680  0.66660  Biso   1.000  O
  O3       1.0000 0.52422  0.12010  0.00315  Biso   1.000  O
  O4       1.0000 0.67410  0.48870  0.70191  Biso   1.000  O
  C1       1.0000 0.53760  0.13710  0.92910  Biso   1.000  C
  C2       1.0000 0.59320  0.26750  0.82580  Biso   1.000  C
  H1       1.0000 0.55760  0.23050  0.78700  Biso   1.000  H
  C3       1.0000 0.76870  0.42540  0.99510  Biso   1.000  C
  O5       1.0000 0.79070  0.51910  0.98469  Biso   1.000  O
  C4       1.0000 0.65280  0.28120  0.95970  Biso   1.000  C
  H2       1.0000 0.65720  0.25410  0.01300  Biso   1.000  H
  C5       1.0000 0.70300  0.37150  0.93760  Biso   1.000  C
  C6       1.0000 0.69540  0.41130  0.85990  Biso   1.000  C
  H3       1.0000 0.72710  0.47520  0.84540  Biso   1.000  H
  C7       1.0000 0.59640  0.23020  0.90470  Biso   1.000  C
  C8       1.0000 0.64240  0.35920  0.80340  Biso   1.000  C
  C9       1.0000 0.63770  0.39840  0.71750  Biso   1.000  C
  O6       1.0000 0.80170  0.36870  0.05136  Biso   1.000  O
  Mn1      1.0000 0.60497  0.48245  0.57893  Biso   1.000  Mn
  O7       1.0000 0.99859  0.91940  0.37398  Biso   1.000  O
  O8       1.0000 0.90480  0.65320  0.16660  Biso   1.000  O
  O9       1.0000 0.97578  0.87990  0.50315  Biso   1.000  O
  O10      1.0000 0.82590  0.51130  0.20191  Biso   1.000  O
  C10      1.0000 0.96240  0.86290  0.42910  Biso   1.000  C
  C11      1.0000 0.90680  0.73250  0.32580  Biso   1.000  C
  H4       1.0000 0.94240  0.76950  0.28700  Biso   1.000  H
  C12      1.0000 0.73130  0.57460  0.49510  Biso   1.000  C
  O11      1.0000 0.70930  0.48090  0.48469  Biso   1.000  O
  C13      1.0000 0.84720  0.71880  0.45970  Biso   1.000  C
  H5       1.0000 0.84280  0.74590  0.51300  Biso   1.000  H
  C14      1.0000 0.79700  0.62850  0.43760  Biso   1.000  C
  C15      1.0000 0.80460  0.58870  0.35990  Biso   1.000  C
  H6       1.0000 0.77290  0.52480  0.34540  Biso   1.000  H
  C16      1.0000 0.90360  0.76980  0.40470  Biso   1.000  C
  C17      1.0000 0.85760  0.64080  0.30340  Biso   1.000  C
  C18      1.0000 0.86230  0.60160  0.21750  Biso   1.000  C
  O12      1.0000 0.69830  0.63130  0.55136  Biso   1.000  O
  Mn2      1.0000 0.89503  0.51755  0.07893  Biso   1.000  Mn
  O13      1.0000 0.49859  0.58060  0.62602  Biso   1.000  O
  O14      1.0000 0.40480  0.84680  0.83340  Biso   1.000  O
  O15      1.0000 0.47578  0.62010  0.49685  Biso   1.000  O
  O16      1.0000 0.32590  0.98870  0.79809  Biso   1.000  O
  C19      1.0000 0.46240  0.63710  0.57090  Biso   1.000  C
  C20      1.0000 0.40680  0.76750  0.67420  Biso   1.000  C
  H7       1.0000 0.44240  0.73050  0.71300  Biso   1.000  H
  C21      1.0000 0.23130  0.92540  0.50490  Biso   1.000  C
  O17      1.0000 0.20930  0.01910  0.51531  Biso   1.000  O
  C22      1.0000 0.34720  0.78120  0.54030  Biso   1.000  C
  H8       1.0000 0.34280  0.75410  0.48700  Biso   1.000  H
  C23      1.0000 0.29700  0.87150  0.56240  Biso   1.000  C
  C24      1.0000 0.30460  0.91130  0.64010  Biso   1.000  C
  H9       1.0000 0.27290  0.97520  0.65460  Biso   1.000  H
  C25      1.0000 0.40360  0.73020  0.59530  Biso   1.000  C
  C26      1.0000 0.35760  0.85920  0.69660  Biso   1.000  C
  C27      1.0000 0.36230  0.89840  0.78250  Biso   1.000  C
  O18      1.0000 0.19830  0.86870  0.44864  Biso   1.000  O
  Mn3      1.0000 0.39503  0.98245  0.92107  Biso   1.000  Mn
  O19      1.0000 0.00141  0.41940  0.12602  Biso   1.000  O
  O20      1.0000 0.09520  0.15320  0.33340  Biso   1.000  O
  O21      1.0000 0.02422  0.37990  0.99685  Biso   1.000  O
  O22      1.0000 0.17410  0.01130  0.29809  Biso   1.000  O
  C28      1.0000 0.03760  0.36290  0.07090  Biso   1.000  C
  C29      1.0000 0.09320  0.23250  0.17420  Biso   1.000  C
  H10      1.0000 0.05760  0.26950  0.21300  Biso   1.000  H
  C30      1.0000 0.26870  0.07460  0.00490  Biso   1.000  C
  O23      1.0000 0.29070  0.98090  0.01531  Biso   1.000  O
  C31      1.0000 0.15280  0.21880  0.04030  Biso   1.000  C
  H11      1.0000 0.15720  0.24590  0.98700  Biso   1.000  H
  C32      1.0000 0.20300  0.12850  0.06240  Biso   1.000  C
  C33      1.0000 0.19540  0.08870  0.14010  Biso   1.000  C
  H12      1.0000 0.22710  0.02480  0.15460  Biso   1.000  H
  C34      1.0000 0.09640  0.26980  0.09530  Biso   1.000  C
  C35      1.0000 0.14240  0.14080  0.19660  Biso   1.000  C
  C36      1.0000 0.13770  0.10160  0.28250  Biso   1.000  C
  O24      1.0000 0.30170  0.13130  0.94864  Biso   1.000  O
  Mn4      1.0000 0.10497  0.01755  0.42107  Biso   1.000  Mn
  O25      1.0000 0.49859  0.91940  0.12602  Biso   1.000  O
  O26      1.0000 0.40480  0.65320  0.33340  Biso   1.000  O
  O27      1.0000 0.47578  0.87990  0.99685  Biso   1.000  O
  O28      1.0000 0.32590  0.51130  0.29809  Biso   1.000  O
  C37      1.0000 0.46240  0.86290  0.07090  Biso   1.000  C
  C38      1.0000 0.40680  0.73250  0.17420  Biso   1.000  C
  H13      1.0000 0.44240  0.76950  0.21300  Biso   1.000  H
  C39      1.0000 0.23130  0.57460  0.00490  Biso   1.000  C
  O29      1.0000 0.20930  0.48090  0.01531  Biso   1.000  O
  C40      1.0000 0.34720  0.71880  0.04030  Biso   1.000  C
  H14      1.0000 0.34280  0.74590  0.98700  Biso   1.000  H
  C41      1.0000 0.29700  0.62850  0.06240  Biso   1.000  C
  C42      1.0000 0.30460  0.58870  0.14010  Biso   1.000  C
  H15      1.0000 0.27290  0.52480  0.15460  Biso   1.000  H
  C43      1.0000 0.40360  0.76980  0.09530  Biso   1.000  C
  C44      1.0000 0.35760  0.64080  0.19660  Biso   1.000  C
  C45      1.0000 0.36230  0.60160  0.28250  Biso   1.000  C
  O30      1.0000 0.19830  0.63130  0.94864  Biso   1.000  O
  Mn5      1.0000 0.39503  0.51755  0.42107  Biso   1.000  Mn
  O31      1.0000 0.00141  0.08060  0.62602  Biso   1.000  O
  O32      1.0000 0.09520  0.34680  0.83340  Biso   1.000  O
  O33      1.0000 0.02422  0.12010  0.49685  Biso   1.000  O
  O34      1.0000 0.17410  0.48870  0.79809  Biso   1.000  O
  C46      1.0000 0.03760  0.13710  0.57090  Biso   1.000  C
  C47      1.0000 0.09320  0.26750  0.67420  Biso   1.000  C
  H16      1.0000 0.05760  0.23050  0.71300  Biso   1.000  H
  C48      1.0000 0.26870  0.42540  0.50490  Biso   1.000  C
  O35      1.0000 0.29070  0.51910  0.51531  Biso   1.000  O
  C49      1.0000 0.15280  0.28120  0.54030  Biso   1.000  C
  H17      1.0000 0.15720  0.25410  0.48700  Biso   1.000  H
  C50      1.0000 0.20300  0.37150  0.56240  Biso   1.000  C
  C51      1.0000 0.19540  0.41130  0.64010  Biso   1.000  C
  H18      1.0000 0.22710  0.47520  0.65460  Biso   1.000  H
  C52      1.0000 0.09640  0.23020  0.59530  Biso   1.000  C
  C53      1.0000 0.14240  0.35920  0.69660  Biso   1.000  C
  C54      1.0000 0.13770  0.39840  0.78250  Biso   1.000  C
  O36      1.0000 0.30170  0.36870  0.44864  Biso   1.000  O
  Mn6      1.0000 0.10497  0.48245  0.92107  Biso   1.000  Mn
  O37      1.0000 0.50141  0.41940  0.37398  Biso   1.000  O
  O38      1.0000 0.59520  0.15320  0.16660  Biso   1.000  O
  O39      1.0000 0.52422  0.37990  0.50315  Biso   1.000  O
  O40      1.0000 0.67410  0.01130  0.20191  Biso   1.000  O
  C55      1.0000 0.53760  0.36290  0.42910  Biso   1.000  C
  C56      1.0000 0.59320  0.23250  0.32580  Biso   1.000  C
  H19      1.0000 0.55760  0.26950  0.28700  Biso   1.000  H
  C57      1.0000 0.76870  0.07460  0.49510  Biso   1.000  C
  O41      1.0000 0.79070  0.98090  0.48469  Biso   1.000  O
  C58      1.0000 0.65280  0.21880  0.45970  Biso   1.000  C
  H20      1.0000 0.65720  0.24590  0.51300  Biso   1.000  H
  C59      1.0000 0.70300  0.12850  0.43760  Biso   1.000  C
  C60      1.0000 0.69540  0.08870  0.35990  Biso   1.000  C
  H21      1.0000 0.72710  0.02480  0.34540  Biso   1.000  H
  C61      1.0000 0.59640  0.26980  0.40470  Biso   1.000  C
  C62      1.0000 0.64240  0.14080  0.30340  Biso   1.000  C
  C63      1.0000 0.63770  0.10160  0.21750  Biso   1.000  C
  O42      1.0000 0.80170  0.13130  0.55136  Biso   1.000  O
  Mn7      1.0000 0.60497  0.01755  0.07893  Biso   1.000  Mn
  O43      1.0000 0.99859  0.58060  0.87398  Biso   1.000  O
  O44      1.0000 0.90480  0.84680  0.66660  Biso   1.000  O
  O45      1.0000 0.97578  0.62010  0.00315  Biso   1.000  O
  O46      1.0000 0.82590  0.98870  0.70191  Biso   1.000  O
  C64      1.0000 0.96240  0.63710  0.92910  Biso   1.000  C
  C65      1.0000 0.90680  0.76750  0.82580  Biso   1.000  C
  H22      1.0000 0.94240  0.73050  0.78700  Biso   1.000  H
  C66      1.0000 0.73130  0.92540  0.99510  Biso   1.000  C
  O47      1.0000 0.70930  0.01910  0.98469  Biso   1.000  O
  C67      1.0000 0.84720  0.78120  0.95970  Biso   1.000  C
  H23      1.0000 0.84280  0.75410  0.01300  Biso   1.000  H
  C68      1.0000 0.79700  0.87150  0.93760  Biso   1.000  C
  C69      1.0000 0.80460  0.91130  0.85990  Biso   1.000  C
  H24      1.0000 0.77290  0.97520  0.84540  Biso   1.000  H
  C70      1.0000 0.90360  0.73020  0.90470  Biso   1.000  C
  C71      1.0000 0.85760  0.85920  0.80340  Biso   1.000  C
  C72      1.0000 0.86230  0.89840  0.71750  Biso   1.000  C
  O48      1.0000 0.69830  0.86870  0.05136  Biso   1.000  O
  Mn8      1.0000 0.89503  0.98245  0.57893  Biso   1.000  Mn
