data_image0
_cell_length_a       14.6452
_cell_length_b       12.3672
_cell_length_c       16.6648
_cell_angle_alpha    90
_cell_angle_beta     90
_cell_angle_gamma    90

_symmetry_space_group_name_H-M    "P 1"
_symmetry_int_tables_number       1

loop_
  _symmetry_equiv_pos_as_xyz
  'x, y, z'

loop_
  _atom_site_label
  _atom_site_occupancy
  _atom_site_fract_x
  _atom_site_fract_y
  _atom_site_fract_z
  _atom_site_thermal_displace_type
  _atom_site_B_iso_or_equiv
  _atom_site_type_symbol
  O1       1.0000 0.67534  0.48793  0.70085  Biso   1.000  O
  O2       1.0000 0.79050  0.52091  0.98389  Biso   1.000  O
  O3       1.0000 0.59521  0.34538  0.66611  Biso   1.000  O
  O4       1.0000 0.80125  0.36977  0.05109  Biso   1.000  O
  C1       1.0000 0.76860  0.42630  0.99452  Biso   1.000  C
  C2       1.0000 0.63842  0.39760  0.71656  Biso   1.000  C
  C3       1.0000 0.64270  0.35820  0.80239  Biso   1.000  C
  O5       1.0000 0.50136  0.07963  0.87377  Biso   1.000  O
  Mn1      1.0000 0.60517  0.48140  0.57834  Biso   1.000  Mn
  C4       1.0000 0.53700  0.13660  0.92869  Biso   1.000  C
  C5       1.0000 0.65220  0.28160  0.95925  Biso   1.000  C
  H1       1.0000 0.65580  0.25540  0.01270  Biso   1.000  H
  C6       1.0000 0.59630  0.22970  0.90395  Biso   1.000  C
  C7       1.0000 0.70300  0.37190  0.93676  Biso   1.000  C
  C8       1.0000 0.59330  0.26700  0.82546  Biso   1.000  C
  H2       1.0000 0.55710  0.22990  0.78700  Biso   1.000  H
  C9       1.0000 0.69590  0.41190  0.85911  Biso   1.000  C
  H3       1.0000 0.72740  0.47610  0.84460  Biso   1.000  H
  O6       1.0000 0.52298  0.12024  0.00259  Biso   1.000  O
  O7       1.0000 0.82466  0.51207  0.20085  Biso   1.000  O
  O8       1.0000 0.70950  0.47909  0.48389  Biso   1.000  O
  O9       1.0000 0.90479  0.65462  0.16611  Biso   1.000  O
  O10      1.0000 0.69875  0.63023  0.55109  Biso   1.000  O
  C10      1.0000 0.73140  0.57370  0.49452  Biso   1.000  C
  C11      1.0000 0.86158  0.60240  0.21656  Biso   1.000  C
  C12      1.0000 0.85730  0.64180  0.30239  Biso   1.000  C
  O11      1.0000 0.99864  0.92037  0.37377  Biso   1.000  O
  Mn2      1.0000 0.89483  0.51860  0.07834  Biso   1.000  Mn
  C13      1.0000 0.96300  0.86340  0.42869  Biso   1.000  C
  C14      1.0000 0.84780  0.71840  0.45925  Biso   1.000  C
  H4       1.0000 0.84420  0.74460  0.51270  Biso   1.000  H
  C15      1.0000 0.90370  0.77030  0.40395  Biso   1.000  C
  C16      1.0000 0.79700  0.62810  0.43676  Biso   1.000  C
  C17      1.0000 0.90670  0.73300  0.32546  Biso   1.000  C
  H5       1.0000 0.94290  0.77010  0.28700  Biso   1.000  H
  C18      1.0000 0.80410  0.58810  0.35911  Biso   1.000  C
  H6       1.0000 0.77260  0.52390  0.34460  Biso   1.000  H
  O12      1.0000 0.97702  0.87976  0.50259  Biso   1.000  O
  O13      1.0000 0.32466  0.98793  0.79915  Biso   1.000  O
  O14      1.0000 0.20950  0.02091  0.51611  Biso   1.000  O
  O15      1.0000 0.40479  0.84538  0.83389  Biso   1.000  O
  O16      1.0000 0.19875  0.86977  0.44891  Biso   1.000  O
  C19      1.0000 0.23140  0.92630  0.50548  Biso   1.000  C
  C20      1.0000 0.36158  0.89760  0.78344  Biso   1.000  C
  C21      1.0000 0.35730  0.85820  0.69761  Biso   1.000  C
  O17      1.0000 0.49864  0.57963  0.62623  Biso   1.000  O
  Mn3      1.0000 0.39483  0.98140  0.92166  Biso   1.000  Mn
  C22      1.0000 0.46300  0.63660  0.57131  Biso   1.000  C
  C23      1.0000 0.34780  0.78160  0.54075  Biso   1.000  C
  H7       1.0000 0.34420  0.75540  0.48730  Biso   1.000  H
  C24      1.0000 0.40370  0.72970  0.59605  Biso   1.000  C
  C25      1.0000 0.29700  0.87190  0.56324  Biso   1.000  C
  C26      1.0000 0.40670  0.76700  0.67454  Biso   1.000  C
  H8       1.0000 0.44290  0.72990  0.71300  Biso   1.000  H
  C27      1.0000 0.30410  0.91190  0.64089  Biso   1.000  C
  H9       1.0000 0.27260  0.97610  0.65540  Biso   1.000  H
  O18      1.0000 0.47702  0.62024  0.49741  Biso   1.000  O
  O19      1.0000 0.17534  0.01207  0.29915  Biso   1.000  O
  O20      1.0000 0.29050  0.97909  0.01611  Biso   1.000  O
  O21      1.0000 0.09521  0.15462  0.33389  Biso   1.000  O
  O22      1.0000 0.30125  0.13023  0.94891  Biso   1.000  O
  C28      1.0000 0.26860  0.07370  0.00548  Biso   1.000  C
  C29      1.0000 0.13842  0.10240  0.28344  Biso   1.000  C
  C30      1.0000 0.14270  0.14180  0.19761  Biso   1.000  C
  O23      1.0000 0.00136  0.42037  0.12623  Biso   1.000  O
  Mn4      1.0000 0.10517  0.01860  0.42166  Biso   1.000  Mn
  C31      1.0000 0.03700  0.36340  0.07131  Biso   1.000  C
  C32      1.0000 0.15220  0.21840  0.04075  Biso   1.000  C
  H10      1.0000 0.15580  0.24460  0.98730  Biso   1.000  H
  C33      1.0000 0.09630  0.27030  0.09605  Biso   1.000  C
  C34      1.0000 0.20300  0.12810  0.06324  Biso   1.000  C
  C35      1.0000 0.09330  0.23300  0.17454  Biso   1.000  C
  H11      1.0000 0.05710  0.27010  0.21300  Biso   1.000  H
  C36      1.0000 0.19590  0.08810  0.14089  Biso   1.000  C
  H12      1.0000 0.22740  0.02390  0.15540  Biso   1.000  H
  O24      1.0000 0.02298  0.37976  0.99741  Biso   1.000  O
  O25      1.0000 0.32466  0.51207  0.29915  Biso   1.000  O
  O26      1.0000 0.20950  0.47909  0.01611  Biso   1.000  O
  O27      1.0000 0.40479  0.65462  0.33389  Biso   1.000  O
  O28      1.0000 0.19875  0.63023  0.94891  Biso   1.000  O
  C37      1.0000 0.23140  0.57370  0.00548  Biso   1.000  C
  C38      1.0000 0.36158  0.60240  0.28344  Biso   1.000  C
  C39      1.0000 0.35730  0.64180  0.19761  Biso   1.000  C
  O29      1.0000 0.49864  0.92037  0.12623  Biso   1.000  O
  Mn5      1.0000 0.39483  0.51860  0.42166  Biso   1.000  Mn
  C40      1.0000 0.46300  0.86340  0.07131  Biso   1.000  C
  C41      1.0000 0.34780  0.71840  0.04075  Biso   1.000  C
  H13      1.0000 0.34420  0.74460  0.98730  Biso   1.000  H
  C42      1.0000 0.40370  0.77030  0.09605  Biso   1.000  C
  C43      1.0000 0.29700  0.62810  0.06324  Biso   1.000  C
  C44      1.0000 0.40670  0.73300  0.17454  Biso   1.000  C
  H14      1.0000 0.44290  0.77010  0.21300  Biso   1.000  H
  C45      1.0000 0.30410  0.58810  0.14089  Biso   1.000  C
  H15      1.0000 0.27260  0.52390  0.15540  Biso   1.000  H
  O30      1.0000 0.47702  0.87976  0.99741  Biso   1.000  O
  O31      1.0000 0.17534  0.48793  0.79915  Biso   1.000  O
  O32      1.0000 0.29050  0.52091  0.51611  Biso   1.000  O
  O33      1.0000 0.09521  0.34538  0.83389  Biso   1.000  O
  O34      1.0000 0.30125  0.36977  0.44891  Biso   1.000  O
  C46      1.0000 0.26860  0.42630  0.50548  Biso   1.000  C
  C47      1.0000 0.13842  0.39760  0.78344  Biso   1.000  C
  C48      1.0000 0.14270  0.35820  0.69761  Biso   1.000  C
  O35      1.0000 0.00136  0.07963  0.62623  Biso   1.000  O
  Mn6      1.0000 0.10517  0.48140  0.92166  Biso   1.000  Mn
  C49      1.0000 0.03700  0.13660  0.57131  Biso   1.000  C
  C50      1.0000 0.15220  0.28160  0.54075  Biso   1.000  C
  H16      1.0000 0.15580  0.25540  0.48730  Biso   1.000  H
  C51      1.0000 0.09630  0.22970  0.59605  Biso   1.000  C
  C52      1.0000 0.20300  0.37190  0.56324  Biso   1.000  C
  C53      1.0000 0.09330  0.26700  0.67454  Biso   1.000  C
  H17      1.0000 0.05710  0.22990  0.71300  Biso   1.000  H
  C54      1.0000 0.19590  0.41190  0.64089  Biso   1.000  C
  H18      1.0000 0.22740  0.47610  0.65540  Biso   1.000  H
  O36      1.0000 0.02298  0.12024  0.49741  Biso   1.000  O
  O37      1.0000 0.67534  0.01207  0.20085  Biso   1.000  O
  O38      1.0000 0.79050  0.97909  0.48389  Biso   1.000  O
  O39      1.0000 0.59521  0.15462  0.16611  Biso   1.000  O
  O40      1.0000 0.80125  0.13023  0.55109  Biso   1.000  O
  C55      1.0000 0.76860  0.07370  0.49452  Biso   1.000  C
  C56      1.0000 0.63842  0.10240  0.21656  Biso   1.000  C
  C57      1.0000 0.64270  0.14180  0.30239  Biso   1.000  C
  O41      1.0000 0.50136  0.42037  0.37377  Biso   1.000  O
  Mn7      1.0000 0.60517  0.01860  0.07834  Biso   1.000  Mn
  C58      1.0000 0.53700  0.36340  0.42869  Biso   1.000  C
  C59      1.0000 0.65220  0.21840  0.45925  Biso   1.000  C
  H19      1.0000 0.65580  0.24460  0.51270  Biso   1.000  H
  C60      1.0000 0.59630  0.27030  0.40395  Biso   1.000  C
  C61      1.0000 0.70300  0.12810  0.43676  Biso   1.000  C
  C62      1.0000 0.59330  0.23300  0.32546  Biso   1.000  C
  H20      1.0000 0.55710  0.27010  0.28700  Biso   1.000  H
  C63      1.0000 0.69590  0.08810  0.35911  Biso   1.000  C
  H21      1.0000 0.72740  0.02390  0.34460  Biso   1.000  H
  O42      1.0000 0.52298  0.37976  0.50259  Biso   1.000  O
  O43      1.0000 0.82466  0.98793  0.70085  Biso   1.000  O
  O44      1.0000 0.70950  0.02091  0.98389  Biso   1.000  O
  O45      1.0000 0.90479  0.84538  0.66611  Biso   1.000  O
  O46      1.0000 0.69875  0.86977  0.05109  Biso   1.000  O
  C64      1.0000 0.73140  0.92630  0.99452  Biso   1.000  C
  C65      1.0000 0.86158  0.89760  0.71656  Biso   1.000  C
  C66      1.0000 0.85730  0.85820  0.80239  Biso   1.000  C
  O47      1.0000 0.99864  0.57963  0.87377  Biso   1.000  O
  Mn8      1.0000 0.89483  0.98140  0.57834  Biso   1.000  Mn
  C67      1.0000 0.96300  0.63660  0.92869  Biso   1.000  C
  C68      1.0000 0.84780  0.78160  0.95925  Biso   1.000  C
  H22      1.0000 0.84420  0.75540  0.01270  Biso   1.000  H
  C69      1.0000 0.90370  0.72970  0.90395  Biso   1.000  C
  C70      1.0000 0.79700  0.87190  0.93676  Biso   1.000  C
  C71      1.0000 0.90670  0.76700  0.82546  Biso   1.000  C
  H23      1.0000 0.94290  0.72990  0.78700  Biso   1.000  H
  C72      1.0000 0.80410  0.91190  0.85911  Biso   1.000  C
  H24      1.0000 0.77260  0.97610  0.84460  Biso   1.000  H
  O48      1.0000 0.97702  0.62024  0.00259  Biso   1.000  O
