data_image0
_cell_length_a       14.796
_cell_length_b       12.4275
_cell_length_c       16.6266
_cell_angle_alpha    90
_cell_angle_beta     90
_cell_angle_gamma    90

_symmetry_space_group_name_H-M    "P 1"
_symmetry_int_tables_number       1

loop_
  _symmetry_equiv_pos_as_xyz
  'x, y, z'

loop_
  _atom_site_label
  _atom_site_occupancy
  _atom_site_fract_x
  _atom_site_fract_y
  _atom_site_fract_z
  _atom_site_thermal_displace_type
  _atom_site_B_iso_or_equiv
  _atom_site_type_symbol
  O1       1.0000 0.52558  0.11980  0.00406  Biso   1.000  O
  O2       1.0000 0.50140  0.08250  0.87482  Biso   1.000  O
  C1       1.0000 0.76910  0.42360  0.99670  Biso   1.000  C
  O3       1.0000 0.59450  0.34920  0.66820  Biso   1.000  O
  C2       1.0000 0.59640  0.23020  0.90550  Biso   1.000  C
  C3       1.0000 0.59330  0.26930  0.82700  Biso   1.000  C
  H1       1.0000 0.55720  0.23310  0.78820  Biso   1.000  H
  C4       1.0000 0.63690  0.40050  0.71910  Biso   1.000  C
  O4       1.0000 0.67250  0.48990  0.70368  Biso   1.000  O
  C5       1.0000 0.70350  0.37060  0.93880  Biso   1.000  C
  C6       1.0000 0.65260  0.28070  0.96100  Biso   1.000  C
  H2       1.0000 0.65640  0.25380  0.01440  Biso   1.000  H
  C7       1.0000 0.64180  0.36010  0.80420  Biso   1.000  C
  C8       1.0000 0.69510  0.41150  0.86110  Biso   1.000  C
  H3       1.0000 0.72620  0.47560  0.84690  Biso   1.000  H
  C9       1.0000 0.53800  0.13750  0.92980  Biso   1.000  C
  O5       1.0000 0.79110  0.51720  0.98600  Biso   1.000  O
  O6       1.0000 0.80160  0.36740  0.05218  Biso   1.000  O
  Mn1      1.0000 0.60452  0.48381  0.57981  Biso   1.000  Mn
  O7       1.0000 0.97442  0.88020  0.50406  Biso   1.000  O
  O8       1.0000 0.99860  0.91750  0.37482  Biso   1.000  O
  C10      1.0000 0.73090  0.57640  0.49670  Biso   1.000  C
  O9       1.0000 0.90550  0.65080  0.16820  Biso   1.000  O
  C11      1.0000 0.90360  0.76980  0.40550  Biso   1.000  C
  C12      1.0000 0.90670  0.73070  0.32700  Biso   1.000  C
  H4       1.0000 0.94280  0.76690  0.28820  Biso   1.000  H
  C13      1.0000 0.86310  0.59950  0.21910  Biso   1.000  C
  O10      1.0000 0.82750  0.51010  0.20368  Biso   1.000  O
  C14      1.0000 0.79650  0.62940  0.43880  Biso   1.000  C
  C15      1.0000 0.84740  0.71930  0.46100  Biso   1.000  C
  H5       1.0000 0.84360  0.74620  0.51440  Biso   1.000  H
  C16      1.0000 0.85820  0.63990  0.30420  Biso   1.000  C
  C17      1.0000 0.80490  0.58850  0.36110  Biso   1.000  C
  H6       1.0000 0.77380  0.52440  0.34690  Biso   1.000  H
  C18      1.0000 0.96200  0.86250  0.42980  Biso   1.000  C
  O11      1.0000 0.70890  0.48280  0.48600  Biso   1.000  O
  O12      1.0000 0.69840  0.63260  0.55218  Biso   1.000  O
  Mn2      1.0000 0.89548  0.51619  0.07981  Biso   1.000  Mn
  O13      1.0000 0.47442  0.61980  0.49594  Biso   1.000  O
  O14      1.0000 0.49860  0.58250  0.62518  Biso   1.000  O
  C19      1.0000 0.23090  0.92360  0.50330  Biso   1.000  C
  O15      1.0000 0.40550  0.84920  0.83180  Biso   1.000  O
  C20      1.0000 0.40360  0.73020  0.59450  Biso   1.000  C
  C21      1.0000 0.40670  0.76930  0.67300  Biso   1.000  C
  H7       1.0000 0.44280  0.73310  0.71180  Biso   1.000  H
  C22      1.0000 0.36310  0.90050  0.78090  Biso   1.000  C
  O16      1.0000 0.32750  0.98990  0.79632  Biso   1.000  O
  C23      1.0000 0.29650  0.87060  0.56120  Biso   1.000  C
  C24      1.0000 0.34740  0.78070  0.53900  Biso   1.000  C
  H8       1.0000 0.34360  0.75380  0.48560  Biso   1.000  H
  C25      1.0000 0.35820  0.86010  0.69580  Biso   1.000  C
  C26      1.0000 0.30490  0.91150  0.63890  Biso   1.000  C
  H9       1.0000 0.27380  0.97560  0.65310  Biso   1.000  H
  C27      1.0000 0.46200  0.63750  0.57020  Biso   1.000  C
  O17      1.0000 0.20890  0.01720  0.51400  Biso   1.000  O
  O18      1.0000 0.19840  0.86740  0.44782  Biso   1.000  O
  Mn3      1.0000 0.39548  0.98381  0.92019  Biso   1.000  Mn
  O19      1.0000 0.02558  0.38020  0.99594  Biso   1.000  O
  O20      1.0000 0.00140  0.41750  0.12518  Biso   1.000  O
  C28      1.0000 0.26910  0.07640  0.00330  Biso   1.000  C
  O21      1.0000 0.09450  0.15080  0.33180  Biso   1.000  O
  C29      1.0000 0.09640  0.26980  0.09450  Biso   1.000  C
  C30      1.0000 0.09330  0.23070  0.17300  Biso   1.000  C
  H10      1.0000 0.05720  0.26690  0.21180  Biso   1.000  H
  C31      1.0000 0.13690  0.09950  0.28090  Biso   1.000  C
  O22      1.0000 0.17250  0.01010  0.29632  Biso   1.000  O
  C32      1.0000 0.20350  0.12940  0.06120  Biso   1.000  C
  C33      1.0000 0.15260  0.21930  0.03900  Biso   1.000  C
  H11      1.0000 0.15640  0.24620  0.98560  Biso   1.000  H
  C34      1.0000 0.14180  0.13990  0.19580  Biso   1.000  C
  C35      1.0000 0.19510  0.08850  0.13890  Biso   1.000  C
  H12      1.0000 0.22620  0.02440  0.15310  Biso   1.000  H
  C36      1.0000 0.03800  0.36250  0.07020  Biso   1.000  C
  O23      1.0000 0.29110  0.98280  0.01400  Biso   1.000  O
  O24      1.0000 0.30160  0.13260  0.94782  Biso   1.000  O
  Mn4      1.0000 0.10452  0.01619  0.42019  Biso   1.000  Mn
  O25      1.0000 0.47442  0.88020  0.99594  Biso   1.000  O
  O26      1.0000 0.49860  0.91750  0.12518  Biso   1.000  O
  C37      1.0000 0.23090  0.57640  0.00330  Biso   1.000  C
  O27      1.0000 0.40550  0.65080  0.33180  Biso   1.000  O
  C38      1.0000 0.40360  0.76980  0.09450  Biso   1.000  C
  C39      1.0000 0.40670  0.73070  0.17300  Biso   1.000  C
  H13      1.0000 0.44280  0.76690  0.21180  Biso   1.000  H
  C40      1.0000 0.36310  0.59950  0.28090  Biso   1.000  C
  O28      1.0000 0.32750  0.51010  0.29632  Biso   1.000  O
  C41      1.0000 0.29650  0.62940  0.06120  Biso   1.000  C
  C42      1.0000 0.34740  0.71930  0.03900  Biso   1.000  C
  H14      1.0000 0.34360  0.74620  0.98560  Biso   1.000  H
  C43      1.0000 0.35820  0.63990  0.19580  Biso   1.000  C
  C44      1.0000 0.30490  0.58850  0.13890  Biso   1.000  C
  H15      1.0000 0.27380  0.52440  0.15310  Biso   1.000  H
  C45      1.0000 0.46200  0.86250  0.07020  Biso   1.000  C
  O29      1.0000 0.20890  0.48280  0.01400  Biso   1.000  O
  O30      1.0000 0.19840  0.63260  0.94782  Biso   1.000  O
  Mn5      1.0000 0.39548  0.51619  0.42019  Biso   1.000  Mn
  O31      1.0000 0.02558  0.11980  0.49594  Biso   1.000  O
  O32      1.0000 0.00140  0.08250  0.62518  Biso   1.000  O
  C46      1.0000 0.26910  0.42360  0.50330  Biso   1.000  C
  O33      1.0000 0.09450  0.34920  0.83180  Biso   1.000  O
  C47      1.0000 0.09640  0.23020  0.59450  Biso   1.000  C
  C48      1.0000 0.09330  0.26930  0.67300  Biso   1.000  C
  H16      1.0000 0.05720  0.23310  0.71180  Biso   1.000  H
  C49      1.0000 0.13690  0.40050  0.78090  Biso   1.000  C
  O34      1.0000 0.17250  0.48990  0.79632  Biso   1.000  O
  C50      1.0000 0.20350  0.37060  0.56120  Biso   1.000  C
  C51      1.0000 0.15260  0.28070  0.53900  Biso   1.000  C
  H17      1.0000 0.15640  0.25380  0.48560  Biso   1.000  H
  C52      1.0000 0.14180  0.36010  0.69580  Biso   1.000  C
  C53      1.0000 0.19510  0.41150  0.63890  Biso   1.000  C
  H18      1.0000 0.22620  0.47560  0.65310  Biso   1.000  H
  C54      1.0000 0.03800  0.13750  0.57020  Biso   1.000  C
  O35      1.0000 0.29110  0.51720  0.51400  Biso   1.000  O
  O36      1.0000 0.30160  0.36740  0.44782  Biso   1.000  O
  Mn6      1.0000 0.10452  0.48381  0.92019  Biso   1.000  Mn
  O37      1.0000 0.52558  0.38020  0.50406  Biso   1.000  O
  O38      1.0000 0.50140  0.41750  0.37482  Biso   1.000  O
  C55      1.0000 0.76910  0.07640  0.49670  Biso   1.000  C
  O39      1.0000 0.59450  0.15080  0.16820  Biso   1.000  O
  C56      1.0000 0.59640  0.26980  0.40550  Biso   1.000  C
  C57      1.0000 0.59330  0.23070  0.32700  Biso   1.000  C
  H19      1.0000 0.55720  0.26690  0.28820  Biso   1.000  H
  C58      1.0000 0.63690  0.09950  0.21910  Biso   1.000  C
  O40      1.0000 0.67250  0.01010  0.20368  Biso   1.000  O
  C59      1.0000 0.70350  0.12940  0.43880  Biso   1.000  C
  C60      1.0000 0.65260  0.21930  0.46100  Biso   1.000  C
  H20      1.0000 0.65640  0.24620  0.51440  Biso   1.000  H
  C61      1.0000 0.64180  0.13990  0.30420  Biso   1.000  C
  C62      1.0000 0.69510  0.08850  0.36110  Biso   1.000  C
  H21      1.0000 0.72620  0.02440  0.34690  Biso   1.000  H
  C63      1.0000 0.53800  0.36250  0.42980  Biso   1.000  C
  O41      1.0000 0.79110  0.98280  0.48600  Biso   1.000  O
  O42      1.0000 0.80160  0.13260  0.55218  Biso   1.000  O
  Mn7      1.0000 0.60452  0.01619  0.07981  Biso   1.000  Mn
  O43      1.0000 0.97442  0.61980  0.00406  Biso   1.000  O
  O44      1.0000 0.99860  0.58250  0.87482  Biso   1.000  O
  C64      1.0000 0.73090  0.92360  0.99670  Biso   1.000  C
  O45      1.0000 0.90550  0.84920  0.66820  Biso   1.000  O
  C65      1.0000 0.90360  0.73020  0.90550  Biso   1.000  C
  C66      1.0000 0.90670  0.76930  0.82700  Biso   1.000  C
  H22      1.0000 0.94280  0.73310  0.78820  Biso   1.000  H
  C67      1.0000 0.86310  0.90050  0.71910  Biso   1.000  C
  O46      1.0000 0.82750  0.98990  0.70368  Biso   1.000  O
  C68      1.0000 0.79650  0.87060  0.93880  Biso   1.000  C
  C69      1.0000 0.84740  0.78070  0.96100  Biso   1.000  C
  H23      1.0000 0.84360  0.75380  0.01440  Biso   1.000  H
  C70      1.0000 0.85820  0.86010  0.80420  Biso   1.000  C
  C71      1.0000 0.80490  0.91150  0.86110  Biso   1.000  C
  H24      1.0000 0.77380  0.97560  0.84690  Biso   1.000  H
  C72      1.0000 0.96200  0.63750  0.92980  Biso   1.000  C
  O47      1.0000 0.70890  0.01720  0.98600  Biso   1.000  O
  O48      1.0000 0.69840  0.86740  0.05218  Biso   1.000  O
  Mn8      1.0000 0.89548  0.98381  0.57981  Biso   1.000  Mn
