data_image0
_cell_length_a       14.15
_cell_length_b       11.86
_cell_length_c       16.574
_cell_angle_alpha    90
_cell_angle_beta     90
_cell_angle_gamma    90

_symmetry_space_group_name_H-M    "P 1"
_symmetry_int_tables_number       1

loop_
  _symmetry_equiv_pos_as_xyz
  'x, y, z'

loop_
  _atom_site_label
  _atom_site_occupancy
  _atom_site_fract_x
  _atom_site_fract_y
  _atom_site_fract_z
  _atom_site_thermal_displace_type
  _atom_site_B_iso_or_equiv
  _atom_site_type_symbol
  Mn1      1.0000 0.61009  0.47072  0.56353  Biso   1.000  Mn
  O1       1.0000 0.79670  0.52360  0.96010  Biso   1.000  O
  O2       1.0000 0.78770  0.37840  0.04200  Biso   1.000  O
  O3       1.0000 0.60360  0.31370  0.64520  Biso   1.000  O
  O4       1.0000 0.49180  0.06230  0.86450  Biso   1.000  O
  C1       1.0000 0.64220  0.28160  0.94730  Biso   1.000  C
  H1       1.0000 0.64100  0.26160  0.00150  Biso   1.000  H
  O5       1.0000 0.50450  0.11930  0.99330  Biso   1.000  O
  C2       1.0000 0.76300  0.42840  0.97910  Biso   1.000  C
  C3       1.0000 0.69850  0.40190  0.84050  Biso   1.000  C
  H2       1.0000 0.73320  0.46430  0.82390  Biso   1.000  H
  C4       1.0000 0.64860  0.37230  0.69450  Biso   1.000  C
  C5       1.0000 0.69810  0.37060  0.92140  Biso   1.000  C
  C6       1.0000 0.52510  0.13010  0.91800  Biso   1.000  C
  O6       1.0000 0.69320  0.45970  0.67550  Biso   1.000  O
  C7       1.0000 0.59250  0.24850  0.80900  Biso   1.000  C
  H3       1.0000 0.55960  0.20530  0.77150  Biso   1.000  H
  C8       1.0000 0.58790  0.22240  0.89180  Biso   1.000  C
  C9       1.0000 0.64670  0.33940  0.78430  Biso   1.000  C
  Mn2      1.0000 0.88991  0.52928  0.06353  Biso   1.000  Mn
  O7       1.0000 0.70330  0.47640  0.46010  Biso   1.000  O
  O8       1.0000 0.71230  0.62160  0.54200  Biso   1.000  O
  O9       1.0000 0.89640  0.68630  0.14520  Biso   1.000  O
  O10      1.0000 0.00820  0.93770  0.36450  Biso   1.000  O
  C10      1.0000 0.85780  0.71840  0.44730  Biso   1.000  C
  H4       1.0000 0.85900  0.73840  0.50150  Biso   1.000  H
  O11      1.0000 0.99550  0.88070  0.49330  Biso   1.000  O
  C11      1.0000 0.73700  0.57160  0.47910  Biso   1.000  C
  C12      1.0000 0.80150  0.59810  0.34050  Biso   1.000  C
  H5       1.0000 0.76680  0.53570  0.32390  Biso   1.000  H
  C13      1.0000 0.85140  0.62770  0.19450  Biso   1.000  C
  C14      1.0000 0.80190  0.62940  0.42140  Biso   1.000  C
  C15      1.0000 0.97490  0.86990  0.41800  Biso   1.000  C
  O12      1.0000 0.80680  0.54030  0.17550  Biso   1.000  O
  C16      1.0000 0.90750  0.75150  0.30900  Biso   1.000  C
  H6       1.0000 0.94040  0.79470  0.27150  Biso   1.000  H
  C17      1.0000 0.91210  0.77760  0.39180  Biso   1.000  C
  C18      1.0000 0.85330  0.66060  0.28430  Biso   1.000  C
  Mn3      1.0000 0.38991  0.97072  0.93647  Biso   1.000  Mn
  O13      1.0000 0.20330  0.02360  0.53990  Biso   1.000  O
  O14      1.0000 0.21230  0.87840  0.45800  Biso   1.000  O
  O15      1.0000 0.39640  0.81370  0.85480  Biso   1.000  O
  O16      1.0000 0.50820  0.56230  0.63550  Biso   1.000  O
  C19      1.0000 0.35780  0.78160  0.55270  Biso   1.000  C
  H7       1.0000 0.35900  0.76160  0.49850  Biso   1.000  H
  O17      1.0000 0.49550  0.61930  0.50670  Biso   1.000  O
  C20      1.0000 0.23700  0.92840  0.52090  Biso   1.000  C
  C21      1.0000 0.30150  0.90190  0.65950  Biso   1.000  C
  H8       1.0000 0.26680  0.96430  0.67610  Biso   1.000  H
  C22      1.0000 0.35140  0.87230  0.80550  Biso   1.000  C
  C23      1.0000 0.30190  0.87060  0.57860  Biso   1.000  C
  C24      1.0000 0.47490  0.63010  0.58200  Biso   1.000  C
  O18      1.0000 0.30680  0.95970  0.82450  Biso   1.000  O
  C25      1.0000 0.40750  0.74850  0.69100  Biso   1.000  C
  H9       1.0000 0.44040  0.70530  0.72850  Biso   1.000  H
  C26      1.0000 0.41210  0.72240  0.60820  Biso   1.000  C
  C27      1.0000 0.35330  0.83940  0.71570  Biso   1.000  C
  Mn4      1.0000 0.11009  0.02928  0.43647  Biso   1.000  Mn
  O19      1.0000 0.29670  0.97640  0.03990  Biso   1.000  O
  O20      1.0000 0.28770  0.12160  0.95800  Biso   1.000  O
  O21      1.0000 0.10360  0.18630  0.35480  Biso   1.000  O
  O22      1.0000 0.99180  0.43770  0.13550  Biso   1.000  O
  C28      1.0000 0.14220  0.21840  0.05270  Biso   1.000  C
  H10      1.0000 0.14100  0.23840  0.99850  Biso   1.000  H
  O23      1.0000 0.00450  0.38070  0.00670  Biso   1.000  O
  C29      1.0000 0.26300  0.07160  0.02090  Biso   1.000  C
  C30      1.0000 0.19850  0.09810  0.15950  Biso   1.000  C
  H11      1.0000 0.23320  0.03570  0.17610  Biso   1.000  H
  C31      1.0000 0.14860  0.12770  0.30550  Biso   1.000  C
  C32      1.0000 0.19810  0.12940  0.07860  Biso   1.000  C
  C33      1.0000 0.02510  0.36990  0.08200  Biso   1.000  C
  O24      1.0000 0.19320  0.04030  0.32450  Biso   1.000  O
  C34      1.0000 0.09250  0.25150  0.19100  Biso   1.000  C
  H12      1.0000 0.05960  0.29470  0.22850  Biso   1.000  H
  C35      1.0000 0.08790  0.27760  0.10820  Biso   1.000  C
  C36      1.0000 0.14670  0.16060  0.21570  Biso   1.000  C
  Mn5      1.0000 0.38991  0.52928  0.43647  Biso   1.000  Mn
  O25      1.0000 0.20330  0.47640  0.03990  Biso   1.000  O
  O26      1.0000 0.21230  0.62160  0.95800  Biso   1.000  O
  O27      1.0000 0.39640  0.68630  0.35480  Biso   1.000  O
  O28      1.0000 0.50820  0.93770  0.13550  Biso   1.000  O
  C37      1.0000 0.35780  0.71840  0.05270  Biso   1.000  C
  H13      1.0000 0.35900  0.73840  0.99850  Biso   1.000  H
  O29      1.0000 0.49550  0.88070  0.00670  Biso   1.000  O
  C38      1.0000 0.23700  0.57160  0.02090  Biso   1.000  C
  C39      1.0000 0.30150  0.59810  0.15950  Biso   1.000  C
  H14      1.0000 0.26680  0.53570  0.17610  Biso   1.000  H
  C40      1.0000 0.35140  0.62770  0.30550  Biso   1.000  C
  C41      1.0000 0.30190  0.62940  0.07860  Biso   1.000  C
  C42      1.0000 0.47490  0.86990  0.08200  Biso   1.000  C
  O30      1.0000 0.30680  0.54030  0.32450  Biso   1.000  O
  C43      1.0000 0.40750  0.75150  0.19100  Biso   1.000  C
  H15      1.0000 0.44040  0.79470  0.22850  Biso   1.000  H
  C44      1.0000 0.41210  0.77760  0.10820  Biso   1.000  C
  C45      1.0000 0.35330  0.66060  0.21570  Biso   1.000  C
  Mn6      1.0000 0.11009  0.47072  0.93647  Biso   1.000  Mn
  O31      1.0000 0.29670  0.52360  0.53990  Biso   1.000  O
  O32      1.0000 0.28770  0.37840  0.45800  Biso   1.000  O
  O33      1.0000 0.10360  0.31370  0.85480  Biso   1.000  O
  O34      1.0000 0.99180  0.06230  0.63550  Biso   1.000  O
  C46      1.0000 0.14220  0.28160  0.55270  Biso   1.000  C
  H16      1.0000 0.14100  0.26160  0.49850  Biso   1.000  H
  O35      1.0000 0.00450  0.11930  0.50670  Biso   1.000  O
  C47      1.0000 0.26300  0.42840  0.52090  Biso   1.000  C
  C48      1.0000 0.19850  0.40190  0.65950  Biso   1.000  C
  H17      1.0000 0.23320  0.46430  0.67610  Biso   1.000  H
  C49      1.0000 0.14860  0.37230  0.80550  Biso   1.000  C
  C50      1.0000 0.19810  0.37060  0.57860  Biso   1.000  C
  C51      1.0000 0.02510  0.13010  0.58200  Biso   1.000  C
  O36      1.0000 0.19320  0.45970  0.82450  Biso   1.000  O
  C52      1.0000 0.09250  0.24850  0.69100  Biso   1.000  C
  H18      1.0000 0.05960  0.20530  0.72850  Biso   1.000  H
  C53      1.0000 0.08790  0.22240  0.60820  Biso   1.000  C
  C54      1.0000 0.14670  0.33940  0.71570  Biso   1.000  C
  Mn7      1.0000 0.61009  0.02928  0.06353  Biso   1.000  Mn
  O37      1.0000 0.79670  0.97640  0.46010  Biso   1.000  O
  O38      1.0000 0.78770  0.12160  0.54200  Biso   1.000  O
  O39      1.0000 0.60360  0.18630  0.14520  Biso   1.000  O
  O40      1.0000 0.49180  0.43770  0.36450  Biso   1.000  O
  C55      1.0000 0.64220  0.21840  0.44730  Biso   1.000  C
  H19      1.0000 0.64100  0.23840  0.50150  Biso   1.000  H
  O41      1.0000 0.50450  0.38070  0.49330  Biso   1.000  O
  C56      1.0000 0.76300  0.07160  0.47910  Biso   1.000  C
  C57      1.0000 0.69850  0.09810  0.34050  Biso   1.000  C
  H20      1.0000 0.73320  0.03570  0.32390  Biso   1.000  H
  C58      1.0000 0.64860  0.12770  0.19450  Biso   1.000  C
  C59      1.0000 0.69810  0.12940  0.42140  Biso   1.000  C
  C60      1.0000 0.52510  0.36990  0.41800  Biso   1.000  C
  O42      1.0000 0.69320  0.04030  0.17550  Biso   1.000  O
  C61      1.0000 0.59250  0.25150  0.30900  Biso   1.000  C
  H21      1.0000 0.55960  0.29470  0.27150  Biso   1.000  H
  C62      1.0000 0.58790  0.27760  0.39180  Biso   1.000  C
  C63      1.0000 0.64670  0.16060  0.28430  Biso   1.000  C
  Mn8      1.0000 0.88991  0.97072  0.56353  Biso   1.000  Mn
  O43      1.0000 0.70330  0.02360  0.96010  Biso   1.000  O
  O44      1.0000 0.71230  0.87840  0.04200  Biso   1.000  O
  O45      1.0000 0.89640  0.81370  0.64520  Biso   1.000  O
  O46      1.0000 0.00820  0.56230  0.86450  Biso   1.000  O
  C64      1.0000 0.85780  0.78160  0.94730  Biso   1.000  C
  H22      1.0000 0.85900  0.76160  0.00150  Biso   1.000  H
  O47      1.0000 0.99550  0.61930  0.99330  Biso   1.000  O
  C65      1.0000 0.73700  0.92840  0.97910  Biso   1.000  C
  C66      1.0000 0.80150  0.90190  0.84050  Biso   1.000  C
  H23      1.0000 0.76680  0.96430  0.82390  Biso   1.000  H
  C67      1.0000 0.85140  0.87230  0.69450  Biso   1.000  C
  C68      1.0000 0.80190  0.87060  0.92140  Biso   1.000  C
  C69      1.0000 0.97490  0.63010  0.91800  Biso   1.000  C
  O48      1.0000 0.80680  0.95970  0.67550  Biso   1.000  O
  C70      1.0000 0.90750  0.74850  0.80900  Biso   1.000  C
  H24      1.0000 0.94040  0.70530  0.77150  Biso   1.000  H
  C71      1.0000 0.91210  0.72240  0.89180  Biso   1.000  C
  C72      1.0000 0.85330  0.83940  0.78430  Biso   1.000  C
