data_image0
_cell_length_a       14.8837
_cell_length_b       12.4554
_cell_length_c       16.6018
_cell_angle_alpha    90
_cell_angle_beta     90
_cell_angle_gamma    90

_symmetry_space_group_name_H-M    "P 1"
_symmetry_int_tables_number       1

loop_
  _symmetry_equiv_pos_as_xyz
  'x, y, z'

loop_
  _atom_site_label
  _atom_site_occupancy
  _atom_site_fract_x
  _atom_site_fract_y
  _atom_site_fract_z
  _atom_site_thermal_displace_type
  _atom_site_B_iso_or_equiv
  _atom_site_type_symbol
  O1       1.0000 0.52700  0.11950  0.00519  Biso   1.000  O
  O2       1.0000 0.50110  0.08490  0.87608  Biso   1.000  O
  C1       1.0000 0.76940  0.42270  0.99840  Biso   1.000  C
  O3       1.0000 0.59340  0.35150  0.66980  Biso   1.000  O
  C2       1.0000 0.59250  0.27000  0.82890  Biso   1.000  C
  H1       1.0000 0.55680  0.23520  0.79110  Biso   1.000  H
  C3       1.0000 0.63550  0.40190  0.72040  Biso   1.000  C
  O4       1.0000 0.67120  0.49150  0.70510  Biso   1.000  O
  C4       1.0000 0.70310  0.37080  0.94060  Biso   1.000  C
  C5       1.0000 0.65310  0.28120  0.96250  Biso   1.000  C
  H2       1.0000 0.65740  0.25440  0.01460  Biso   1.000  H
  C6       1.0000 0.64110  0.36060  0.80630  Biso   1.000  C
  C7       1.0000 0.69430  0.41190  0.86290  Biso   1.000  C
  H3       1.0000 0.72460  0.47460  0.84880  Biso   1.000  H
  C8       1.0000 0.59670  0.23110  0.90690  Biso   1.000  C
  C9       1.0000 0.53860  0.13850  0.93110  Biso   1.000  C
  Mn1      1.0000 0.60414  0.48519  0.58091  Biso   1.000  Mn
  O5       1.0000 0.79100  0.51590  0.98760  Biso   1.000  O
  O6       1.0000 0.80230  0.36670  0.05270  Biso   1.000  O
  O7       1.0000 0.97300  0.88050  0.50519  Biso   1.000  O
  O8       1.0000 0.99890  0.91510  0.37608  Biso   1.000  O
  C10      1.0000 0.73060  0.57730  0.49840  Biso   1.000  C
  O9       1.0000 0.90660  0.64850  0.16980  Biso   1.000  O
  C11      1.0000 0.90750  0.73000  0.32890  Biso   1.000  C
  H4       1.0000 0.94320  0.76480  0.29110  Biso   1.000  H
  C12      1.0000 0.86450  0.59810  0.22040  Biso   1.000  C
  O10      1.0000 0.82880  0.50850  0.20510  Biso   1.000  O
  C13      1.0000 0.79690  0.62920  0.44060  Biso   1.000  C
  C14      1.0000 0.84690  0.71880  0.46250  Biso   1.000  C
  H5       1.0000 0.84260  0.74560  0.51460  Biso   1.000  H
  C15      1.0000 0.85890  0.63940  0.30630  Biso   1.000  C
  C16      1.0000 0.80570  0.58810  0.36290  Biso   1.000  C
  H6       1.0000 0.77540  0.52540  0.34880  Biso   1.000  H
  C17      1.0000 0.90330  0.76890  0.40690  Biso   1.000  C
  C18      1.0000 0.96140  0.86150  0.43110  Biso   1.000  C
  Mn2      1.0000 0.89586  0.51481  0.08091  Biso   1.000  Mn
  O11      1.0000 0.70900  0.48410  0.48760  Biso   1.000  O
  O12      1.0000 0.69770  0.63330  0.55270  Biso   1.000  O
  O13      1.0000 0.47300  0.61950  0.49481  Biso   1.000  O
  O14      1.0000 0.49890  0.58490  0.62392  Biso   1.000  O
  C19      1.0000 0.23060  0.92270  0.50160  Biso   1.000  C
  O15      1.0000 0.40660  0.85150  0.83020  Biso   1.000  O
  C20      1.0000 0.40750  0.77000  0.67110  Biso   1.000  C
  H7       1.0000 0.44320  0.73520  0.70890  Biso   1.000  H
  C21      1.0000 0.36450  0.90190  0.77960  Biso   1.000  C
  O16      1.0000 0.32880  0.99150  0.79490  Biso   1.000  O
  C22      1.0000 0.29690  0.87080  0.55940  Biso   1.000  C
  C23      1.0000 0.34690  0.78120  0.53750  Biso   1.000  C
  H8       1.0000 0.34260  0.75440  0.48540  Biso   1.000  H
  C24      1.0000 0.35890  0.86060  0.69370  Biso   1.000  C
  C25      1.0000 0.30570  0.91190  0.63710  Biso   1.000  C
  H9       1.0000 0.27540  0.97460  0.65120  Biso   1.000  H
  C26      1.0000 0.40330  0.73110  0.59310  Biso   1.000  C
  C27      1.0000 0.46140  0.63850  0.56890  Biso   1.000  C
  Mn3      1.0000 0.39586  0.98519  0.91909  Biso   1.000  Mn
  O17      1.0000 0.20900  0.01590  0.51240  Biso   1.000  O
  O18      1.0000 0.19770  0.86670  0.44730  Biso   1.000  O
  O19      1.0000 0.02700  0.38050  0.99481  Biso   1.000  O
  O20      1.0000 0.00110  0.41510  0.12392  Biso   1.000  O
  C28      1.0000 0.26940  0.07730  0.00160  Biso   1.000  C
  O21      1.0000 0.09340  0.14850  0.33020  Biso   1.000  O
  C29      1.0000 0.09250  0.23000  0.17110  Biso   1.000  C
  H10      1.0000 0.05680  0.26480  0.20890  Biso   1.000  H
  C30      1.0000 0.13550  0.09810  0.27960  Biso   1.000  C
  O22      1.0000 0.17120  0.00850  0.29490  Biso   1.000  O
  C31      1.0000 0.20310  0.12920  0.05940  Biso   1.000  C
  C32      1.0000 0.15310  0.21880  0.03750  Biso   1.000  C
  H11      1.0000 0.15740  0.24560  0.98540  Biso   1.000  H
  C33      1.0000 0.14110  0.13940  0.19370  Biso   1.000  C
  C34      1.0000 0.19430  0.08810  0.13710  Biso   1.000  C
  H12      1.0000 0.22460  0.02540  0.15120  Biso   1.000  H
  C35      1.0000 0.09670  0.26890  0.09310  Biso   1.000  C
  C36      1.0000 0.03860  0.36150  0.06890  Biso   1.000  C
  Mn4      1.0000 0.10414  0.01481  0.41909  Biso   1.000  Mn
  O23      1.0000 0.29100  0.98410  0.01240  Biso   1.000  O
  O24      1.0000 0.30230  0.13330  0.94730  Biso   1.000  O
  O25      1.0000 0.47300  0.88050  0.99481  Biso   1.000  O
  O26      1.0000 0.49890  0.91510  0.12392  Biso   1.000  O
  C37      1.0000 0.23060  0.57730  0.00160  Biso   1.000  C
  O27      1.0000 0.40660  0.64850  0.33020  Biso   1.000  O
  C38      1.0000 0.40750  0.73000  0.17110  Biso   1.000  C
  H13      1.0000 0.44320  0.76480  0.20890  Biso   1.000  H
  C39      1.0000 0.36450  0.59810  0.27960  Biso   1.000  C
  O28      1.0000 0.32880  0.50850  0.29490  Biso   1.000  O
  C40      1.0000 0.29690  0.62920  0.05940  Biso   1.000  C
  C41      1.0000 0.34690  0.71880  0.03750  Biso   1.000  C
  H14      1.0000 0.34260  0.74560  0.98540  Biso   1.000  H
  C42      1.0000 0.35890  0.63940  0.19370  Biso   1.000  C
  C43      1.0000 0.30570  0.58810  0.13710  Biso   1.000  C
  H15      1.0000 0.27540  0.52540  0.15120  Biso   1.000  H
  C44      1.0000 0.40330  0.76890  0.09310  Biso   1.000  C
  C45      1.0000 0.46140  0.86150  0.06890  Biso   1.000  C
  Mn5      1.0000 0.39586  0.51481  0.41909  Biso   1.000  Mn
  O29      1.0000 0.20900  0.48410  0.01240  Biso   1.000  O
  O30      1.0000 0.19770  0.63330  0.94730  Biso   1.000  O
  O31      1.0000 0.02700  0.11950  0.49481  Biso   1.000  O
  O32      1.0000 0.00110  0.08490  0.62392  Biso   1.000  O
  C46      1.0000 0.26940  0.42270  0.50160  Biso   1.000  C
  O33      1.0000 0.09340  0.35150  0.83020  Biso   1.000  O
  C47      1.0000 0.09250  0.27000  0.67110  Biso   1.000  C
  H16      1.0000 0.05680  0.23520  0.70890  Biso   1.000  H
  C48      1.0000 0.13550  0.40190  0.77960  Biso   1.000  C
  O34      1.0000 0.17120  0.49150  0.79490  Biso   1.000  O
  C49      1.0000 0.20310  0.37080  0.55940  Biso   1.000  C
  C50      1.0000 0.15310  0.28120  0.53750  Biso   1.000  C
  H17      1.0000 0.15740  0.25440  0.48540  Biso   1.000  H
  C51      1.0000 0.14110  0.36060  0.69370  Biso   1.000  C
  C52      1.0000 0.19430  0.41190  0.63710  Biso   1.000  C
  H18      1.0000 0.22460  0.47460  0.65120  Biso   1.000  H
  C53      1.0000 0.09670  0.23110  0.59310  Biso   1.000  C
  C54      1.0000 0.03860  0.13850  0.56890  Biso   1.000  C
  Mn6      1.0000 0.10414  0.48519  0.91909  Biso   1.000  Mn
  O35      1.0000 0.29100  0.51590  0.51240  Biso   1.000  O
  O36      1.0000 0.30230  0.36670  0.44730  Biso   1.000  O
  O37      1.0000 0.52700  0.38050  0.50519  Biso   1.000  O
  O38      1.0000 0.50110  0.41510  0.37608  Biso   1.000  O
  C55      1.0000 0.76940  0.07730  0.49840  Biso   1.000  C
  O39      1.0000 0.59340  0.14850  0.16980  Biso   1.000  O
  C56      1.0000 0.59250  0.23000  0.32890  Biso   1.000  C
  H19      1.0000 0.55680  0.26480  0.29110  Biso   1.000  H
  C57      1.0000 0.63550  0.09810  0.22040  Biso   1.000  C
  O40      1.0000 0.67120  0.00850  0.20510  Biso   1.000  O
  C58      1.0000 0.70310  0.12920  0.44060  Biso   1.000  C
  C59      1.0000 0.65310  0.21880  0.46250  Biso   1.000  C
  H20      1.0000 0.65740  0.24560  0.51460  Biso   1.000  H
  C60      1.0000 0.64110  0.13940  0.30630  Biso   1.000  C
  C61      1.0000 0.69430  0.08810  0.36290  Biso   1.000  C
  H21      1.0000 0.72460  0.02540  0.34880  Biso   1.000  H
  C62      1.0000 0.59670  0.26890  0.40690  Biso   1.000  C
  C63      1.0000 0.53860  0.36150  0.43110  Biso   1.000  C
  Mn7      1.0000 0.60414  0.01481  0.08091  Biso   1.000  Mn
  O41      1.0000 0.79100  0.98410  0.48760  Biso   1.000  O
  O42      1.0000 0.80230  0.13330  0.55270  Biso   1.000  O
  O43      1.0000 0.97300  0.61950  0.00519  Biso   1.000  O
  O44      1.0000 0.99890  0.58490  0.87608  Biso   1.000  O
  C64      1.0000 0.73060  0.92270  0.99840  Biso   1.000  C
  O45      1.0000 0.90660  0.85150  0.66980  Biso   1.000  O
  C65      1.0000 0.90750  0.77000  0.82890  Biso   1.000  C
  H22      1.0000 0.94320  0.73520  0.79110  Biso   1.000  H
  C66      1.0000 0.86450  0.90190  0.72040  Biso   1.000  C
  O46      1.0000 0.82880  0.99150  0.70510  Biso   1.000  O
  C67      1.0000 0.79690  0.87080  0.94060  Biso   1.000  C
  C68      1.0000 0.84690  0.78120  0.96250  Biso   1.000  C
  H23      1.0000 0.84260  0.75440  0.01460  Biso   1.000  H
  C69      1.0000 0.85890  0.86060  0.80630  Biso   1.000  C
  C70      1.0000 0.80570  0.91190  0.86290  Biso   1.000  C
  H24      1.0000 0.77540  0.97460  0.84880  Biso   1.000  H
  C71      1.0000 0.90330  0.73110  0.90690  Biso   1.000  C
  C72      1.0000 0.96140  0.63850  0.93110  Biso   1.000  C
  Mn8      1.0000 0.89586  0.98519  0.58091  Biso   1.000  Mn
  O47      1.0000 0.70900  0.01590  0.98760  Biso   1.000  O
  O48      1.0000 0.69770  0.86670  0.05270  Biso   1.000  O
