data_image0
_cell_length_a       14.9287
_cell_length_b       12.499
_cell_length_c       16.5814
_cell_angle_alpha    90
_cell_angle_beta     90
_cell_angle_gamma    90

_symmetry_space_group_name_H-M    "P 1"
_symmetry_int_tables_number       1

loop_
  _symmetry_equiv_pos_as_xyz
  'x, y, z'

loop_
  _atom_site_label
  _atom_site_occupancy
  _atom_site_fract_x
  _atom_site_fract_y
  _atom_site_fract_z
  _atom_site_thermal_displace_type
  _atom_site_B_iso_or_equiv
  _atom_site_type_symbol
  Mn1      1.0000 0.60410  0.48591  0.58143  Biso   1.000  Mn
  O1       1.0000 0.79177  0.51580  0.98821  Biso   1.000  O
  O2       1.0000 0.80154  0.36592  0.05358  Biso   1.000  O
  O3       1.0000 0.59201  0.35245  0.67052  Biso   1.000  O
  O4       1.0000 0.50145  0.08519  0.87635  Biso   1.000  O
  C1       1.0000 0.65298  0.28080  0.96329  Biso   1.000  C
  H1       1.0000 0.65760  0.25350  0.01530  Biso   1.000  H
  O5       1.0000 0.52765  0.11921  0.00551  Biso   1.000  O
  C2       1.0000 0.76854  0.42048  0.99881  Biso   1.000  C
  C3       1.0000 0.69402  0.41214  0.86382  Biso   1.000  C
  H2       1.0000 0.72450  0.47440  0.84980  Biso   1.000  H
  C4       1.0000 0.63408  0.40394  0.72266  Biso   1.000  C
  C5       1.0000 0.70263  0.37062  0.94150  Biso   1.000  C
  C6       1.0000 0.53869  0.13850  0.93182  Biso   1.000  C
  O6       1.0000 0.67059  0.49162  0.70615  Biso   1.000  O
  C7       1.0000 0.59214  0.27078  0.82931  Biso   1.000  C
  H3       1.0000 0.55660  0.23610  0.79140  Biso   1.000  H
  C8       1.0000 0.59647  0.23162  0.90767  Biso   1.000  C
  C9       1.0000 0.64023  0.36115  0.80707  Biso   1.000  C
  Mn2      1.0000 0.89590  0.51409  0.08143  Biso   1.000  Mn
  O7       1.0000 0.70823  0.48420  0.48821  Biso   1.000  O
  O8       1.0000 0.69846  0.63408  0.55358  Biso   1.000  O
  O9       1.0000 0.90799  0.64755  0.17052  Biso   1.000  O
  O10      1.0000 0.99855  0.91481  0.37635  Biso   1.000  O
  C10      1.0000 0.84702  0.71920  0.46329  Biso   1.000  C
  H4       1.0000 0.84240  0.74650  0.51530  Biso   1.000  H
  O11      1.0000 0.97235  0.88079  0.50551  Biso   1.000  O
  C11      1.0000 0.73146  0.57952  0.49881  Biso   1.000  C
  C12      1.0000 0.80598  0.58786  0.36382  Biso   1.000  C
  H5       1.0000 0.77550  0.52560  0.34980  Biso   1.000  H
  C13      1.0000 0.86592  0.59606  0.22266  Biso   1.000  C
  C14      1.0000 0.79737  0.62938  0.44150  Biso   1.000  C
  C15      1.0000 0.96131  0.86150  0.43182  Biso   1.000  C
  O12      1.0000 0.82941  0.50838  0.20615  Biso   1.000  O
  C16      1.0000 0.90786  0.72922  0.32931  Biso   1.000  C
  H6       1.0000 0.94340  0.76390  0.29140  Biso   1.000  H
  C17      1.0000 0.90353  0.76838  0.40767  Biso   1.000  C
  C18      1.0000 0.85977  0.63885  0.30707  Biso   1.000  C
  Mn3      1.0000 0.39590  0.98591  0.91857  Biso   1.000  Mn
  O13      1.0000 0.20823  0.01580  0.51179  Biso   1.000  O
  O14      1.0000 0.19846  0.86592  0.44642  Biso   1.000  O
  O15      1.0000 0.40799  0.85245  0.82948  Biso   1.000  O
  O16      1.0000 0.49855  0.58519  0.62365  Biso   1.000  O
  C19      1.0000 0.34702  0.78080  0.53671  Biso   1.000  C
  H7       1.0000 0.34240  0.75350  0.48470  Biso   1.000  H
  O17      1.0000 0.47235  0.61921  0.49449  Biso   1.000  O
  C20      1.0000 0.23146  0.92048  0.50119  Biso   1.000  C
  C21      1.0000 0.30598  0.91214  0.63618  Biso   1.000  C
  H8       1.0000 0.27550  0.97440  0.65020  Biso   1.000  H
  C22      1.0000 0.36592  0.90394  0.77734  Biso   1.000  C
  C23      1.0000 0.29737  0.87062  0.55850  Biso   1.000  C
  C24      1.0000 0.46131  0.63850  0.56818  Biso   1.000  C
  O18      1.0000 0.32941  0.99162  0.79385  Biso   1.000  O
  C25      1.0000 0.40786  0.77078  0.67069  Biso   1.000  C
  H9       1.0000 0.44340  0.73610  0.70860  Biso   1.000  H
  C26      1.0000 0.40353  0.73162  0.59233  Biso   1.000  C
  C27      1.0000 0.35977  0.86115  0.69293  Biso   1.000  C
  Mn4      1.0000 0.10410  0.01409  0.41857  Biso   1.000  Mn
  O19      1.0000 0.29177  0.98420  0.01179  Biso   1.000  O
  O20      1.0000 0.30154  0.13408  0.94642  Biso   1.000  O
  O21      1.0000 0.09201  0.14755  0.32948  Biso   1.000  O
  O22      1.0000 0.00145  0.41481  0.12365  Biso   1.000  O
  C28      1.0000 0.15298  0.21920  0.03671  Biso   1.000  C
  H10      1.0000 0.15760  0.24650  0.98470  Biso   1.000  H
  O23      1.0000 0.02765  0.38079  0.99449  Biso   1.000  O
  C29      1.0000 0.26854  0.07952  0.00119  Biso   1.000  C
  C30      1.0000 0.19402  0.08786  0.13618  Biso   1.000  C
  H11      1.0000 0.22450  0.02560  0.15020  Biso   1.000  H
  C31      1.0000 0.13408  0.09606  0.27734  Biso   1.000  C
  C32      1.0000 0.20263  0.12938  0.05850  Biso   1.000  C
  C33      1.0000 0.03869  0.36150  0.06818  Biso   1.000  C
  O24      1.0000 0.17059  0.00838  0.29385  Biso   1.000  O
  C34      1.0000 0.09214  0.22922  0.17069  Biso   1.000  C
  H12      1.0000 0.05660  0.26390  0.20860  Biso   1.000  H
  C35      1.0000 0.09647  0.26838  0.09233  Biso   1.000  C
  C36      1.0000 0.14023  0.13885  0.19293  Biso   1.000  C
  Mn5      1.0000 0.39590  0.51409  0.41857  Biso   1.000  Mn
  O25      1.0000 0.20823  0.48420  0.01179  Biso   1.000  O
  O26      1.0000 0.19846  0.63408  0.94642  Biso   1.000  O
  O27      1.0000 0.40799  0.64755  0.32948  Biso   1.000  O
  O28      1.0000 0.49855  0.91481  0.12365  Biso   1.000  O
  C37      1.0000 0.34702  0.71920  0.03671  Biso   1.000  C
  H13      1.0000 0.34240  0.74650  0.98470  Biso   1.000  H
  O29      1.0000 0.47235  0.88079  0.99449  Biso   1.000  O
  C38      1.0000 0.23146  0.57952  0.00119  Biso   1.000  C
  C39      1.0000 0.30598  0.58786  0.13618  Biso   1.000  C
  H14      1.0000 0.27550  0.52560  0.15020  Biso   1.000  H
  C40      1.0000 0.36592  0.59606  0.27734  Biso   1.000  C
  C41      1.0000 0.29737  0.62938  0.05850  Biso   1.000  C
  C42      1.0000 0.46131  0.86150  0.06818  Biso   1.000  C
  O30      1.0000 0.32941  0.50838  0.29385  Biso   1.000  O
  C43      1.0000 0.40786  0.72922  0.17069  Biso   1.000  C
  H15      1.0000 0.44340  0.76390  0.20860  Biso   1.000  H
  C44      1.0000 0.40353  0.76838  0.09233  Biso   1.000  C
  C45      1.0000 0.35977  0.63885  0.19293  Biso   1.000  C
  Mn6      1.0000 0.10410  0.48591  0.91857  Biso   1.000  Mn
  O31      1.0000 0.29177  0.51580  0.51179  Biso   1.000  O
  O32      1.0000 0.30154  0.36592  0.44642  Biso   1.000  O
  O33      1.0000 0.09201  0.35245  0.82948  Biso   1.000  O
  O34      1.0000 0.00145  0.08519  0.62365  Biso   1.000  O
  C46      1.0000 0.15298  0.28080  0.53671  Biso   1.000  C
  H16      1.0000 0.15760  0.25350  0.48470  Biso   1.000  H
  O35      1.0000 0.02765  0.11921  0.49449  Biso   1.000  O
  C47      1.0000 0.26854  0.42048  0.50119  Biso   1.000  C
  C48      1.0000 0.19402  0.41214  0.63618  Biso   1.000  C
  H17      1.0000 0.22450  0.47440  0.65020  Biso   1.000  H
  C49      1.0000 0.13408  0.40394  0.77734  Biso   1.000  C
  C50      1.0000 0.20263  0.37062  0.55850  Biso   1.000  C
  C51      1.0000 0.03869  0.13850  0.56818  Biso   1.000  C
  O36      1.0000 0.17059  0.49162  0.79385  Biso   1.000  O
  C52      1.0000 0.09214  0.27078  0.67069  Biso   1.000  C
  H18      1.0000 0.05660  0.23610  0.70860  Biso   1.000  H
  C53      1.0000 0.09647  0.23162  0.59233  Biso   1.000  C
  C54      1.0000 0.14023  0.36115  0.69293  Biso   1.000  C
  Mn7      1.0000 0.60410  0.01409  0.08143  Biso   1.000  Mn
  O37      1.0000 0.79177  0.98420  0.48821  Biso   1.000  O
  O38      1.0000 0.80154  0.13408  0.55358  Biso   1.000  O
  O39      1.0000 0.59201  0.14755  0.17052  Biso   1.000  O
  O40      1.0000 0.50145  0.41481  0.37635  Biso   1.000  O
  C55      1.0000 0.65298  0.21920  0.46329  Biso   1.000  C
  H19      1.0000 0.65760  0.24650  0.51530  Biso   1.000  H
  O41      1.0000 0.52765  0.38079  0.50551  Biso   1.000  O
  C56      1.0000 0.76854  0.07952  0.49881  Biso   1.000  C
  C57      1.0000 0.69402  0.08786  0.36382  Biso   1.000  C
  H20      1.0000 0.72450  0.02560  0.34980  Biso   1.000  H
  C58      1.0000 0.63408  0.09606  0.22266  Biso   1.000  C
  C59      1.0000 0.70263  0.12938  0.44150  Biso   1.000  C
  C60      1.0000 0.53869  0.36150  0.43182  Biso   1.000  C
  O42      1.0000 0.67059  0.00838  0.20615  Biso   1.000  O
  C61      1.0000 0.59214  0.22922  0.32931  Biso   1.000  C
  H21      1.0000 0.55660  0.26390  0.29140  Biso   1.000  H
  C62      1.0000 0.59647  0.26838  0.40767  Biso   1.000  C
  C63      1.0000 0.64023  0.13885  0.30707  Biso   1.000  C
  Mn8      1.0000 0.89590  0.98591  0.58143  Biso   1.000  Mn
  O43      1.0000 0.70823  0.01580  0.98821  Biso   1.000  O
  O44      1.0000 0.69846  0.86592  0.05358  Biso   1.000  O
  O45      1.0000 0.90799  0.85245  0.67052  Biso   1.000  O
  O46      1.0000 0.99855  0.58519  0.87635  Biso   1.000  O
  C64      1.0000 0.84702  0.78080  0.96329  Biso   1.000  C
  H22      1.0000 0.84240  0.75350  0.01530  Biso   1.000  H
  O47      1.0000 0.97235  0.61921  0.00551  Biso   1.000  O
  C65      1.0000 0.73146  0.92048  0.99881  Biso   1.000  C
  C66      1.0000 0.80598  0.91214  0.86382  Biso   1.000  C
  H23      1.0000 0.77550  0.97440  0.84980  Biso   1.000  H
  C67      1.0000 0.86592  0.90394  0.72266  Biso   1.000  C
  C68      1.0000 0.79737  0.87062  0.94150  Biso   1.000  C
  C69      1.0000 0.96131  0.63850  0.93182  Biso   1.000  C
  O48      1.0000 0.82941  0.99162  0.70615  Biso   1.000  O
  C70      1.0000 0.90786  0.77078  0.82931  Biso   1.000  C
  H24      1.0000 0.94340  0.73610  0.79140  Biso   1.000  H
  C71      1.0000 0.90353  0.73162  0.90767  Biso   1.000  C
  C72      1.0000 0.85977  0.86115  0.80707  Biso   1.000  C
