data_image0
_cell_length_a       24
_cell_length_b       15.522
_cell_length_c       16.523
_cell_angle_alpha    90
_cell_angle_beta     133.517
_cell_angle_gamma    90

_symmetry_space_group_name_H-M    "P 1"
_symmetry_int_tables_number       1

loop_
  _symmetry_equiv_pos_as_xyz
  'x, y, z'

loop_
  _atom_site_label
  _atom_site_occupancy
  _atom_site_fract_x
  _atom_site_fract_y
  _atom_site_fract_z
  _atom_site_thermal_displace_type
  _atom_site_B_iso_or_equiv
  _atom_site_type_symbol
  Co1      1.0000 0.74090  0.99134  0.00112  Biso   1.000  Co
  Co2      1.0000 0.82874  0.49898  0.58671  Biso   1.000  Co
  N1       1.0000 0.71290  0.92000  0.86760  Biso   1.000  N
  N2       1.0000 0.75560  0.59920  0.56580  Biso   1.000  N
  N3       1.0000 0.63480  0.76960  0.59740  Biso   1.000  N
  H1       1.0000 0.58420  0.77300  0.54600  Biso   1.000  H
  N4       1.0000 0.67030  0.09690  0.89350  Biso   1.000  N
  N5       1.0000 0.34010  0.44070  0.55620  Biso   1.000  N
  N6       1.0000 0.54250  0.30950  0.69010  Biso   1.000  N
  H2       1.0000 0.55600  0.33500  0.65700  Biso   1.000  H
  N7       1.0000 0.81370  0.89250  0.12310  Biso   1.000  N
  N8       1.0000 0.86580  0.58180  0.52760  Biso   1.000  N
  N9       1.0000 0.94020  0.73600  0.40780  Biso   1.000  N
  H3       1.0000 0.99030  0.73700  0.45000  Biso   1.000  H
  N10      1.0000 0.90040  0.39640  0.61530  Biso   1.000  N
  N11      1.0000 0.23240  0.06400  0.93610  Biso   1.000  N
  N12      1.0000 0.03120  0.18660  0.65910  Biso   1.000  N
  H4       1.0000 0.00400  0.16100  0.59300  Biso   1.000  H
  C1       1.0000 0.75830  0.86090  0.87900  Biso   1.000  C
  H5       1.0000 0.80760  0.85410  0.94910  Biso   1.000  H
  C2       1.0000 0.73660  0.80890  0.79260  Biso   1.000  C
  H6       1.0000 0.77020  0.76800  0.80510  Biso   1.000  H
  C3       1.0000 0.66350  0.81940  0.68710  Biso   1.000  C
  C4       1.0000 0.61630  0.88310  0.67400  Biso   1.000  C
  H7       1.0000 0.56760  0.89350  0.60430  Biso   1.000  H
  C5       1.0000 0.64260  0.92960  0.76510  Biso   1.000  C
  H8       1.0000 0.60990  0.97020  0.75530  Biso   1.000  H
  C6       1.0000 0.78710  0.67320  0.62310  Biso   1.000  C
  H9       1.0000 0.83670  0.68600  0.65580  Biso   1.000  H
  C7       1.0000 0.75070  0.73130  0.63650  Biso   1.000  C
  H10      1.0000 0.77550  0.78130  0.67790  Biso   1.000  H
  C8       1.0000 0.67530  0.71340  0.58620  Biso   1.000  C
  C9       1.0000 0.63970  0.63980  0.52160  Biso   1.000  C
  H11      1.0000 0.58910  0.62710  0.48430  Biso   1.000  H
  C10      1.0000 0.68180  0.58630  0.51460  Biso   1.000  C
  H12      1.0000 0.65750  0.53710  0.47090  Biso   1.000  H
  C11      1.0000 0.68800  0.14360  0.84550  Biso   1.000  C
  H13      1.0000 0.73060  0.12730  0.85780  Biso   1.000  H
  C12      1.0000 0.64670  0.21390  0.77930  Biso   1.000  C
  H14      1.0000 0.66150  0.24460  0.74830  Biso   1.000  H
  C13      1.0000 0.58190  0.23890  0.75890  Biso   1.000  C
  C14      1.0000 0.56250  0.19110  0.80720  Biso   1.000  C
  H15      1.0000 0.51990  0.20550  0.79580  Biso   1.000  H
  C15      1.0000 0.60800  0.12130  0.87260  Biso   1.000  C
  H16      1.0000 0.59440  0.08920  0.90430  Biso   1.000  H
  C16      1.0000 0.37380  0.38480  0.64050  Biso   1.000  C
  H17      1.0000 0.35030  0.37540  0.66680  Biso   1.000  H
  C17      1.0000 0.44140  0.33960  0.69200  Biso   1.000  C
  H18      1.0000 0.46330  0.30380  0.75270  Biso   1.000  H
  C18      1.0000 0.47560  0.34960  0.64920  Biso   1.000  C
  C19      1.0000 0.44170  0.40850  0.56270  Biso   1.000  C
  H19      1.0000 0.46340  0.41930  0.53390  Biso   1.000  H
  C20      1.0000 0.37550  0.45060  0.51990  Biso   1.000  C
  H20      1.0000 0.35370  0.48880  0.46140  Biso   1.000  H
  C21      1.0000 0.88930  0.90180  0.20920  Biso   1.000  C
  H21      1.0000 0.91440  0.94440  0.20480  Biso   1.000  H
  C22      1.0000 0.93270  0.85150  0.30470  Biso   1.000  C
  H22      1.0000 0.98530  0.86060  0.36250  Biso   1.000  H
  C23      1.0000 0.89620  0.78680  0.31290  Biso   1.000  C
  C24      1.0000 0.81810  0.77410  0.22190  Biso   1.000  C
  H23      1.0000 0.79200  0.73060  0.22300  Biso   1.000  H
  C25      1.0000 0.78020  0.82640  0.13060  Biso   1.000  C
  H24      1.0000 0.72820  0.81610  0.06970  Biso   1.000  H
  C26      1.0000 0.82280  0.64790  0.45800  Biso   1.000  C
  H25      1.0000 0.77570  0.65790  0.43580  Biso   1.000  H
  C27      1.0000 0.84480  0.70120  0.41820  Biso   1.000  C
  H26      1.0000 0.81390  0.74760  0.37300  Biso   1.000  H
  C28      1.0000 0.91370  0.68610  0.44530  Biso   1.000  C
  C29      1.0000 0.96110  0.62060  0.52290  Biso   1.000  C
  H27      1.0000 0.00920  0.61020  0.54860  Biso   1.000  H
  C30      1.0000 0.93470  0.57200  0.56000  Biso   1.000  C
  H28      1.0000 0.96680  0.52890  0.61170  Biso   1.000  H
  C31      1.0000 0.95380  0.35900  0.71420  Biso   1.000  C
  H29      1.0000 0.96140  0.38070  0.77370  Biso   1.000  H
  C32      1.0000 0.99850  0.29050  0.73500  Biso   1.000  C
  H30      1.0000 0.03390  0.26650  0.80610  Biso   1.000  H
  C33      1.0000 0.99080  0.25750  0.65050  Biso   1.000  C
  C34      1.0000 0.93450  0.29520  0.54500  Biso   1.000  C
  H31      1.0000 0.92570  0.27430  0.48430  Biso   1.000  H
  C35      1.0000 0.89270  0.36270  0.53210  Biso   1.000  C
  H32      1.0000 0.85650  0.38740  0.46160  Biso   1.000  H
  C36      1.0000 0.21650  0.14560  0.94290  Biso   1.000  C
  H33      1.0000 0.25210  0.17360  0.01130  Biso   1.000  H
  C37      1.0000 0.15160  0.19030  0.85640  Biso   1.000  C
  H34      1.0000 0.14360  0.24640  0.86620  Biso   1.000  H
  C38      1.0000 0.09890  0.14990  0.75450  Biso   1.000  C
  C39      1.0000 0.11670  0.06680  0.74460  Biso   1.000  C
  H35      1.0000 0.08360  0.03830  0.67640  Biso   1.000  H
  C40      1.0000 0.18260  0.02840  0.83530  Biso   1.000  C
  H36      1.0000 0.19360  0.97370  0.82640  Biso   1.000  H
  Co3      1.0000 0.24090  0.50866  0.50112  Biso   1.000  Co
  Co4      1.0000 0.32874  0.00102  0.08671  Biso   1.000  Co
  N13      1.0000 0.21290  0.58000  0.36760  Biso   1.000  N
  N14      1.0000 0.25560  0.90080  0.06580  Biso   1.000  N
  N15      1.0000 0.13480  0.73040  0.09740  Biso   1.000  N
  H37      1.0000 0.08420  0.72700  0.04600  Biso   1.000  H
  N16      1.0000 0.17030  0.40310  0.39350  Biso   1.000  N
  N17      1.0000 0.84010  0.05930  0.05620  Biso   1.000  N
  N18      1.0000 0.04250  0.19050  0.19010  Biso   1.000  N
  H38      1.0000 0.05600  0.16500  0.15700  Biso   1.000  H
  N19      1.0000 0.31370  0.60750  0.62310  Biso   1.000  N
  N20      1.0000 0.36580  0.91820  0.02760  Biso   1.000  N
  N21      1.0000 0.44020  0.76400  0.90780  Biso   1.000  N
  H39      1.0000 0.49030  0.76300  0.95000  Biso   1.000  H
  N22      1.0000 0.40040  0.10360  0.11530  Biso   1.000  N
  N23      1.0000 0.73240  0.43600  0.43610  Biso   1.000  N
  N24      1.0000 0.53120  0.31340  0.15910  Biso   1.000  N
  H40      1.0000 0.50400  0.33900  0.09300  Biso   1.000  H
  C41      1.0000 0.25830  0.63910  0.37900  Biso   1.000  C
  H41      1.0000 0.30760  0.64590  0.44910  Biso   1.000  H
  C42      1.0000 0.23660  0.69110  0.29260  Biso   1.000  C
  H42      1.0000 0.27020  0.73200  0.30510  Biso   1.000  H
  C43      1.0000 0.16350  0.68060  0.18710  Biso   1.000  C
  C44      1.0000 0.11630  0.61690  0.17400  Biso   1.000  C
  H43      1.0000 0.06760  0.60650  0.10430  Biso   1.000  H
  C45      1.0000 0.14260  0.57040  0.26510  Biso   1.000  C
  H44      1.0000 0.10990  0.52980  0.25530  Biso   1.000  H
  C46      1.0000 0.28710  0.82680  0.12310  Biso   1.000  C
  H45      1.0000 0.33670  0.81400  0.15580  Biso   1.000  H
  C47      1.0000 0.25070  0.76870  0.13650  Biso   1.000  C
  H46      1.0000 0.27550  0.71870  0.17790  Biso   1.000  H
  C48      1.0000 0.17530  0.78660  0.08620  Biso   1.000  C
  C49      1.0000 0.13970  0.86020  0.02160  Biso   1.000  C
  H47      1.0000 0.08910  0.87290  0.98430  Biso   1.000  H
  C50      1.0000 0.18180  0.91370  0.01460  Biso   1.000  C
  H48      1.0000 0.15750  0.96290  0.97090  Biso   1.000  H
  C51      1.0000 0.18800  0.35640  0.34550  Biso   1.000  C
  H49      1.0000 0.23060  0.37270  0.35780  Biso   1.000  H
  C52      1.0000 0.14670  0.28610  0.27930  Biso   1.000  C
  H50      1.0000 0.16150  0.25540  0.24830  Biso   1.000  H
  C53      1.0000 0.08190  0.26110  0.25890  Biso   1.000  C
  C54      1.0000 0.06250  0.30890  0.30720  Biso   1.000  C
  H51      1.0000 0.01990  0.29450  0.29580  Biso   1.000  H
  C55      1.0000 0.10800  0.37870  0.37260  Biso   1.000  C
  H52      1.0000 0.09440  0.41080  0.40430  Biso   1.000  H
  C56      1.0000 0.87380  0.11520  0.14050  Biso   1.000  C
  H53      1.0000 0.85030  0.12460  0.16680  Biso   1.000  H
  C57      1.0000 0.94140  0.16040  0.19200  Biso   1.000  C
  H54      1.0000 0.96330  0.19620  0.25270  Biso   1.000  H
  C58      1.0000 0.97560  0.15040  0.14920  Biso   1.000  C
  C59      1.0000 0.94170  0.09150  0.06270  Biso   1.000  C
  H55      1.0000 0.96340  0.08070  0.03390  Biso   1.000  H
  C60      1.0000 0.87550  0.04940  0.01990  Biso   1.000  C
  H56      1.0000 0.85370  0.01120  0.96140  Biso   1.000  H
  C61      1.0000 0.38930  0.59820  0.70920  Biso   1.000  C
  H57      1.0000 0.41440  0.55560  0.70480  Biso   1.000  H
  C62      1.0000 0.43270  0.64850  0.80470  Biso   1.000  C
  H58      1.0000 0.48530  0.63940  0.86250  Biso   1.000  H
  C63      1.0000 0.39620  0.71320  0.81290  Biso   1.000  C
  C64      1.0000 0.31810  0.72590  0.72190  Biso   1.000  C
  H59      1.0000 0.29200  0.76940  0.72300  Biso   1.000  H
  C65      1.0000 0.28020  0.67360  0.63060  Biso   1.000  C
  H60      1.0000 0.22820  0.68390  0.56970  Biso   1.000  H
  C66      1.0000 0.32280  0.85210  0.95800  Biso   1.000  C
  H61      1.0000 0.27570  0.84210  0.93580  Biso   1.000  H
  C67      1.0000 0.34480  0.79880  0.91820  Biso   1.000  C
  H62      1.0000 0.31390  0.75240  0.87300  Biso   1.000  H
  C68      1.0000 0.41370  0.81390  0.94530  Biso   1.000  C
  C69      1.0000 0.46110  0.87940  0.02290  Biso   1.000  C
  H63      1.0000 0.50920  0.88980  0.04860  Biso   1.000  H
  C70      1.0000 0.43470  0.92800  0.06000  Biso   1.000  C
  H64      1.0000 0.46680  0.97110  0.11170  Biso   1.000  H
  C71      1.0000 0.45380  0.14100  0.21420  Biso   1.000  C
  H65      1.0000 0.46140  0.11930  0.27370  Biso   1.000  H
  C72      1.0000 0.49850  0.20950  0.23500  Biso   1.000  C
  H66      1.0000 0.53390  0.23350  0.30610  Biso   1.000  H
  C73      1.0000 0.49080  0.24250  0.15050  Biso   1.000  C
  C74      1.0000 0.43450  0.20480  0.04500  Biso   1.000  C
  H67      1.0000 0.42570  0.22570  0.98430  Biso   1.000  H
  C75      1.0000 0.39270  0.13730  0.03210  Biso   1.000  C
  H68      1.0000 0.35650  0.11260  0.96160  Biso   1.000  H
  C76      1.0000 0.71650  0.35440  0.44290  Biso   1.000  C
  H69      1.0000 0.75210  0.32640  0.51130  Biso   1.000  H
  C77      1.0000 0.65160  0.30970  0.35640  Biso   1.000  C
  H70      1.0000 0.64360  0.25360  0.36620  Biso   1.000  H
  C78      1.0000 0.59890  0.35010  0.25450  Biso   1.000  C
  C79      1.0000 0.61670  0.43320  0.24460  Biso   1.000  C
  H71      1.0000 0.58360  0.46170  0.17640  Biso   1.000  H
  C80      1.0000 0.68260  0.47160  0.33530  Biso   1.000  C
  H72      1.0000 0.69360  0.52630  0.32640  Biso   1.000  H
  Co5      1.0000 0.24090  0.49134  0.00112  Biso   1.000  Co
  Co6      1.0000 0.32874  0.99898  0.58671  Biso   1.000  Co
  N25      1.0000 0.21290  0.42000  0.86760  Biso   1.000  N
  N26      1.0000 0.25560  0.09920  0.56580  Biso   1.000  N
  N27      1.0000 0.13480  0.26960  0.59740  Biso   1.000  N
  H73      1.0000 0.08420  0.27300  0.54600  Biso   1.000  H
  N28      1.0000 0.17030  0.59690  0.89350  Biso   1.000  N
  N29      1.0000 0.84010  0.94070  0.55620  Biso   1.000  N
  N30      1.0000 0.04250  0.80950  0.69010  Biso   1.000  N
  H74      1.0000 0.05600  0.83500  0.65700  Biso   1.000  H
  N31      1.0000 0.31370  0.39250  0.12310  Biso   1.000  N
  N32      1.0000 0.36580  0.08180  0.52760  Biso   1.000  N
  N33      1.0000 0.44020  0.23600  0.40780  Biso   1.000  N
  H75      1.0000 0.49030  0.23700  0.45000  Biso   1.000  H
  N34      1.0000 0.40040  0.89640  0.61530  Biso   1.000  N
  N35      1.0000 0.73240  0.56400  0.93610  Biso   1.000  N
  N36      1.0000 0.53120  0.68660  0.65910  Biso   1.000  N
  H76      1.0000 0.50400  0.66100  0.59300  Biso   1.000  H
  C81      1.0000 0.25830  0.36090  0.87900  Biso   1.000  C
  H77      1.0000 0.30760  0.35410  0.94910  Biso   1.000  H
  C82      1.0000 0.23660  0.30890  0.79260  Biso   1.000  C
  H78      1.0000 0.27020  0.26800  0.80510  Biso   1.000  H
  C83      1.0000 0.16350  0.31940  0.68710  Biso   1.000  C
  C84      1.0000 0.11630  0.38310  0.67400  Biso   1.000  C
  H79      1.0000 0.06760  0.39350  0.60430  Biso   1.000  H
  C85      1.0000 0.14260  0.42960  0.76510  Biso   1.000  C
  H80      1.0000 0.10990  0.47020  0.75530  Biso   1.000  H
  C86      1.0000 0.28710  0.17320  0.62310  Biso   1.000  C
  H81      1.0000 0.33670  0.18600  0.65580  Biso   1.000  H
  C87      1.0000 0.25070  0.23130  0.63650  Biso   1.000  C
  H82      1.0000 0.27550  0.28130  0.67790  Biso   1.000  H
  C88      1.0000 0.17530  0.21340  0.58620  Biso   1.000  C
  C89      1.0000 0.13970  0.13980  0.52160  Biso   1.000  C
  H83      1.0000 0.08910  0.12710  0.48430  Biso   1.000  H
  C90      1.0000 0.18180  0.08630  0.51460  Biso   1.000  C
  H84      1.0000 0.15750  0.03710  0.47090  Biso   1.000  H
  C91      1.0000 0.18800  0.64360  0.84550  Biso   1.000  C
  H85      1.0000 0.23060  0.62730  0.85780  Biso   1.000  H
  C92      1.0000 0.14670  0.71390  0.77930  Biso   1.000  C
  H86      1.0000 0.16150  0.74460  0.74830  Biso   1.000  H
  C93      1.0000 0.08190  0.73890  0.75890  Biso   1.000  C
  C94      1.0000 0.06250  0.69110  0.80720  Biso   1.000  C
  H87      1.0000 0.01990  0.70550  0.79580  Biso   1.000  H
  C95      1.0000 0.10800  0.62130  0.87260  Biso   1.000  C
  H88      1.0000 0.09440  0.58920  0.90430  Biso   1.000  H
  C96      1.0000 0.87380  0.88480  0.64050  Biso   1.000  C
  H89      1.0000 0.85030  0.87540  0.66680  Biso   1.000  H
  C97      1.0000 0.94140  0.83960  0.69200  Biso   1.000  C
  H90      1.0000 0.96330  0.80380  0.75270  Biso   1.000  H
  C98      1.0000 0.97560  0.84960  0.64920  Biso   1.000  C
  C99      1.0000 0.94170  0.90850  0.56270  Biso   1.000  C
  H91      1.0000 0.96340  0.91930  0.53390  Biso   1.000  H
  C100     1.0000 0.87550  0.95060  0.51990  Biso   1.000  C
  H92      1.0000 0.85370  0.98880  0.46140  Biso   1.000  H
  C101     1.0000 0.38930  0.40180  0.20920  Biso   1.000  C
  H93      1.0000 0.41440  0.44440  0.20480  Biso   1.000  H
  C102     1.0000 0.43270  0.35150  0.30470  Biso   1.000  C
  H94      1.0000 0.48530  0.36060  0.36250  Biso   1.000  H
  C103     1.0000 0.39620  0.28680  0.31290  Biso   1.000  C
  C104     1.0000 0.31810  0.27410  0.22190  Biso   1.000  C
  H95      1.0000 0.29200  0.23060  0.22300  Biso   1.000  H
  C105     1.0000 0.28020  0.32640  0.13060  Biso   1.000  C
  H96      1.0000 0.22820  0.31610  0.06970  Biso   1.000  H
  C106     1.0000 0.32280  0.14790  0.45800  Biso   1.000  C
  H97      1.0000 0.27570  0.15790  0.43580  Biso   1.000  H
  C107     1.0000 0.34480  0.20120  0.41820  Biso   1.000  C
  H98      1.0000 0.31390  0.24760  0.37300  Biso   1.000  H
  C108     1.0000 0.41370  0.18610  0.44530  Biso   1.000  C
  C109     1.0000 0.46110  0.12060  0.52290  Biso   1.000  C
  H99      1.0000 0.50920  0.11020  0.54860  Biso   1.000  H
  C110     1.0000 0.43470  0.07200  0.56000  Biso   1.000  C
  H100     1.0000 0.46680  0.02890  0.61170  Biso   1.000  H
  C111     1.0000 0.45380  0.85900  0.71420  Biso   1.000  C
  H101     1.0000 0.46140  0.88070  0.77370  Biso   1.000  H
  C112     1.0000 0.49850  0.79050  0.73500  Biso   1.000  C
  H102     1.0000 0.53390  0.76650  0.80610  Biso   1.000  H
  C113     1.0000 0.49080  0.75750  0.65050  Biso   1.000  C
  C114     1.0000 0.43450  0.79520  0.54500  Biso   1.000  C
  H103     1.0000 0.42570  0.77430  0.48430  Biso   1.000  H
  C115     1.0000 0.39270  0.86270  0.53210  Biso   1.000  C
  H104     1.0000 0.35650  0.88740  0.46160  Biso   1.000  H
  C116     1.0000 0.71650  0.64560  0.94290  Biso   1.000  C
  H105     1.0000 0.75210  0.67360  0.01130  Biso   1.000  H
  C117     1.0000 0.65160  0.69030  0.85640  Biso   1.000  C
  H106     1.0000 0.64360  0.74640  0.86620  Biso   1.000  H
  C118     1.0000 0.59890  0.64990  0.75450  Biso   1.000  C
  C119     1.0000 0.61670  0.56680  0.74460  Biso   1.000  C
  H107     1.0000 0.58360  0.53830  0.67640  Biso   1.000  H
  C120     1.0000 0.68260  0.52840  0.83530  Biso   1.000  C
  H108     1.0000 0.69360  0.47370  0.82640  Biso   1.000  H
  Co7      1.0000 0.74090  0.00866  0.50112  Biso   1.000  Co
  Co8      1.0000 0.82874  0.50102  0.08671  Biso   1.000  Co
  N37      1.0000 0.71290  0.08000  0.36760  Biso   1.000  N
  N38      1.0000 0.75560  0.40080  0.06580  Biso   1.000  N
  N39      1.0000 0.63480  0.23040  0.09740  Biso   1.000  N
  H109     1.0000 0.58420  0.22700  0.04600  Biso   1.000  H
  N40      1.0000 0.67030  0.90310  0.39350  Biso   1.000  N
  N41      1.0000 0.34010  0.55930  0.05620  Biso   1.000  N
  N42      1.0000 0.54250  0.69050  0.19010  Biso   1.000  N
  H110     1.0000 0.55600  0.66500  0.15700  Biso   1.000  H
  N43      1.0000 0.81370  0.10750  0.62310  Biso   1.000  N
  N44      1.0000 0.86580  0.41820  0.02760  Biso   1.000  N
  N45      1.0000 0.94020  0.26400  0.90780  Biso   1.000  N
  H111     1.0000 0.99030  0.26300  0.95000  Biso   1.000  H
  N46      1.0000 0.90040  0.60360  0.11530  Biso   1.000  N
  N47      1.0000 0.23240  0.93600  0.43610  Biso   1.000  N
  N48      1.0000 0.03120  0.81340  0.15910  Biso   1.000  N
  H112     1.0000 0.00400  0.83900  0.09300  Biso   1.000  H
  C121     1.0000 0.75830  0.13910  0.37900  Biso   1.000  C
  H113     1.0000 0.80760  0.14590  0.44910  Biso   1.000  H
  C122     1.0000 0.73660  0.19110  0.29260  Biso   1.000  C
  H114     1.0000 0.77020  0.23200  0.30510  Biso   1.000  H
  C123     1.0000 0.66350  0.18060  0.18710  Biso   1.000  C
  C124     1.0000 0.61630  0.11690  0.17400  Biso   1.000  C
  H115     1.0000 0.56760  0.10650  0.10430  Biso   1.000  H
  C125     1.0000 0.64260  0.07040  0.26510  Biso   1.000  C
  H116     1.0000 0.60990  0.02980  0.25530  Biso   1.000  H
  C126     1.0000 0.78710  0.32680  0.12310  Biso   1.000  C
  H117     1.0000 0.83670  0.31400  0.15580  Biso   1.000  H
  C127     1.0000 0.75070  0.26870  0.13650  Biso   1.000  C
  H118     1.0000 0.77550  0.21870  0.17790  Biso   1.000  H
  C128     1.0000 0.67530  0.28660  0.08620  Biso   1.000  C
  C129     1.0000 0.63970  0.36020  0.02160  Biso   1.000  C
  H119     1.0000 0.58910  0.37290  0.98430  Biso   1.000  H
  C130     1.0000 0.68180  0.41370  0.01460  Biso   1.000  C
  H120     1.0000 0.65750  0.46290  0.97090  Biso   1.000  H
  C131     1.0000 0.68800  0.85640  0.34550  Biso   1.000  C
  H121     1.0000 0.73060  0.87270  0.35780  Biso   1.000  H
  C132     1.0000 0.64670  0.78610  0.27930  Biso   1.000  C
  H122     1.0000 0.66150  0.75540  0.24830  Biso   1.000  H
  C133     1.0000 0.58190  0.76110  0.25890  Biso   1.000  C
  C134     1.0000 0.56250  0.80890  0.30720  Biso   1.000  C
  H123     1.0000 0.51990  0.79450  0.29580  Biso   1.000  H
  C135     1.0000 0.60800  0.87870  0.37260  Biso   1.000  C
  H124     1.0000 0.59440  0.91080  0.40430  Biso   1.000  H
  C136     1.0000 0.37380  0.61520  0.14050  Biso   1.000  C
  H125     1.0000 0.35030  0.62460  0.16680  Biso   1.000  H
  C137     1.0000 0.44140  0.66040  0.19200  Biso   1.000  C
  H126     1.0000 0.46330  0.69620  0.25270  Biso   1.000  H
  C138     1.0000 0.47560  0.65040  0.14920  Biso   1.000  C
  C139     1.0000 0.44170  0.59150  0.06270  Biso   1.000  C
  H127     1.0000 0.46340  0.58070  0.03390  Biso   1.000  H
  C140     1.0000 0.37550  0.54940  0.01990  Biso   1.000  C
  H128     1.0000 0.35370  0.51120  0.96140  Biso   1.000  H
  C141     1.0000 0.88930  0.09820  0.70920  Biso   1.000  C
  H129     1.0000 0.91440  0.05560  0.70480  Biso   1.000  H
  C142     1.0000 0.93270  0.14850  0.80470  Biso   1.000  C
  H130     1.0000 0.98530  0.13940  0.86250  Biso   1.000  H
  C143     1.0000 0.89620  0.21320  0.81290  Biso   1.000  C
  C144     1.0000 0.81810  0.22590  0.72190  Biso   1.000  C
  H131     1.0000 0.79200  0.26940  0.72300  Biso   1.000  H
  C145     1.0000 0.78020  0.17360  0.63060  Biso   1.000  C
  H132     1.0000 0.72820  0.18390  0.56970  Biso   1.000  H
  C146     1.0000 0.82280  0.35210  0.95800  Biso   1.000  C
  H133     1.0000 0.77570  0.34210  0.93580  Biso   1.000  H
  C147     1.0000 0.84480  0.29880  0.91820  Biso   1.000  C
  H134     1.0000 0.81390  0.25240  0.87300  Biso   1.000  H
  C148     1.0000 0.91370  0.31390  0.94530  Biso   1.000  C
  C149     1.0000 0.96110  0.37940  0.02290  Biso   1.000  C
  H135     1.0000 0.00920  0.38980  0.04860  Biso   1.000  H
  C150     1.0000 0.93470  0.42800  0.06000  Biso   1.000  C
  H136     1.0000 0.96680  0.47110  0.11170  Biso   1.000  H
  C151     1.0000 0.95380  0.64100  0.21420  Biso   1.000  C
  H137     1.0000 0.96140  0.61930  0.27370  Biso   1.000  H
  C152     1.0000 0.99850  0.70950  0.23500  Biso   1.000  C
  H138     1.0000 0.03390  0.73350  0.30610  Biso   1.000  H
  C153     1.0000 0.99080  0.74250  0.15050  Biso   1.000  C
  C154     1.0000 0.93450  0.70480  0.04500  Biso   1.000  C
  H139     1.0000 0.92570  0.72570  0.98430  Biso   1.000  H
  C155     1.0000 0.89270  0.63730  0.03210  Biso   1.000  C
  H140     1.0000 0.85650  0.61260  0.96160  Biso   1.000  H
  C156     1.0000 0.21650  0.85440  0.44290  Biso   1.000  C
  H141     1.0000 0.25210  0.82640  0.51130  Biso   1.000  H
  C157     1.0000 0.15160  0.80970  0.35640  Biso   1.000  C
  H142     1.0000 0.14360  0.75360  0.36620  Biso   1.000  H
  C158     1.0000 0.09890  0.85010  0.25450  Biso   1.000  C
  C159     1.0000 0.11670  0.93320  0.24460  Biso   1.000  C
  H143     1.0000 0.08360  0.96170  0.17640  Biso   1.000  H
  C160     1.0000 0.18260  0.97160  0.33530  Biso   1.000  C
  H144     1.0000 0.19360  0.02630  0.32640  Biso   1.000  H
