data_image0
_cell_length_a       6.8091
_cell_length_b       16.4128
_cell_length_c       13.5674
_cell_angle_alpha    90
_cell_angle_beta     90
_cell_angle_gamma    90

_symmetry_space_group_name_H-M    "P 1"
_symmetry_int_tables_number       1

loop_
  _symmetry_equiv_pos_as_xyz
  'x, y, z'

loop_
  _atom_site_label
  _atom_site_occupancy
  _atom_site_fract_x
  _atom_site_fract_y
  _atom_site_fract_z
  _atom_site_thermal_displace_type
  _atom_site_B_iso_or_equiv
  _atom_site_type_symbol
  O1       1.0000 0.31180  0.16320  0.65550  Biso   1.000  O
  O2       1.0000 0.64150  0.16260  0.66650  Biso   1.000  O
  C1       1.0000 0.32250  0.03290  0.52610  Biso   1.000  C
  H1       1.0000 0.20150  0.05540  0.54250  Biso   1.000  H
  C2       1.0000 0.66750  0.03230  0.53690  Biso   1.000  C
  H2       1.0000 0.78300  0.05480  0.56110  Biso   1.000  H
  C3       1.0000 0.49110  0.06490  0.56500  Biso   1.000  C
  C4       1.0000 0.47810  0.13660  0.63330  Biso   1.000  C
  O3       1.0000 0.18820  0.83680  0.15550  Biso   1.000  O
  O4       1.0000 0.85850  0.83740  0.16650  Biso   1.000  O
  C5       1.0000 0.17750  0.96710  0.02610  Biso   1.000  C
  H3       1.0000 0.29850  0.94460  0.04250  Biso   1.000  H
  C6       1.0000 0.83250  0.96770  0.03690  Biso   1.000  C
  H4       1.0000 0.71700  0.94520  0.06110  Biso   1.000  H
  C7       1.0000 0.00890  0.93510  0.06500  Biso   1.000  C
  C8       1.0000 0.02190  0.86340  0.13330  Biso   1.000  C
  O5       1.0000 0.68820  0.66320  0.34450  Biso   1.000  O
  O6       1.0000 0.35850  0.66260  0.33350  Biso   1.000  O
  C9       1.0000 0.67750  0.53290  0.47390  Biso   1.000  C
  H5       1.0000 0.79850  0.55540  0.45750  Biso   1.000  H
  C10      1.0000 0.33250  0.53230  0.46310  Biso   1.000  C
  H6       1.0000 0.21700  0.55480  0.43890  Biso   1.000  H
  C11      1.0000 0.50890  0.56490  0.43500  Biso   1.000  C
  C12      1.0000 0.52190  0.63660  0.36670  Biso   1.000  C
  O7       1.0000 0.81180  0.33680  0.84450  Biso   1.000  O
  O8       1.0000 0.14150  0.33740  0.83350  Biso   1.000  O
  C13      1.0000 0.82250  0.46710  0.97390  Biso   1.000  C
  H7       1.0000 0.70150  0.44460  0.95750  Biso   1.000  H
  C14      1.0000 0.16750  0.46770  0.96310  Biso   1.000  C
  H8       1.0000 0.28300  0.44520  0.93890  Biso   1.000  H
  C15      1.0000 0.99110  0.43510  0.93500  Biso   1.000  C
  C16      1.0000 0.97810  0.36340  0.86670  Biso   1.000  C
  O9       1.0000 0.68820  0.83680  0.34450  Biso   1.000  O
  O10      1.0000 0.35850  0.83740  0.33350  Biso   1.000  O
  C17      1.0000 0.67750  0.96710  0.47390  Biso   1.000  C
  H9       1.0000 0.79850  0.94460  0.45750  Biso   1.000  H
  C18      1.0000 0.33250  0.96770  0.46310  Biso   1.000  C
  H10      1.0000 0.21700  0.94520  0.43890  Biso   1.000  H
  C19      1.0000 0.50890  0.93510  0.43500  Biso   1.000  C
  C20      1.0000 0.52190  0.86340  0.36670  Biso   1.000  C
  O11      1.0000 0.81180  0.16320  0.84450  Biso   1.000  O
  O12      1.0000 0.14150  0.16260  0.83350  Biso   1.000  O
  C21      1.0000 0.82250  0.03290  0.97390  Biso   1.000  C
  H11      1.0000 0.70150  0.05540  0.95750  Biso   1.000  H
  C22      1.0000 0.16750  0.03230  0.96310  Biso   1.000  C
  H12      1.0000 0.28300  0.05480  0.93890  Biso   1.000  H
  C23      1.0000 0.99110  0.06490  0.93500  Biso   1.000  C
  C24      1.0000 0.97810  0.13660  0.86670  Biso   1.000  C
  O13      1.0000 0.31180  0.33680  0.65550  Biso   1.000  O
  O14      1.0000 0.64150  0.33740  0.66650  Biso   1.000  O
  C25      1.0000 0.32250  0.46710  0.52610  Biso   1.000  C
  H13      1.0000 0.20150  0.44460  0.54250  Biso   1.000  H
  C26      1.0000 0.66750  0.46770  0.53690  Biso   1.000  C
  H14      1.0000 0.78300  0.44520  0.56110  Biso   1.000  H
  C27      1.0000 0.49110  0.43510  0.56500  Biso   1.000  C
  C28      1.0000 0.47810  0.36340  0.63330  Biso   1.000  C
  O15      1.0000 0.18820  0.66320  0.15550  Biso   1.000  O
  O16      1.0000 0.85850  0.66260  0.16650  Biso   1.000  O
  C29      1.0000 0.17750  0.53290  0.02610  Biso   1.000  C
  H15      1.0000 0.29850  0.55540  0.04250  Biso   1.000  H
  C30      1.0000 0.83250  0.53230  0.03690  Biso   1.000  C
  H16      1.0000 0.71700  0.55480  0.06110  Biso   1.000  H
  C31      1.0000 0.00890  0.56490  0.06500  Biso   1.000  C
  C32      1.0000 0.02190  0.63660  0.13330  Biso   1.000  C
  O17      1.0000 0.47510  0.25000  0.80840  Biso   1.000  O
  V1       1.0000 0.20020  0.25000  0.73916  Biso   1.000  V
  O18      1.0000 0.02490  0.75000  0.30840  Biso   1.000  O
  V2       1.0000 0.29980  0.75000  0.23916  Biso   1.000  V
  O19      1.0000 0.52490  0.75000  0.19160  Biso   1.000  O
  V3       1.0000 0.79980  0.75000  0.26084  Biso   1.000  V
  O20      1.0000 0.97510  0.25000  0.69160  Biso   1.000  O
  V4       1.0000 0.70020  0.25000  0.76084  Biso   1.000  V
