data_WIDZUG_clean
_audit_creation_date              2014-07-02
_audit_creation_method            'Materials Studio'
_symmetry_space_group_name_H-M    'P1'
_symmetry_Int_Tables_number       1
_symmetry_cell_setting            triclinic
loop_
_symmetry_equiv_pos_as_xyz
  x,y,z
_cell_length_a                    11.5985
_cell_length_b                    13.6479
_cell_length_c                    14.2484
_cell_angle_alpha                 102.1670
_cell_angle_beta                  90.0000
_cell_angle_gamma                 115.1460
loop_
_atom_site_label
_atom_site_type_symbol
_atom_site_fract_x
_atom_site_fract_y
_atom_site_fract_z
_atom_site_U_iso_or_equiv
_atom_site_adp_type
_atom_site_occupancy
Cd1    Cd    0.00110   0.44596   0.86425   0.01267  Uiso   1.00
Cd2    Cd    0.44486   0.44596   0.36425   0.01267  Uiso   1.00
H1     H     0.01660   0.21040   0.58600   0.01267  Uiso   1.00
H2     H     0.15150   0.23960   0.63490   0.01267  Uiso   1.00
H3     H     0.15860   0.28780   0.48440   0.01267  Uiso   1.00
H4     H     0.10960   0.37620   0.53000   0.01267  Uiso   1.00
H5     H     0.92080   0.19060   0.86230   0.01267  Uiso   1.00
H6     H     0.75140   0.02380   0.86720   0.01267  Uiso   1.00
H7     H     0.52020   0.17480   0.88210   0.01267  Uiso   1.00
H8     H     0.69560   0.33840   0.87820   0.01267  Uiso   1.00
H9     H     0.49460   0.70520   0.87980   0.01267  Uiso   1.00
H10    H     0.31050   0.54520   0.87410   0.01267  Uiso   1.00
H11    H     0.09900   0.69780   0.85110   0.01267  Uiso   1.00
H12    H     0.27670   0.86340   0.85890   0.01267  Uiso   1.00
H13    H     0.19380   0.21040   0.08600   0.01267  Uiso   1.00
H14    H     0.08810   0.23960   0.13490   0.01267  Uiso   1.00
H15    H     0.12920   0.28780   0.98440   0.01267  Uiso   1.00
H16    H     0.26660   0.37620   0.03000   0.01267  Uiso   1.00
H17    H     0.26980   0.19060   0.36230   0.01267  Uiso   1.00
H18    H     0.27240   0.02380   0.36720   0.01267  Uiso   1.00
H19    H     0.65460   0.17480   0.38210   0.01267  Uiso   1.00
H20    H     0.64280   0.33840   0.37820   0.01267  Uiso   1.00
H21    H     0.21060   0.70520   0.37980   0.01267  Uiso   1.00
H22    H     0.23470   0.54520   0.37410   0.01267  Uiso   1.00
H23    H     0.59880   0.69780   0.35110   0.01267  Uiso   1.00
H24    H     0.58670   0.86340   0.35890   0.01267  Uiso   1.00
C1     C     0.07027   0.33574   0.70760   0.01267  Uiso   1.00
C2     C     0.09685   0.27150   0.61670   0.01267  Uiso   1.00
C3     C     0.15942   0.33824   0.54390   0.01267  Uiso   1.00
C4     C     0.29534   0.42288   0.57730   0.01267  Uiso   1.00
C5     C     0.83916   0.18712   0.86650   0.01267  Uiso   1.00
C6     C     0.73821   0.08682   0.86930   0.01267  Uiso   1.00
C7     C     0.61802   0.08224   0.87520   0.01267  Uiso   1.00
C8     C     0.60111   0.17662   0.87830   0.01267  Uiso   1.00
C9     C     0.70693   0.27446   0.87570   0.01267  Uiso   1.00
C10    C     0.40392   0.80144   0.86960   0.01267  Uiso   1.00
C11    C     0.41485   0.70550   0.87470   0.01267  Uiso   1.00
C12    C     0.30379   0.61018   0.87190   0.01267  Uiso   1.00
C13    C     0.17971   0.70002   0.85870   0.01267  Uiso   1.00
C14    C     0.28578   0.79956   0.86190   0.01267  Uiso   1.00
C15    C     0.26547   0.33574   0.20760   0.01267  Uiso   1.00
C16    C     0.17465   0.27150   0.11670   0.01267  Uiso   1.00
C17    C     0.17882   0.33824   0.04390   0.01267  Uiso   1.00
C18    C     0.12754   0.42288   0.07730   0.01267  Uiso   1.00
C19    C     0.34796   0.18712   0.36650   0.01267  Uiso   1.00
C20    C     0.34861   0.08682   0.36930   0.01267  Uiso   1.00
C21    C     0.46422   0.08224   0.37520   0.01267  Uiso   1.00
C22    C     0.57551   0.17662   0.37830   0.01267  Uiso   1.00
C23    C     0.56753   0.27446   0.37570   0.01267  Uiso   1.00
C24    C     0.39752   0.80144   0.36960   0.01267  Uiso   1.00
C25    C     0.29065   0.70550   0.37470   0.01267  Uiso   1.00
C26    C     0.30639   0.61018   0.37190   0.01267  Uiso   1.00
C27    C     0.52031   0.70002   0.35870   0.01267  Uiso   1.00
C28    C     0.51378   0.79956   0.36190   0.01267  Uiso   1.00
N1     N     0.82355   0.28030   0.86980   0.01267  Uiso   1.00
N2     N     0.50378   0.98196   0.87550   0.01267  Uiso   1.00
N3     N     0.52071   0.90062   0.87240   0.01267  Uiso   1.00
N4     N     0.18721   0.60702   0.86610   0.01267  Uiso   1.00
N5     N     0.45675   0.28030   0.36980   0.01267  Uiso   1.00
N6     N     0.47818   0.98196   0.37550   0.01267  Uiso   1.00
N7     N     0.37991   0.90062   0.37240   0.01267  Uiso   1.00
N8     N     0.41981   0.60702   0.36610   0.01267  Uiso   1.00
O1     O     0.01751   0.39682   0.69772   0.01267  Uiso   1.00
O2     O     0.09565   0.32410   0.78880   0.01267  Uiso   1.00
O3     O     0.33289   0.45758   0.66403   0.01267  Uiso   1.00
O4     O     0.37085   0.45650   0.51583   0.01267  Uiso   1.00
O5     O     0.37931   0.39682   0.19772   0.01267  Uiso   1.00
O6     O     0.22845   0.32410   0.28880   0.01267  Uiso   1.00
O7     O     0.12469   0.45758   0.16403   0.01267  Uiso   1.00
O8     O     0.08565   0.45650   0.01583   0.01267  Uiso   1.00
Cd3    Cd    0.55514   0.55404   0.63575   0.01267  Uiso   1.00
Cd4    Cd    0.99890   0.55404   0.13575   0.01267  Uiso   1.00
H25    H     0.80620   0.78960   0.91400   0.01267  Uiso   1.00
H26    H     0.91190   0.76040   0.86510   0.01267  Uiso   1.00
H27    H     0.87080   0.71220   0.01560   0.01267  Uiso   1.00
H28    H     0.73340   0.62380   0.97000   0.01267  Uiso   1.00
H29    H     0.73020   0.80940   0.63770   0.01267  Uiso   1.00
H30    H     0.72760   0.97620   0.63280   0.01267  Uiso   1.00
H31    H     0.34540   0.82520   0.61790   0.01267  Uiso   1.00
H32    H     0.35720   0.66160   0.62180   0.01267  Uiso   1.00
H33    H     0.78940   0.29480   0.62020   0.01267  Uiso   1.00
H34    H     0.76530   0.45480   0.62590   0.01267  Uiso   1.00
H35    H     0.40120   0.30220   0.64890   0.01267  Uiso   1.00
H36    H     0.41330   0.13660   0.64110   0.01267  Uiso   1.00
H37    H     0.98340   0.78960   0.41400   0.01267  Uiso   1.00
H38    H     0.84850   0.76040   0.36510   0.01267  Uiso   1.00
H39    H     0.84140   0.71220   0.51560   0.01267  Uiso   1.00
H40    H     0.89040   0.62380   0.47000   0.01267  Uiso   1.00
H41    H     0.07920   0.80940   0.13770   0.01267  Uiso   1.00
H42    H     0.24860   0.97620   0.13280   0.01267  Uiso   1.00
H43    H     0.47980   0.82520   0.11790   0.01267  Uiso   1.00
H44    H     0.30440   0.66160   0.12180   0.01267  Uiso   1.00
H45    H     0.50540   0.29480   0.12020   0.01267  Uiso   1.00
H46    H     0.68950   0.45480   0.12590   0.01267  Uiso   1.00
H47    H     0.90100   0.30220   0.14890   0.01267  Uiso   1.00
H48    H     0.72330   0.13660   0.14110   0.01267  Uiso   1.00
C29    C     0.73453   0.66426   0.79240   0.01267  Uiso   1.00
C30    C     0.82535   0.72850   0.88330   0.01267  Uiso   1.00
C31    C     0.82118   0.66176   0.95610   0.01267  Uiso   1.00
C32    C     0.87246   0.57712   0.92270   0.01267  Uiso   1.00
C33    C     0.65204   0.81288   0.63350   0.01267  Uiso   1.00
C34    C     0.65139   0.91318   0.63070   0.01267  Uiso   1.00
C35    C     0.53578   0.91776   0.62480   0.01267  Uiso   1.00
C36    C     0.42449   0.82338   0.62170   0.01267  Uiso   1.00
C37    C     0.43247   0.72554   0.62430   0.01267  Uiso   1.00
C38    C     0.60248   0.19856   0.63040   0.01267  Uiso   1.00
C39    C     0.70935   0.29450   0.62530   0.01267  Uiso   1.00
C40    C     0.69361   0.38982   0.62810   0.01267  Uiso   1.00
C41    C     0.47969   0.29998   0.64130   0.01267  Uiso   1.00
C42    C     0.48622   0.20044   0.63810   0.01267  Uiso   1.00
C43    C     0.92973   0.66426   0.29240   0.01267  Uiso   1.00
C44    C     0.90315   0.72850   0.38330   0.01267  Uiso   1.00
C45    C     0.84058   0.66176   0.45610   0.01267  Uiso   1.00
C46    C     0.70466   0.57712   0.42270   0.01267  Uiso   1.00
C47    C     0.16084   0.81288   0.13350   0.01267  Uiso   1.00
C48    C     0.26179   0.91318   0.13070   0.01267  Uiso   1.00
C49    C     0.38198   0.91776   0.12480   0.01267  Uiso   1.00
C50    C     0.39889   0.82338   0.12170   0.01267  Uiso   1.00
C51    C     0.29307   0.72554   0.12430   0.01267  Uiso   1.00
C52    C     0.59608   0.19856   0.13040   0.01267  Uiso   1.00
C53    C     0.58515   0.29450   0.12530   0.01267  Uiso   1.00
C54    C     0.69621   0.38982   0.12810   0.01267  Uiso   1.00
C55    C     0.82029   0.29998   0.14130   0.01267  Uiso   1.00
C56    C     0.71422   0.20044   0.13810   0.01267  Uiso   1.00
N9     N     0.54325   0.71970   0.63020   0.01267  Uiso   1.00
N10    N     0.52182   0.01804   0.62450   0.01267  Uiso   1.00
N11    N     0.62009   0.09938   0.62760   0.01267  Uiso   1.00
N12    N     0.58019   0.39298   0.63390   0.01267  Uiso   1.00
N13    N     0.17645   0.71970   0.13020   0.01267  Uiso   1.00
N14    N     0.49622   0.01804   0.12450   0.01267  Uiso   1.00
N15    N     0.47929   0.09938   0.12760   0.01267  Uiso   1.00
N16    N     0.81279   0.39298   0.13390   0.01267  Uiso   1.00
O9     O     0.62069   0.60318   0.80228   0.01267  Uiso   1.00
O10    O     0.77155   0.67590   0.71120   0.01267  Uiso   1.00
O11    O     0.87531   0.54242   0.83597   0.01267  Uiso   1.00
O12    O     0.91435   0.54350   0.98417   0.01267  Uiso   1.00
O13    O     0.98249   0.60318   0.30228   0.01267  Uiso   1.00
O14    O     0.90435   0.67590   0.21120   0.01267  Uiso   1.00
O15    O     0.66711   0.54242   0.33597   0.01267  Uiso   1.00
O16    O     0.62915   0.54350   0.48417   0.01267  Uiso   1.00
