data_WIFBAQ_clean
_audit_creation_date              2014-07-02
_audit_creation_method            'Materials Studio'
_symmetry_space_group_name_H-M    'P1'
_symmetry_Int_Tables_number       1
_symmetry_cell_setting            triclinic
loop_
_symmetry_equiv_pos_as_xyz
  x,y,z
_cell_length_a                    11.9144
_cell_length_b                    14.0146
_cell_length_c                    15.7686
_cell_angle_alpha                 91.9017
_cell_angle_beta                  112.1970
_cell_angle_gamma                 90.0000
loop_
_atom_site_label
_atom_site_type_symbol
_atom_site_fract_x
_atom_site_fract_y
_atom_site_fract_z
_atom_site_U_iso_or_equiv
_atom_site_adp_type
_atom_site_occupancy
Cd1    Cd    0.44796   0.37246   0.45452   0.01267  Uiso   1.00
Cd2    Cd    0.99344   0.12754   0.54548   0.01267  Uiso   1.00
Cd3    Cd    0.55204   0.62754   0.54548   0.01267  Uiso   1.00
Cd4    Cd    0.00656   0.87246   0.45452   0.01267  Uiso   1.00
H1     H     0.31060   0.40990   0.24100   0.01267  Uiso   1.00
H2     H     0.33110   0.40750   0.10260   0.01267  Uiso   1.00
H3     H     0.68930   0.38310   0.23740   0.01267  Uiso   1.00
H4     H     0.65740   0.38590   0.37180   0.01267  Uiso   1.00
H5     H     0.64800   0.37240   0.00000   0.01267  Uiso   1.00
H6     H     0.69180   0.32080   0.09340   0.01267  Uiso   1.00
H7     H     0.69910   0.43240   0.09260   0.01267  Uiso   1.00
H8     H     0.22820   0.36970   0.89920   0.01267  Uiso   1.00
H9     H     0.18490   0.30730   0.80800   0.01267  Uiso   1.00
H10    H     0.18150   0.41890   0.80440   0.01267  Uiso   1.00
H11    H     0.19350   0.37030   0.66100   0.01267  Uiso   1.00
H12    H     0.23520   0.36530   0.53120   0.01267  Uiso   1.00
H13    H     0.57840   0.34000   0.67100   0.01267  Uiso   1.00
H14    H     0.54930   0.34850   0.80560   0.01267  Uiso   1.00
H15    H     0.10250   0.18610   0.28440   0.01267  Uiso   1.00
H16    H     0.20250   0.13730   0.25660   0.01267  Uiso   1.00
H17    H     0.13590   0.02160   0.32440   0.01267  Uiso   1.00
H18    H     0.26380   0.05220   0.39640   0.01267  Uiso   1.00
H19    H     0.06960   0.09010   0.75900   0.01267  Uiso   1.00
H20    H     0.22850   0.09250   0.89740   0.01267  Uiso   1.00
H21    H     0.45190   0.11690   0.76260   0.01267  Uiso   1.00
H22    H     0.28560   0.11410   0.62820   0.01267  Uiso   1.00
H23    H     0.64800   0.12760  -0.00000   0.01267  Uiso   1.00
H24    H     0.59840   0.17920   0.90660   0.01267  Uiso   1.00
H25    H     0.60650   0.06760   0.90740   0.01267  Uiso   1.00
H26    H     0.32900   0.13030   0.10080   0.01267  Uiso   1.00
H27    H     0.37690   0.19270   0.19200   0.01267  Uiso   1.00
H28    H     0.37710   0.08110   0.19560   0.01267  Uiso   1.00
H29    H     0.53250   0.12970   0.33900   0.01267  Uiso   1.00
H30    H     0.70400   0.13470   0.46880   0.01267  Uiso   1.00
H31    H     0.90740   0.16000   0.32900   0.01267  Uiso   1.00
H32    H     0.74370   0.15150   0.19440   0.01267  Uiso   1.00
H33    H     0.81810   0.31390   0.71560   0.01267  Uiso   1.00
H34    H     0.94590   0.36270   0.74340   0.01267  Uiso   1.00
H35    H     0.81150   0.47840   0.67560   0.01267  Uiso   1.00
H36    H     0.86740   0.44780   0.60360   0.01267  Uiso   1.00
H37    H     0.68940   0.59010   0.75900   0.01267  Uiso   1.00
H38    H     0.66890   0.59250   0.89740   0.01267  Uiso   1.00
H39    H     0.31070   0.61690   0.76260   0.01267  Uiso   1.00
H40    H     0.34260   0.61410   0.62820   0.01267  Uiso   1.00
H41    H     0.35200   0.62760   0.00000   0.01267  Uiso   1.00
H42    H     0.30820   0.67920   0.90660   0.01267  Uiso   1.00
H43    H     0.30090   0.56760   0.90740   0.01267  Uiso   1.00
H44    H     0.77180   0.63030   0.10080   0.01267  Uiso   1.00
H45    H     0.81510   0.69270   0.19200   0.01267  Uiso   1.00
H46    H     0.81850   0.58110   0.19560   0.01267  Uiso   1.00
H47    H     0.80650   0.62970   0.33900   0.01267  Uiso   1.00
H48    H     0.76480   0.63470   0.46880   0.01267  Uiso   1.00
H49    H     0.42160   0.66000   0.32900   0.01267  Uiso   1.00
H50    H     0.45070   0.65150   0.19440   0.01267  Uiso   1.00
H51    H     0.89750   0.81390   0.71560   0.01267  Uiso   1.00
H52    H     0.79750   0.86270   0.74340   0.01267  Uiso   1.00
H53    H     0.86410   0.97840   0.67560   0.01267  Uiso   1.00
H54    H     0.73620   0.94780   0.60360   0.01267  Uiso   1.00
H55    H     0.93040   0.90990   0.24100   0.01267  Uiso   1.00
H56    H     0.77150   0.90750   0.10260   0.01267  Uiso   1.00
H57    H     0.54810   0.88310   0.23740   0.01267  Uiso   1.00
H58    H     0.71440   0.88590   0.37180   0.01267  Uiso   1.00
H59    H     0.35200   0.87240   0.00000   0.01267  Uiso   1.00
H60    H     0.40160   0.82080   0.09340   0.01267  Uiso   1.00
H61    H     0.39350   0.93240   0.09260   0.01267  Uiso   1.00
H62    H     0.67100   0.86970   0.89920   0.01267  Uiso   1.00
H63    H     0.62310   0.80730   0.80800   0.01267  Uiso   1.00
H64    H     0.62290   0.91890   0.80440   0.01267  Uiso   1.00
H65    H     0.46750   0.87030   0.66100   0.01267  Uiso   1.00
H66    H     0.29600   0.86530   0.53120   0.01267  Uiso   1.00
H67    H     0.09260   0.84000   0.67100   0.01267  Uiso   1.00
H68    H     0.25630   0.84850   0.80560   0.01267  Uiso   1.00
H69    H     0.18190   0.68610   0.28440   0.01267  Uiso   1.00
H70    H     0.05410   0.63730   0.25660   0.01267  Uiso   1.00
H71    H     0.18850   0.52160   0.32440   0.01267  Uiso   1.00
H72    H     0.13260   0.55220   0.39640   0.01267  Uiso   1.00
C1     C     0.38772   0.40300   0.23984   0.01267  Uiso   1.00
C2     C     0.39886   0.40140   0.15632   0.01267  Uiso   1.00
C3     C     0.51261   0.39060   0.15362   0.01267  Uiso   1.00
C4     C     0.61084   0.38690   0.23628   0.01267  Uiso   1.00
C5     C     0.59090   0.38900   0.31680   0.01267  Uiso   1.00
C6     C     0.52750   0.38290   0.06300   0.01267  Uiso   1.00
C7     C     0.65291   0.37660   0.06222   0.01267  Uiso   1.00
C8     C     0.22520   0.36560   0.83740   0.01267  Uiso   1.00
C9     C     0.34938   0.36690   0.83876   0.01267  Uiso   1.00
C10    C     0.36769   0.36110   0.74978   0.01267  Uiso   1.00
C11    C     0.27318   0.36530   0.66516   0.01267  Uiso   1.00
C12    C     0.29941   0.36210   0.58762   0.01267  Uiso   1.00
C13    C     0.50009   0.34790   0.66938   0.01267  Uiso   1.00
C14    C     0.48328   0.35190   0.75036   0.01267  Uiso   1.00
C15    C     0.27436   0.23750   0.36252   0.01267  Uiso   1.00
C16    C     0.18296   0.15910   0.30832   0.01267  Uiso   1.00
C17    C     0.18140   0.07340   0.36520   0.01267  Uiso   1.00
C18    C     0.12622   0.09500   0.43464   0.01267  Uiso   1.00
C19    C     0.14788   0.09700   0.76016   0.01267  Uiso   1.00
C20    C     0.24254   0.09860   0.84368   0.01267  Uiso   1.00
C21    C     0.35899   0.10940   0.84638   0.01267  Uiso   1.00
C22    C     0.37456   0.11310   0.76372   0.01267  Uiso   1.00
C23    C     0.27410   0.11100   0.68320   0.01267  Uiso   1.00
C24    C     0.46450   0.11710   0.93700   0.01267  Uiso   1.00
C25    C     0.59069   0.12340   0.93778   0.01267  Uiso   1.00
C26    C     0.38780   0.13440   0.16260   0.01267  Uiso   1.00
C27    C     0.51062   0.13310   0.16124   0.01267  Uiso   1.00
C28    C     0.61791   0.13890   0.25022   0.01267  Uiso   1.00
C29    C     0.60802   0.13470   0.33484   0.01267  Uiso   1.00
C30    C     0.71179   0.13790   0.41238   0.01267  Uiso   1.00
C31    C     0.83071   0.15210   0.33062   0.01267  Uiso   1.00
C32    C     0.73292   0.14810   0.24964   0.01267  Uiso   1.00
C33    C     0.91184   0.26250   0.63748   0.01267  Uiso   1.00
C34    C     0.87464   0.34090   0.69168   0.01267  Uiso   1.00
C35    C     0.81620   0.42660   0.63480   0.01267  Uiso   1.00
C36    C     0.69158   0.40500   0.56536   0.01267  Uiso   1.00
C37    C     0.61228   0.59700   0.76016   0.01267  Uiso   1.00
C38    C     0.60114   0.59860   0.84368   0.01267  Uiso   1.00
C39    C     0.48739   0.60940   0.84638   0.01267  Uiso   1.00
C40    C     0.38916   0.61310   0.76372   0.01267  Uiso   1.00
C41    C     0.40910   0.61100   0.68320   0.01267  Uiso   1.00
C42    C     0.47250   0.61710   0.93700   0.01267  Uiso   1.00
C43    C     0.34709   0.62340   0.93778   0.01267  Uiso   1.00
C44    C     0.77480   0.63440   0.16260   0.01267  Uiso   1.00
C45    C     0.65062   0.63310   0.16124   0.01267  Uiso   1.00
C46    C     0.63231   0.63890   0.25022   0.01267  Uiso   1.00
C47    C     0.72682   0.63470   0.33484   0.01267  Uiso   1.00
C48    C     0.70059   0.63790   0.41238   0.01267  Uiso   1.00
C49    C     0.49991   0.65210   0.33062   0.01267  Uiso   1.00
C50    C     0.51672   0.64810   0.24964   0.01267  Uiso   1.00
C51    C     0.72564   0.76250   0.63748   0.01267  Uiso   1.00
C52    C     0.81704   0.84090   0.69168   0.01267  Uiso   1.00
C53    C     0.81860   0.92660   0.63480   0.01267  Uiso   1.00
C54    C     0.87378   0.90500   0.56536   0.01267  Uiso   1.00
C55    C     0.85212   0.90300   0.23984   0.01267  Uiso   1.00
C56    C     0.75746   0.90140   0.15632   0.01267  Uiso   1.00
C57    C     0.64101   0.89060   0.15362   0.01267  Uiso   1.00
C58    C     0.62544   0.88690   0.23628   0.01267  Uiso   1.00
C59    C     0.72590   0.88900   0.31680   0.01267  Uiso   1.00
C60    C     0.53550   0.88290   0.06300   0.01267  Uiso   1.00
C61    C     0.40931   0.87660   0.06222   0.01267  Uiso   1.00
C62    C     0.61220   0.86560   0.83740   0.01267  Uiso   1.00
C63    C     0.48938   0.86690   0.83876   0.01267  Uiso   1.00
C64    C     0.38209   0.86110   0.74978   0.01267  Uiso   1.00
C65    C     0.39198   0.86530   0.66516   0.01267  Uiso   1.00
C66    C     0.28821   0.86210   0.58762   0.01267  Uiso   1.00
C67    C     0.16929   0.84790   0.66938   0.01267  Uiso   1.00
C68    C     0.26708   0.85190   0.75036   0.01267  Uiso   1.00
C69    C     0.08816   0.73750   0.36252   0.01267  Uiso   1.00
C70    C     0.12536   0.65910   0.30832   0.01267  Uiso   1.00
C71    C     0.18380   0.57340   0.36520   0.01267  Uiso   1.00
C72    C     0.30842   0.59500   0.43464   0.01267  Uiso   1.00
N1     N     0.48155   0.39510   0.31970   0.01267  Uiso   1.00
N2     N     0.42775   0.37990   0.99250   0.01267  Uiso   1.00
N3     N     0.44546   0.37150   0.90912   0.01267  Uiso   1.00
N4     N     0.40991   0.35460   0.58802   0.01267  Uiso   1.00
N5     N     0.16185   0.10490   0.68030   0.01267  Uiso   1.00
N6     N     0.43525   0.12010   0.00750   0.01267  Uiso   1.00
N7     N     0.53634   0.12850   0.09088   0.01267  Uiso   1.00
N8     N     0.82189   0.14540   0.41198   0.01267  Uiso   1.00
N9     N     0.51845   0.60490   0.68030   0.01267  Uiso   1.00
N10    N     0.57225   0.62010   0.00750   0.01267  Uiso   1.00
N11    N     0.55454   0.62850   0.09088   0.01267  Uiso   1.00
N12    N     0.59009   0.64540   0.41198   0.01267  Uiso   1.00
N13    N     0.83815   0.89510   0.31970   0.01267  Uiso   1.00
N14    N     0.56475   0.87990   0.99250   0.01267  Uiso   1.00
N15    N     0.46366   0.87150   0.90912   0.01267  Uiso   1.00
N16    N     0.17811   0.85460   0.58802   0.01267  Uiso   1.00
O1     O     0.37938   0.21310   0.41036   0.01267  Uiso   1.00
O2     O     0.24399   0.32290   0.35478   0.01267  Uiso   1.00
O3     O     0.12011   0.17820   0.46182   0.01267  Uiso   1.00
O4     O     0.08298   0.02690   0.46276   0.01267  Uiso   1.00
O5     O     0.96902   0.28690   0.58964   0.01267  Uiso   1.00
O6     O     0.88921   0.17710   0.64522   0.01267  Uiso   1.00
O7     O     0.65829   0.32180   0.53818   0.01267  Uiso   1.00
O8     O     0.62022   0.47310   0.53724   0.01267  Uiso   1.00
O9     O     0.62062   0.78690   0.58964   0.01267  Uiso   1.00
O10    O     0.75601   0.67710   0.64522   0.01267  Uiso   1.00
O11    O     0.87989   0.82180   0.53818   0.01267  Uiso   1.00
O12    O     0.91702   0.97310   0.53724   0.01267  Uiso   1.00
O13    O     0.03098   0.71310   0.41036   0.01267  Uiso   1.00
O14    O     0.11079   0.82290   0.35478   0.01267  Uiso   1.00
O15    O     0.34171   0.67820   0.46182   0.01267  Uiso   1.00
O16    O     0.37978   0.52690   0.46276   0.01267  Uiso   1.00
