data_image0
_cell_length_a       16.3724
_cell_length_b       7.1673
_cell_length_c       14.1857
_cell_angle_alpha    90
_cell_angle_beta     90
_cell_angle_gamma    90

_symmetry_space_group_name_H-M    "P 1"
_symmetry_int_tables_number       1

loop_
  _symmetry_equiv_pos_as_xyz
  'x, y, z'

loop_
  _atom_site_label
  _atom_site_occupancy
  _atom_site_fract_x
  _atom_site_fract_y
  _atom_site_fract_z
  _atom_site_thermal_displace_type
  _atom_site_B_iso_or_equiv
  _atom_site_type_symbol
  O1       1.0000 0.40867  0.43930  0.44765  Biso   1.000  O
  O2       1.0000 0.46016  0.19013  0.52250  Biso   1.000  O
  O3       1.0000 0.41573  0.05810  0.74825  Biso   1.000  O
  O4       1.0000 0.43957  0.36127  0.71826  Biso   1.000  O
  C1       1.0000 0.32398  0.28050  0.55610  Biso   1.000  C
  C2       1.0000 0.32397  0.22290  0.65041  Biso   1.000  C
  C3       1.0000 0.40460  0.30530  0.50457  Biso   1.000  C
  C4       1.0000 0.40005  0.21280  0.70882  Biso   1.000  C
  O5       1.0000 0.90867  0.93930  0.94765  Biso   1.000  O
  O6       1.0000 0.96016  0.69013  0.02250  Biso   1.000  O
  O7       1.0000 0.91573  0.55810  0.24825  Biso   1.000  O
  O8       1.0000 0.93957  0.86127  0.21826  Biso   1.000  O
  C5       1.0000 0.82398  0.78050  0.05610  Biso   1.000  C
  C6       1.0000 0.82397  0.72290  0.15041  Biso   1.000  C
  C7       1.0000 0.90460  0.80530  0.00457  Biso   1.000  C
  C8       1.0000 0.90005  0.71280  0.20882  Biso   1.000  C
  O9       1.0000 0.59133  0.56070  0.44765  Biso   1.000  O
  O10      1.0000 0.53984  0.80987  0.52250  Biso   1.000  O
  O11      1.0000 0.58427  0.94190  0.74825  Biso   1.000  O
  O12      1.0000 0.56043  0.63873  0.71826  Biso   1.000  O
  C9       1.0000 0.67602  0.71950  0.55610  Biso   1.000  C
  C10      1.0000 0.67603  0.77710  0.65041  Biso   1.000  C
  C11      1.0000 0.59540  0.69470  0.50457  Biso   1.000  C
  C12      1.0000 0.59995  0.78720  0.70882  Biso   1.000  C
  O13      1.0000 0.09133  0.06070  0.94765  Biso   1.000  O
  O14      1.0000 0.03984  0.30987  0.02250  Biso   1.000  O
  O15      1.0000 0.08427  0.44190  0.24825  Biso   1.000  O
  O16      1.0000 0.06043  0.13873  0.21826  Biso   1.000  O
  C13      1.0000 0.17602  0.21950  0.05610  Biso   1.000  C
  C14      1.0000 0.17603  0.27710  0.15041  Biso   1.000  C
  C15      1.0000 0.09540  0.19470  0.00457  Biso   1.000  C
  C16      1.0000 0.09995  0.28720  0.20882  Biso   1.000  C
  O17      1.0000 0.90867  0.56070  0.44765  Biso   1.000  O
  O18      1.0000 0.96016  0.80987  0.52250  Biso   1.000  O
  O19      1.0000 0.91573  0.94190  0.74825  Biso   1.000  O
  O20      1.0000 0.93957  0.63873  0.71826  Biso   1.000  O
  C17      1.0000 0.82398  0.71950  0.55610  Biso   1.000  C
  C18      1.0000 0.82397  0.77710  0.65041  Biso   1.000  C
  C19      1.0000 0.90460  0.69470  0.50457  Biso   1.000  C
  C20      1.0000 0.90005  0.78720  0.70882  Biso   1.000  C
  O21      1.0000 0.40867  0.06070  0.94765  Biso   1.000  O
  O22      1.0000 0.46016  0.30987  0.02250  Biso   1.000  O
  O23      1.0000 0.41573  0.44190  0.24825  Biso   1.000  O
  O24      1.0000 0.43957  0.13873  0.21826  Biso   1.000  O
  C21      1.0000 0.32398  0.21950  0.05610  Biso   1.000  C
  C22      1.0000 0.32397  0.27710  0.15041  Biso   1.000  C
  C23      1.0000 0.40460  0.19470  0.00457  Biso   1.000  C
  C24      1.0000 0.40005  0.28720  0.20882  Biso   1.000  C
  O25      1.0000 0.09133  0.43930  0.44765  Biso   1.000  O
  O26      1.0000 0.03984  0.19013  0.52250  Biso   1.000  O
  O27      1.0000 0.08427  0.05810  0.74825  Biso   1.000  O
  O28      1.0000 0.06043  0.36127  0.71826  Biso   1.000  O
  C25      1.0000 0.17602  0.28050  0.55610  Biso   1.000  C
  C26      1.0000 0.17603  0.22290  0.65041  Biso   1.000  C
  C27      1.0000 0.09540  0.30530  0.50457  Biso   1.000  C
  C28      1.0000 0.09995  0.21280  0.70882  Biso   1.000  C
  O29      1.0000 0.59133  0.93930  0.94765  Biso   1.000  O
  O30      1.0000 0.53984  0.69013  0.02250  Biso   1.000  O
  O31      1.0000 0.58427  0.55810  0.24825  Biso   1.000  O
  O32      1.0000 0.56043  0.86127  0.21826  Biso   1.000  O
  C29      1.0000 0.67602  0.78050  0.05610  Biso   1.000  C
  C30      1.0000 0.67603  0.72290  0.15041  Biso   1.000  C
  C31      1.0000 0.59540  0.80530  0.00457  Biso   1.000  C
  C32      1.0000 0.59995  0.71280  0.20882  Biso   1.000  C
  Ni1      1.0000 0.50000  0.50000  0.35324  Biso   1.000  Ni
  Ni2      1.0000 0.00000  0.00000  0.85324  Biso   1.000  Ni
  Ni3      1.0000 0.00000  0.50000  0.35324  Biso   1.000  Ni
  Ni4      1.0000 0.50000  0.00000  0.85324  Biso   1.000  Ni
  C33      1.0000 0.25000  0.30970  0.50968  Biso   1.000  C
  H1       1.0000 0.25000  0.34990  0.44590  Biso   1.000  H
  C34      1.0000 0.25000  0.19410  0.69672  Biso   1.000  C
  H2       1.0000 0.25000  0.15440  0.76060  Biso   1.000  H
  C35      1.0000 0.75000  0.80970  0.00968  Biso   1.000  C
  H3       1.0000 0.75000  0.84990  0.94590  Biso   1.000  H
  C36      1.0000 0.75000  0.69410  0.19672  Biso   1.000  C
  H4       1.0000 0.75000  0.65440  0.26060  Biso   1.000  H
  C37      1.0000 0.75000  0.69030  0.50968  Biso   1.000  C
  H5       1.0000 0.75000  0.65010  0.44590  Biso   1.000  H
  C38      1.0000 0.75000  0.80590  0.69672  Biso   1.000  C
  H6       1.0000 0.75000  0.84560  0.76060  Biso   1.000  H
  C39      1.0000 0.25000  0.19030  0.00968  Biso   1.000  C
  H7       1.0000 0.25000  0.15010  0.94590  Biso   1.000  H
  C40      1.0000 0.25000  0.30590  0.19672  Biso   1.000  C
  H8       1.0000 0.25000  0.34560  0.26060  Biso   1.000  H
