data_image0
_cell_length_a       6.6986
_cell_length_b       18.5179
_cell_length_c       8.4934
_cell_angle_alpha    90
_cell_angle_beta     90
_cell_angle_gamma    90

_symmetry_space_group_name_H-M    "P 1"
_symmetry_int_tables_number       1

loop_
  _symmetry_equiv_pos_as_xyz
  'x, y, z'

loop_
  _atom_site_label
  _atom_site_occupancy
  _atom_site_fract_x
  _atom_site_fract_y
  _atom_site_fract_z
  _atom_site_thermal_displace_type
  _atom_site_B_iso_or_equiv
  _atom_site_type_symbol
  C1       1.0000 0.73520  0.75700  0.47270  Biso   1.000  C
  H1       1.0000 0.71410  0.71870  0.54150  Biso   1.000  H
  O1       1.0000 0.81920  0.74253  0.34700  Biso   1.000  O
  O2       1.0000 0.67610  0.81706  0.51660  Biso   1.000  O
  O3       1.0000 0.51300  0.95032  0.56900  Biso   1.000  O
  O4       1.0000 0.83660  0.90582  0.77060  Biso   1.000  O
  C2       1.0000 0.23520  0.25700  0.47270  Biso   1.000  C
  H2       1.0000 0.21410  0.21870  0.54150  Biso   1.000  H
  O5       1.0000 0.31920  0.24253  0.34700  Biso   1.000  O
  O6       1.0000 0.17610  0.31706  0.51660  Biso   1.000  O
  O7       1.0000 0.01300  0.45032  0.56900  Biso   1.000  O
  O8       1.0000 0.33660  0.40582  0.77060  Biso   1.000  O
  C3       1.0000 0.26480  0.24300  0.97270  Biso   1.000  C
  H3       1.0000 0.28590  0.28130  0.04150  Biso   1.000  H
  O9       1.0000 0.18080  0.25747  0.84700  Biso   1.000  O
  O10      1.0000 0.32390  0.18294  0.01660  Biso   1.000  O
  O11      1.0000 0.48700  0.04968  0.06900  Biso   1.000  O
  O12      1.0000 0.16340  0.09418  0.27060  Biso   1.000  O
  C4       1.0000 0.76480  0.74300  0.97270  Biso   1.000  C
  H4       1.0000 0.78590  0.78130  0.04150  Biso   1.000  H
  O13      1.0000 0.68080  0.75747  0.84700  Biso   1.000  O
  O14      1.0000 0.82390  0.68294  0.01660  Biso   1.000  O
  O15      1.0000 0.98700  0.54968  0.06900  Biso   1.000  O
  O16      1.0000 0.66340  0.59418  0.27060  Biso   1.000  O
  C5       1.0000 0.26480  0.75700  0.02730  Biso   1.000  C
  H5       1.0000 0.28590  0.71870  0.95850  Biso   1.000  H
  O17      1.0000 0.18080  0.74253  0.15300  Biso   1.000  O
  O18      1.0000 0.32390  0.81706  0.98340  Biso   1.000  O
  O19      1.0000 0.48700  0.95032  0.93100  Biso   1.000  O
  O20      1.0000 0.16340  0.90582  0.72940  Biso   1.000  O
  C6       1.0000 0.76480  0.25700  0.02730  Biso   1.000  C
  H6       1.0000 0.78590  0.21870  0.95850  Biso   1.000  H
  O21      1.0000 0.68080  0.24253  0.15300  Biso   1.000  O
  O22      1.0000 0.82390  0.31706  0.98340  Biso   1.000  O
  O23      1.0000 0.98700  0.45032  0.93100  Biso   1.000  O
  O24      1.0000 0.66340  0.40582  0.72940  Biso   1.000  O
  C7       1.0000 0.73520  0.24300  0.52730  Biso   1.000  C
  H7       1.0000 0.71410  0.28130  0.45850  Biso   1.000  H
  O25      1.0000 0.81920  0.25747  0.65300  Biso   1.000  O
  O26      1.0000 0.67610  0.18294  0.48340  Biso   1.000  O
  O27      1.0000 0.51300  0.04968  0.43100  Biso   1.000  O
  O28      1.0000 0.83660  0.09418  0.22940  Biso   1.000  O
  C8       1.0000 0.23520  0.74300  0.52730  Biso   1.000  C
  H8       1.0000 0.21410  0.78130  0.45850  Biso   1.000  H
  O29      1.0000 0.31920  0.75747  0.65300  Biso   1.000  O
  O30      1.0000 0.17610  0.68294  0.48340  Biso   1.000  O
  O31      1.0000 0.01300  0.54968  0.43100  Biso   1.000  O
  O32      1.0000 0.33660  0.59418  0.22940  Biso   1.000  O
  C9       1.0000 0.42610  0.00000  0.50000  Biso   1.000  C
  H9       1.0000 0.28730  0.00000  0.50000  Biso   1.000  H
  C10      1.0000 0.92610  0.50000  0.50000  Biso   1.000  C
  H10      1.0000 0.78730  0.50000  0.50000  Biso   1.000  H
  C11      1.0000 0.57390  0.00000  0.00000  Biso   1.000  C
  H11      1.0000 0.71270  0.00000  0.00000  Biso   1.000  H
  C12      1.0000 0.07390  0.50000  0.00000  Biso   1.000  C
  H12      1.0000 0.21270  0.50000  0.00000  Biso   1.000  H
  C13      1.0000 0.00000  0.87500  0.75000  Biso   1.000  C
  H13      1.0000 0.00000  0.82480  0.75000  Biso   1.000  H
  C14      1.0000 0.50000  0.37500  0.75000  Biso   1.000  C
  H14      1.0000 0.50000  0.32480  0.75000  Biso   1.000  H
  C15      1.0000 0.00000  0.12500  0.25000  Biso   1.000  C
  H15      1.0000 0.00000  0.17520  0.25000  Biso   1.000  H
  C16      1.0000 0.50000  0.62500  0.25000  Biso   1.000  C
  H16      1.0000 0.50000  0.67520  0.25000  Biso   1.000  H
  Tb1      1.0000 0.50000  0.85734  0.75000  Biso   1.000  Tb
  Tb2      1.0000 0.00000  0.35734  0.75000  Biso   1.000  Tb
  Tb3      1.0000 0.50000  0.14266  0.25000  Biso   1.000  Tb
  Tb4      1.0000 0.00000  0.64266  0.25000  Biso   1.000  Tb
