data_image0
_cell_length_a       6.6916
_cell_length_b       18.581
_cell_length_c       8.491
_cell_angle_alpha    90
_cell_angle_beta     90
_cell_angle_gamma    90

_symmetry_space_group_name_H-M    "P 1"
_symmetry_int_tables_number       1

loop_
  _symmetry_equiv_pos_as_xyz
  'x, y, z'

loop_
  _atom_site_label
  _atom_site_occupancy
  _atom_site_fract_x
  _atom_site_fract_y
  _atom_site_fract_z
  _atom_site_thermal_displace_type
  _atom_site_B_iso_or_equiv
  _atom_site_type_symbol
  O1       1.0000 0.48500  0.45009  0.06770  Biso   1.000  O
  O2       1.0000 0.32250  0.31801  0.01560  Biso   1.000  O
  O3       1.0000 0.16300  0.40620  0.27350  Biso   1.000  O
  O4       1.0000 0.18160  0.24351  0.84590  Biso   1.000  O
  C1       1.0000 0.26750  0.25760  0.97250  Biso   1.000  C
  H1       1.0000 0.29230  0.21930  0.04040  Biso   1.000  H
  O5       1.0000 0.98500  0.95009  0.06770  Biso   1.000  O
  O6       1.0000 0.82250  0.81801  0.01560  Biso   1.000  O
  O7       1.0000 0.66300  0.90620  0.27350  Biso   1.000  O
  O8       1.0000 0.68160  0.74351  0.84590  Biso   1.000  O
  C2       1.0000 0.76750  0.75760  0.97250  Biso   1.000  C
  H2       1.0000 0.79230  0.71930  0.04040  Biso   1.000  H
  O9       1.0000 0.51500  0.54991  0.56770  Biso   1.000  O
  O10      1.0000 0.67750  0.68199  0.51560  Biso   1.000  O
  O11      1.0000 0.83700  0.59380  0.77350  Biso   1.000  O
  O12      1.0000 0.81840  0.75649  0.34590  Biso   1.000  O
  C3       1.0000 0.73250  0.74240  0.47250  Biso   1.000  C
  H3       1.0000 0.70770  0.78070  0.54040  Biso   1.000  H
  O13      1.0000 0.01500  0.04991  0.56770  Biso   1.000  O
  O14      1.0000 0.17750  0.18199  0.51560  Biso   1.000  O
  O15      1.0000 0.33700  0.09380  0.77350  Biso   1.000  O
  O16      1.0000 0.31840  0.25649  0.34590  Biso   1.000  O
  C4       1.0000 0.23250  0.24240  0.47250  Biso   1.000  C
  H4       1.0000 0.20770  0.28070  0.54040  Biso   1.000  H
  O17      1.0000 0.51500  0.45009  0.43230  Biso   1.000  O
  O18      1.0000 0.67750  0.31801  0.48440  Biso   1.000  O
  O19      1.0000 0.83700  0.40620  0.22650  Biso   1.000  O
  O20      1.0000 0.81840  0.24351  0.65410  Biso   1.000  O
  C5       1.0000 0.73250  0.25760  0.52750  Biso   1.000  C
  H5       1.0000 0.70770  0.21930  0.45960  Biso   1.000  H
  O21      1.0000 0.01500  0.95009  0.43230  Biso   1.000  O
  O22      1.0000 0.17750  0.81801  0.48440  Biso   1.000  O
  O23      1.0000 0.33700  0.90620  0.22650  Biso   1.000  O
  O24      1.0000 0.31840  0.74351  0.65410  Biso   1.000  O
  C6       1.0000 0.23250  0.75760  0.52750  Biso   1.000  C
  H6       1.0000 0.20770  0.71930  0.45960  Biso   1.000  H
  O25      1.0000 0.48500  0.54991  0.93230  Biso   1.000  O
  O26      1.0000 0.32250  0.68199  0.98440  Biso   1.000  O
  O27      1.0000 0.16300  0.59380  0.72650  Biso   1.000  O
  O28      1.0000 0.18160  0.75649  0.15410  Biso   1.000  O
  C7       1.0000 0.26750  0.74240  0.02750  Biso   1.000  C
  H7       1.0000 0.29230  0.78070  0.95960  Biso   1.000  H
  O29      1.0000 0.98500  0.04991  0.93230  Biso   1.000  O
  O30      1.0000 0.82250  0.18199  0.98440  Biso   1.000  O
  O31      1.0000 0.66300  0.09380  0.72650  Biso   1.000  O
  O32      1.0000 0.68160  0.25649  0.15410  Biso   1.000  O
  C8       1.0000 0.76750  0.24240  0.02750  Biso   1.000  C
  H8       1.0000 0.79230  0.28070  0.95960  Biso   1.000  H
  Gd1      1.0000 0.50000  0.35730  0.25000  Biso   1.000  Gd
  Gd2      1.0000 0.00000  0.85730  0.25000  Biso   1.000  Gd
  Gd3      1.0000 0.50000  0.64270  0.75000  Biso   1.000  Gd
  Gd4      1.0000 0.00000  0.14270  0.75000  Biso   1.000  Gd
  C9       1.0000 0.00000  0.37570  0.25000  Biso   1.000  C
  H9       1.0000 0.00000  0.32560  0.25000  Biso   1.000  H
  C10      1.0000 0.50000  0.87570  0.25000  Biso   1.000  C
  H10      1.0000 0.50000  0.82560  0.25000  Biso   1.000  H
  C11      1.0000 0.00000  0.62430  0.75000  Biso   1.000  C
  H11      1.0000 0.00000  0.67440  0.75000  Biso   1.000  H
  C12      1.0000 0.50000  0.12430  0.75000  Biso   1.000  C
  H12      1.0000 0.50000  0.17440  0.75000  Biso   1.000  H
  C13      1.0000 0.57350  0.50000  0.00000  Biso   1.000  C
  H13      1.0000 0.71100  0.50000  0.00000  Biso   1.000  H
  C14      1.0000 0.07350  0.00000  0.00000  Biso   1.000  C
  H14      1.0000 0.21100  0.00000  0.00000  Biso   1.000  H
  C15      1.0000 0.42650  0.50000  0.50000  Biso   1.000  C
  H15      1.0000 0.28900  0.50000  0.50000  Biso   1.000  H
  C16      1.0000 0.92650  0.00000  0.50000  Biso   1.000  C
  H16      1.0000 0.78900  0.00000  0.50000  Biso   1.000  H
