data_image0
_cell_length_a       6.7427
_cell_length_b       18.653
_cell_length_c       8.546
_cell_angle_alpha    90
_cell_angle_beta     90
_cell_angle_gamma    90

_symmetry_space_group_name_H-M    "P 1"
_symmetry_int_tables_number       1

loop_
  _symmetry_equiv_pos_as_xyz
  'x, y, z'

loop_
  _atom_site_label
  _atom_site_occupancy
  _atom_site_fract_x
  _atom_site_fract_y
  _atom_site_fract_z
  _atom_site_thermal_displace_type
  _atom_site_B_iso_or_equiv
  _atom_site_type_symbol
  O1       1.0000 0.83710  0.59332  0.22850  Biso   1.000  O
  O2       1.0000 0.82280  0.81717  0.98440  Biso   1.000  O
  O3       1.0000 0.68180  0.74296  0.15300  Biso   1.000  O
  O4       1.0000 0.51210  0.54923  0.43210  Biso   1.000  O
  C1       1.0000 0.76690  0.75760  0.02680  Biso   1.000  C
  H1       1.0000 0.79000  0.71970  0.95850  Biso   1.000  H
  O5       1.0000 0.33710  0.09332  0.22850  Biso   1.000  O
  O6       1.0000 0.32280  0.31717  0.98440  Biso   1.000  O
  O7       1.0000 0.18180  0.24296  0.15300  Biso   1.000  O
  O8       1.0000 0.01210  0.04923  0.43210  Biso   1.000  O
  C2       1.0000 0.26690  0.25760  0.02680  Biso   1.000  C
  H2       1.0000 0.29000  0.21970  0.95850  Biso   1.000  H
  O9       1.0000 0.16290  0.40668  0.72850  Biso   1.000  O
  O10      1.0000 0.17720  0.18283  0.48440  Biso   1.000  O
  O11      1.0000 0.31820  0.25704  0.65300  Biso   1.000  O
  O12      1.0000 0.48790  0.45077  0.93210  Biso   1.000  O
  C3       1.0000 0.23310  0.24240  0.52680  Biso   1.000  C
  H3       1.0000 0.21000  0.28030  0.45850  Biso   1.000  H
  O13      1.0000 0.66290  0.90668  0.72850  Biso   1.000  O
  O14      1.0000 0.67720  0.68283  0.48440  Biso   1.000  O
  O15      1.0000 0.81820  0.75704  0.65300  Biso   1.000  O
  O16      1.0000 0.98790  0.95077  0.93210  Biso   1.000  O
  C4       1.0000 0.73310  0.74240  0.52680  Biso   1.000  C
  H4       1.0000 0.71000  0.78030  0.45850  Biso   1.000  H
  O17      1.0000 0.16290  0.59332  0.27150  Biso   1.000  O
  O18      1.0000 0.17720  0.81717  0.51560  Biso   1.000  O
  O19      1.0000 0.31820  0.74296  0.34700  Biso   1.000  O
  O20      1.0000 0.48790  0.54923  0.06790  Biso   1.000  O
  C5       1.0000 0.23310  0.75760  0.47320  Biso   1.000  C
  H5       1.0000 0.21000  0.71970  0.54150  Biso   1.000  H
  O21      1.0000 0.66290  0.09332  0.27150  Biso   1.000  O
  O22      1.0000 0.67720  0.31717  0.51560  Biso   1.000  O
  O23      1.0000 0.81820  0.24296  0.34700  Biso   1.000  O
  O24      1.0000 0.98790  0.04923  0.06790  Biso   1.000  O
  C6       1.0000 0.73310  0.25760  0.47320  Biso   1.000  C
  H6       1.0000 0.71000  0.21970  0.54150  Biso   1.000  H
  O25      1.0000 0.83710  0.40668  0.77150  Biso   1.000  O
  O26      1.0000 0.82280  0.18283  0.01560  Biso   1.000  O
  O27      1.0000 0.68180  0.25704  0.84700  Biso   1.000  O
  O28      1.0000 0.51210  0.45077  0.56790  Biso   1.000  O
  C7       1.0000 0.76690  0.24240  0.97320  Biso   1.000  C
  H7       1.0000 0.79000  0.28030  0.04150  Biso   1.000  H
  O29      1.0000 0.33710  0.90668  0.77150  Biso   1.000  O
  O30      1.0000 0.32280  0.68283  0.01560  Biso   1.000  O
  O31      1.0000 0.18180  0.75704  0.84700  Biso   1.000  O
  O32      1.0000 0.01210  0.95077  0.56790  Biso   1.000  O
  C8       1.0000 0.26690  0.74240  0.97320  Biso   1.000  C
  H8       1.0000 0.29000  0.78030  0.04150  Biso   1.000  H
  Eu1      1.0000 0.50000  0.64250  0.25000  Biso   1.000  Eu
  Eu2      1.0000 0.00000  0.14250  0.25000  Biso   1.000  Eu
  Eu3      1.0000 0.50000  0.35750  0.75000  Biso   1.000  Eu
  Eu4      1.0000 0.00000  0.85750  0.75000  Biso   1.000  Eu
  C9       1.0000 0.00000  0.62390  0.25000  Biso   1.000  C
  H9       1.0000 0.00000  0.67380  0.25000  Biso   1.000  H
  C10      1.0000 0.50000  0.12390  0.25000  Biso   1.000  C
  H10      1.0000 0.50000  0.17380  0.25000  Biso   1.000  H
  C11      1.0000 0.00000  0.37610  0.75000  Biso   1.000  C
  H11      1.0000 0.00000  0.32620  0.75000  Biso   1.000  H
  C12      1.0000 0.50000  0.87610  0.75000  Biso   1.000  C
  H12      1.0000 0.50000  0.82620  0.75000  Biso   1.000  H
  C13      1.0000 0.42820  0.50000  0.50000  Biso   1.000  C
  H13      1.0000 0.29030  0.50000  0.50000  Biso   1.000  H
  C14      1.0000 0.92820  0.00000  0.50000  Biso   1.000  C
  H14      1.0000 0.79030  0.00000  0.50000  Biso   1.000  H
  C15      1.0000 0.57180  0.50000  0.00000  Biso   1.000  C
  H15      1.0000 0.70970  0.50000  0.00000  Biso   1.000  H
  C16      1.0000 0.07180  0.00000  0.00000  Biso   1.000  C
  H16      1.0000 0.20970  0.00000  0.00000  Biso   1.000  H
