data_image0
_cell_length_a       6.6754
_cell_length_b       18.3943
_cell_length_c       8.4571
_cell_angle_alpha    90
_cell_angle_beta     90
_cell_angle_gamma    90

_symmetry_space_group_name_H-M    "P 1"
_symmetry_int_tables_number       1

loop_
  _symmetry_equiv_pos_as_xyz
  'x, y, z'

loop_
  _atom_site_label
  _atom_site_occupancy
  _atom_site_fract_x
  _atom_site_fract_y
  _atom_site_fract_z
  _atom_site_thermal_displace_type
  _atom_site_B_iso_or_equiv
  _atom_site_type_symbol
  O1       1.0000 0.16410  0.09438  0.76950  Biso   1.000  O
  O2       1.0000 0.49000  0.05021  0.56980  Biso   1.000  O
  O3       1.0000 0.17550  0.31651  0.01870  Biso   1.000  O
  O4       1.0000 0.32020  0.24192  0.84800  Biso   1.000  O
  C1       1.0000 0.23670  0.25630  0.97540  Biso   1.000  C
  H1       1.0000 0.21850  0.21780  0.04530  Biso   1.000  H
  O5       1.0000 0.66410  0.59438  0.76950  Biso   1.000  O
  O6       1.0000 0.99000  0.55021  0.56980  Biso   1.000  O
  O7       1.0000 0.67550  0.81651  0.01870  Biso   1.000  O
  O8       1.0000 0.82020  0.74192  0.84800  Biso   1.000  O
  C2       1.0000 0.73670  0.75630  0.97540  Biso   1.000  C
  H2       1.0000 0.71850  0.71780  0.04530  Biso   1.000  H
  O9       1.0000 0.83590  0.90562  0.26950  Biso   1.000  O
  O10      1.0000 0.51000  0.94979  0.06980  Biso   1.000  O
  O11      1.0000 0.82450  0.68349  0.51870  Biso   1.000  O
  O12      1.0000 0.67980  0.75808  0.34800  Biso   1.000  O
  C3       1.0000 0.76330  0.74370  0.47540  Biso   1.000  C
  H3       1.0000 0.78150  0.78220  0.54530  Biso   1.000  H
  O13      1.0000 0.33590  0.40562  0.26950  Biso   1.000  O
  O14      1.0000 0.01000  0.44979  0.06980  Biso   1.000  O
  O15      1.0000 0.32450  0.18349  0.51870  Biso   1.000  O
  O16      1.0000 0.17980  0.25808  0.34800  Biso   1.000  O
  C4       1.0000 0.26330  0.24370  0.47540  Biso   1.000  C
  H4       1.0000 0.28150  0.28220  0.54530  Biso   1.000  H
  O17      1.0000 0.83590  0.09438  0.73050  Biso   1.000  O
  O18      1.0000 0.51000  0.05021  0.93020  Biso   1.000  O
  O19      1.0000 0.82450  0.31651  0.48130  Biso   1.000  O
  O20      1.0000 0.67980  0.24192  0.65200  Biso   1.000  O
  C5       1.0000 0.76330  0.25630  0.52460  Biso   1.000  C
  H5       1.0000 0.78150  0.21780  0.45470  Biso   1.000  H
  O21      1.0000 0.33590  0.59438  0.73050  Biso   1.000  O
  O22      1.0000 0.01000  0.55021  0.93020  Biso   1.000  O
  O23      1.0000 0.32450  0.81651  0.48130  Biso   1.000  O
  O24      1.0000 0.17980  0.74192  0.65200  Biso   1.000  O
  C6       1.0000 0.26330  0.75630  0.52460  Biso   1.000  C
  H6       1.0000 0.28150  0.71780  0.45470  Biso   1.000  H
  O25      1.0000 0.16410  0.90562  0.23050  Biso   1.000  O
  O26      1.0000 0.49000  0.94979  0.43020  Biso   1.000  O
  O27      1.0000 0.17550  0.68349  0.98130  Biso   1.000  O
  O28      1.0000 0.32020  0.75808  0.15200  Biso   1.000  O
  C7       1.0000 0.23670  0.74370  0.02460  Biso   1.000  C
  H7       1.0000 0.21850  0.78220  0.95470  Biso   1.000  H
  O29      1.0000 0.66410  0.40562  0.23050  Biso   1.000  O
  O30      1.0000 0.99000  0.44979  0.43020  Biso   1.000  O
  O31      1.0000 0.67550  0.18349  0.98130  Biso   1.000  O
  O32      1.0000 0.82020  0.25808  0.15200  Biso   1.000  O
  C8       1.0000 0.73670  0.24370  0.02460  Biso   1.000  C
  H8       1.0000 0.71850  0.28220  0.95470  Biso   1.000  H
  Y1       1.0000 0.50000  0.14261  0.75000  Biso   1.000  Y
  Y2       1.0000 0.00000  0.64260  0.75000  Biso   1.000  Y
  Y3       1.0000 0.50000  0.85740  0.25000  Biso   1.000  Y
  Y4       1.0000 0.00000  0.35739  0.25000  Biso   1.000  Y
  C9       1.0000 0.00000  0.12540  0.75000  Biso   1.000  C
  H9       1.0000 0.00000  0.17600  0.75000  Biso   1.000  H
  C10      1.0000 0.50000  0.62540  0.75000  Biso   1.000  C
  H10      1.0000 0.50000  0.67600  0.75000  Biso   1.000  H
  C11      1.0000 0.00000  0.87460  0.25000  Biso   1.000  C
  H11      1.0000 0.00000  0.82400  0.25000  Biso   1.000  H
  C12      1.0000 0.50000  0.37460  0.25000  Biso   1.000  C
  H12      1.0000 0.50000  0.32400  0.25000  Biso   1.000  H
  C13      1.0000 0.57490  0.00000  0.50000  Biso   1.000  C
  H13      1.0000 0.71420  0.00000  0.50000  Biso   1.000  H
  C14      1.0000 0.07490  0.50000  0.50000  Biso   1.000  C
  H14      1.0000 0.21420  0.50000  0.50000  Biso   1.000  H
  C15      1.0000 0.42510  0.00000  0.00000  Biso   1.000  C
  H15      1.0000 0.28580  0.00000  0.00000  Biso   1.000  H
  C16      1.0000 0.92510  0.50000  0.00000  Biso   1.000  C
  H16      1.0000 0.78580  0.50000  0.00000  Biso   1.000  H
