data_WIHWAN_clean
_audit_creation_date              2015-10-16
_audit_creation_method            'Materials Studio'
_symmetry_space_group_name_H-M    'P1'
_symmetry_Int_Tables_number       1
_symmetry_cell_setting            triclinic
loop_
_symmetry_equiv_pos_as_xyz
  x,y,z
_cell_length_a                    19.0903
_cell_length_b                    19.0903
_cell_length_c                    27.4295
_cell_angle_alpha                 110.3640
_cell_angle_beta                  110.3640
_cell_angle_gamma                 90.0001
loop_
_atom_site_label
_atom_site_type_symbol
_atom_site_fract_x
_atom_site_fract_y
_atom_site_fract_z
_atom_site_U_iso_or_equiv
_atom_site_adp_type
_atom_site_occupancy
Zn1    Zn    0.50576   0.43093   0.51151   0.01267  Uiso   1.00
Zn2    Zn    0.43093   0.50576   0.01151   0.01267  Uiso   1.00
Zn3    Zn    0.50576   0.08058   0.51152   0.01267  Uiso   1.00
Zn4    Zn    0.91942   0.49424   0.98848   0.01267  Uiso   1.00
Zn5    Zn    0.08058   0.50576   0.01152   0.01267  Uiso   1.00
Zn6    Zn    0.56907   0.49424   0.98849   0.01267  Uiso   1.00
Zn7    Zn    0.49424   0.56907   0.48849   0.01267  Uiso   1.00
Zn8    Zn    0.49424   0.91942   0.48848   0.01267  Uiso   1.00
H1     H     0.76640   0.52090   0.91680   0.01267  Uiso   1.00
H2     H     0.74220   0.82090   0.18940   0.01267  Uiso   1.00
H3     H     0.58530   0.31220   0.38120   0.01267  Uiso   1.00
H4     H     0.25780   0.63150   0.81060   0.01267  Uiso   1.00
H5     H     0.65040   0.52090   0.91680   0.01267  Uiso   1.00
H6     H     0.16140   0.34630   0.20220   0.01267  Uiso   1.00
H7     H     0.38320   0.79550   0.47500   0.01267  Uiso   1.00
H8     H     0.32050   0.40820   0.02500   0.01267  Uiso   1.00
H9     H     0.52090   0.76640   0.41680   0.01267  Uiso   1.00
H10    H     0.74220   0.36850   0.18940   0.01267  Uiso   1.00
H11    H     0.67950   0.38320   0.97500   0.01267  Uiso   1.00
H12    H     0.40820   0.20450   0.52500   0.01267  Uiso   1.00
H13    H     0.74010   0.14510   0.63300   0.01267  Uiso   1.00
H14    H     0.25990   0.51210   0.36700   0.01267  Uiso   1.00
H15    H     0.17910   0.25780   0.31060   0.01267  Uiso   1.00
H16    H     0.54080   0.85590   0.20220   0.01267  Uiso   1.00
H17    H     0.41470   0.93100   0.61880   0.01267  Uiso   1.00
H18    H     0.61680   0.32050   0.52500   0.01267  Uiso   1.00
H19    H     0.65040   0.39590   0.91680   0.01267  Uiso   1.00
H20    H     0.85490   0.25990   0.86700   0.01267  Uiso   1.00
H21    H     0.20450   0.61680   0.02500   0.01267  Uiso   1.00
H22    H     0.72380   0.48890   0.06160   0.01267  Uiso   1.00
H23    H     0.48790   0.39290   0.13300   0.01267  Uiso   1.00
H24    H     0.48890   0.83780   0.56160   0.01267  Uiso   1.00
H25    H     0.48790   0.74010   0.13300   0.01267  Uiso   1.00
H26    H     0.36850   0.74220   0.68940   0.01267  Uiso   1.00
H27    H     0.85590   0.54080   0.70220   0.01267  Uiso   1.00
H28    H     0.82090   0.94720   0.68940   0.01267  Uiso   1.00
H29    H     0.34630   0.54080   0.70220   0.01267  Uiso   1.00
H30    H     0.67950   0.59180   0.97500   0.01267  Uiso   1.00
H31    H     0.40820   0.32050   0.52500   0.01267  Uiso   1.00
H32    H     0.83780   0.48890   0.06160   0.01267  Uiso   1.00
H33    H     0.14510   0.39290   0.13300   0.01267  Uiso   1.00
H34    H     0.83860   0.14410   0.79780   0.01267  Uiso   1.00
H35    H     0.93100   0.41470   0.11880   0.01267  Uiso   1.00
H36    H     0.85490   0.60710   0.86700   0.01267  Uiso   1.00
H37    H     0.59180   0.79550   0.47500   0.01267  Uiso   1.00
H38    H     0.31220   0.29590   0.88120   0.01267  Uiso   1.00
H39    H     0.05280   0.63150   0.81060   0.01267  Uiso   1.00
H40    H     0.70410   0.93100   0.61880   0.01267  Uiso   1.00
H41    H     0.60410   0.23360   0.58320   0.01267  Uiso   1.00
H42    H     0.14410   0.83860   0.29780   0.01267  Uiso   1.00
H43    H     0.27620   0.51110   0.93840   0.01267  Uiso   1.00
H44    H     0.52090   0.65040   0.41680   0.01267  Uiso   1.00
H45    H     0.47910   0.34960   0.58320   0.01267  Uiso   1.00
H46    H     0.60710   0.85490   0.36700   0.01267  Uiso   1.00
H47    H     0.93100   0.70410   0.11880   0.01267  Uiso   1.00
H48    H     0.38320   0.67950   0.47500   0.01267  Uiso   1.00
H49    H     0.79550   0.59180   0.97500   0.01267  Uiso   1.00
H50    H     0.45920   0.14410   0.79780   0.01267  Uiso   1.00
H51    H     0.16220   0.42730   0.93840   0.01267  Uiso   1.00
H52    H     0.83860   0.65370   0.79780   0.01267  Uiso   1.00
H53    H     0.45920   0.65370   0.79780   0.01267  Uiso   1.00
H54    H     0.82090   0.74220   0.68940   0.01267  Uiso   1.00
H55    H     0.83780   0.57270   0.06160   0.01267  Uiso   1.00
H56    H     0.94720   0.82090   0.18940   0.01267  Uiso   1.00
H57    H     0.65370   0.83860   0.29780   0.01267  Uiso   1.00
H58    H     0.85590   0.16140   0.70220   0.01267  Uiso   1.00
H59    H     0.14410   0.45920   0.29780   0.01267  Uiso   1.00
H60    H     0.51110   0.16220   0.43840   0.01267  Uiso   1.00
H61    H     0.42730   0.16220   0.43840   0.01267  Uiso   1.00
H62    H     0.25990   0.85490   0.36700   0.01267  Uiso   1.00
H63    H     0.06900   0.58530   0.88120   0.01267  Uiso   1.00
H64    H     0.70410   0.68780   0.61880   0.01267  Uiso   1.00
H65    H     0.29590   0.31220   0.38120   0.01267  Uiso   1.00
H66    H     0.34960   0.60410   0.08320   0.01267  Uiso   1.00
H67    H     0.17910   0.05280   0.31060   0.01267  Uiso   1.00
H68    H     0.48890   0.72380   0.56160   0.01267  Uiso   1.00
H69    H     0.05280   0.17910   0.81060   0.01267  Uiso   1.00
H70    H     0.29590   0.06900   0.38120   0.01267  Uiso   1.00
H71    H     0.59180   0.67950   0.47500   0.01267  Uiso   1.00
H72    H     0.68780   0.70410   0.11880   0.01267  Uiso   1.00
H73    H     0.36850   0.94720   0.68940   0.01267  Uiso   1.00
H74    H     0.16140   0.85590   0.20220   0.01267  Uiso   1.00
H75    H     0.54080   0.34630   0.20220   0.01267  Uiso   1.00
H76    H     0.63150   0.25780   0.31060   0.01267  Uiso   1.00
H77    H     0.25780   0.17910   0.81060   0.01267  Uiso   1.00
H78    H     0.39290   0.48790   0.63300   0.01267  Uiso   1.00
H79    H     0.14510   0.74010   0.13300   0.01267  Uiso   1.00
H80    H     0.06900   0.29590   0.88120   0.01267  Uiso   1.00
H81    H     0.60410   0.34960   0.58320   0.01267  Uiso   1.00
H82    H     0.79550   0.38320   0.97500   0.01267  Uiso   1.00
H83    H     0.94720   0.36850   0.18940   0.01267  Uiso   1.00
H84    H     0.51210   0.60710   0.86700   0.01267  Uiso   1.00
H85    H     0.51110   0.27620   0.43840   0.01267  Uiso   1.00
H86    H     0.20450   0.40820   0.02500   0.01267  Uiso   1.00
H87    H     0.60710   0.51210   0.36700   0.01267  Uiso   1.00
H88    H     0.72380   0.57270   0.06160   0.01267  Uiso   1.00
H89    H     0.42730   0.27620   0.43840   0.01267  Uiso   1.00
H90    H     0.31220   0.58530   0.88120   0.01267  Uiso   1.00
H91    H     0.58530   0.06900   0.38120   0.01267  Uiso   1.00
H92    H     0.23360   0.47910   0.08320   0.01267  Uiso   1.00
H93    H     0.16220   0.51110   0.93840   0.01267  Uiso   1.00
H94    H     0.63150   0.05280   0.31060   0.01267  Uiso   1.00
H95    H     0.47910   0.23360   0.58320   0.01267  Uiso   1.00
H96    H     0.39590   0.76640   0.41680   0.01267  Uiso   1.00
H97    H     0.76640   0.39590   0.91680   0.01267  Uiso   1.00
H98    H     0.65370   0.45920   0.29780   0.01267  Uiso   1.00
H99    H     0.68780   0.41470   0.11880   0.01267  Uiso   1.00
H100   H     0.57270   0.83780   0.56160   0.01267  Uiso   1.00
H101   H     0.27620   0.42730   0.93840   0.01267  Uiso   1.00
H102   H     0.74010   0.48790   0.63300   0.01267  Uiso   1.00
H103   H     0.61680   0.20450   0.52500   0.01267  Uiso   1.00
H104   H     0.23360   0.60410   0.08320   0.01267  Uiso   1.00
H105   H     0.39590   0.65040   0.41680   0.01267  Uiso   1.00
H106   H     0.34960   0.47910   0.08320   0.01267  Uiso   1.00
H107   H     0.39290   0.14510   0.63300   0.01267  Uiso   1.00
H108   H     0.57270   0.72380   0.56160   0.01267  Uiso   1.00
H109   H     0.51210   0.25990   0.86700   0.01267  Uiso   1.00
H110   H     0.34630   0.16140   0.70220   0.01267  Uiso   1.00
H111   H     0.41470   0.68780   0.61880   0.01267  Uiso   1.00
H112   H     0.32050   0.61680   0.02500   0.01267  Uiso   1.00
C1     C     0.05592   0.35512   0.20468   0.01267  Uiso   1.00
C2     C     0.65837   0.23667   0.22214   0.01267  Uiso   1.00
C3     C     0.97897   0.73450   0.13660   0.01267  Uiso   1.00
C4     C     0.26550   0.34237   0.36340   0.01267  Uiso   1.00
C5     C     0.75602   0.54026   0.64498   0.01267  Uiso   1.00
C6     C     0.58362   0.23124   0.54404   0.01267  Uiso   1.00
C7     C     0.23667   0.06377   0.72214   0.01267  Uiso   1.00
C8     C     0.06377   0.98547   0.22214   0.01267  Uiso   1.00
C9     C     0.19554   0.01154   0.32128   0.01267  Uiso   1.00
C10    C     0.34163   0.76333   0.77786   0.01267  Uiso   1.00
C11    C     0.23124   0.58362   0.04404   0.01267  Uiso   1.00
C12    C     0.58838   0.41556   0.37966   0.01267  Uiso   1.00
C13    C     0.01453   0.93623   0.27786   0.01267  Uiso   1.00
C14    C     0.01154   0.62574   0.82128   0.01267  Uiso   1.00
C15    C     0.98547   0.06377   0.72214   0.01267  Uiso   1.00
C16    C     0.64488   0.35124   0.29532   0.01267  Uiso   1.00
C17    C     0.03590   0.41162   0.12034   0.01267  Uiso   1.00
C18    C     0.23124   0.46042   0.04404   0.01267  Uiso   1.00
C19    C     0.35124   0.15044   0.79532   0.01267  Uiso   1.00
C20    C     0.59790   0.34237   0.36340   0.01267  Uiso   1.00
C21    C     0.82441   0.11425   0.68592   0.01267  Uiso   1.00
C22    C     0.54026   0.38896   0.14498   0.01267  Uiso   1.00
C23    C     0.58444   0.70872   0.12034   0.01267  Uiso   1.00
C24    C     0.36833   0.45010   0.42446   0.01267  Uiso   1.00
C25    C     0.31280   0.46042   0.04404   0.01267  Uiso   1.00
C26    C     0.70872   0.58444   0.62034   0.01267  Uiso   1.00
C27    C     0.46042   0.23124   0.54404   0.01267  Uiso   1.00
C28    C     0.02564   0.63167   0.07554   0.01267  Uiso   1.00
C29    C     0.76333   0.34163   0.27786   0.01267  Uiso   1.00
C30    C     0.02564   0.44387   0.07554   0.01267  Uiso   1.00
C31    C     0.18941   0.47931   0.95862   0.01267  Uiso   1.00
C32    C     0.03590   0.70872   0.12034   0.01267  Uiso   1.00
C33    C     0.46042   0.31280   0.54404   0.01267  Uiso   1.00
C34    C     0.35124   0.64488   0.79532   0.01267  Uiso   1.00
C35    C     0.94408   0.64488   0.79532   0.01267  Uiso   1.00
C36    C     0.41638   0.76876   0.45596   0.01267  Uiso   1.00
C37    C     0.19554   0.30974   0.32128   0.01267  Uiso   1.00
C38    C     0.98846   0.80446   0.17872   0.01267  Uiso   1.00
C39    C     0.45010   0.36833   0.92446   0.01267  Uiso   1.00
C40    C     0.26921   0.47931   0.95862   0.01267  Uiso   1.00
C41    C     0.01154   0.19554   0.82128   0.01267  Uiso   1.00
C42    C     0.68720   0.53958   0.95596   0.01267  Uiso   1.00
C43    C     0.36833   0.97436   0.42446   0.01267  Uiso   1.00
C44    C     0.62574   0.30974   0.32128   0.01267  Uiso   1.00
C45    C     0.45974   0.61104   0.85502   0.01267  Uiso   1.00
C46    C     0.57167   0.82441   0.18592   0.01267  Uiso   1.00
C47    C     0.11425   0.82441   0.18592   0.01267  Uiso   1.00
C48    C     0.63167   0.54990   0.57554   0.01267  Uiso   1.00
C49    C     0.63849   0.42833   0.31408   0.01267  Uiso   1.00
C50    C     0.45974   0.24398   0.85502   0.01267  Uiso   1.00
C51    C     0.76333   0.93623   0.27786   0.01267  Uiso   1.00
C52    C     0.24398   0.45974   0.35502   0.01267  Uiso   1.00
C53    C     0.30974   0.19554   0.82128   0.01267  Uiso   1.00
C54    C     0.38896   0.10472   0.64498   0.01267  Uiso   1.00
C55    C     0.58838   0.96410   0.37966   0.01267  Uiso   1.00
C56    C     0.65763   0.73450   0.13660   0.01267  Uiso   1.00
C57    C     0.10472   0.38896   0.14498   0.01267  Uiso   1.00
C58    C     0.45010   0.55613   0.92446   0.01267  Uiso   1.00
C59    C     0.30974   0.62574   0.82128   0.01267  Uiso   1.00
C60    C     0.64488   0.94408   0.29532   0.01267  Uiso   1.00
C61    C     0.34237   0.59790   0.86340   0.01267  Uiso   1.00
C62    C     0.98846   0.37426   0.17872   0.01267  Uiso   1.00
C63    C     0.61104   0.45974   0.35502   0.01267  Uiso   1.00
C64    C     0.73450   0.97897   0.63660   0.01267  Uiso   1.00
C65    C     0.61104   0.89528   0.35502   0.01267  Uiso   1.00
C66    C     0.80446   0.69026   0.67872   0.01267  Uiso   1.00
C67    C     0.07230   0.32230   0.25000   0.01267  Uiso   1.00
C68    C     0.44387   0.02564   0.57554   0.01267  Uiso   1.00
C69    C     0.40210   0.65763   0.63660   0.01267  Uiso   1.00
C70    C     0.35512   0.05592   0.70468   0.01267  Uiso   1.00
C71    C     0.41556   0.58838   0.87966   0.01267  Uiso   1.00
C72    C     0.59790   0.02103   0.36340   0.01267  Uiso   1.00
C73    C     0.93623   0.76333   0.77786   0.01267  Uiso   1.00
C74    C     0.76876   0.41638   0.95596   0.01267  Uiso   1.00
C75    C     0.65763   0.40210   0.13660   0.01267  Uiso   1.00
C76    C     0.37426   0.98846   0.67872   0.01267  Uiso   1.00
C77    C     0.11425   0.36151   0.18592   0.01267  Uiso   1.00
C78    C     0.68720   0.41638   0.95596   0.01267  Uiso   1.00
C79    C     0.82441   0.57167   0.68592   0.01267  Uiso   1.00
C80    C     0.97436   0.36833   0.92446   0.01267  Uiso   1.00
C81    C     0.41162   0.03590   0.62034   0.01267  Uiso   1.00
C82    C     0.80446   0.98846   0.67872   0.01267  Uiso   1.00
C83    C     0.92770   0.07230   0.75000   0.01267  Uiso   1.00
C84    C     0.42833   0.17559   0.81408   0.01267  Uiso   1.00
C85    C     0.38896   0.54026   0.64498   0.01267  Uiso   1.00
C86    C     0.41162   0.58444   0.62034   0.01267  Uiso   1.00
C87    C     0.84956   0.05592   0.70468   0.01267  Uiso   1.00
C88    C     0.63849   0.88575   0.31408   0.01267  Uiso   1.00
C89    C     0.64876   0.35512   0.20468   0.01267  Uiso   1.00
C90    C     0.76876   0.53958   0.95596   0.01267  Uiso   1.00
C91    C     0.55613   0.97436   0.42446   0.01267  Uiso   1.00
C92    C     0.98547   0.65837   0.72214   0.01267  Uiso   1.00
C93    C     0.96410   0.58838   0.87966   0.01267  Uiso   1.00
C94    C     0.53958   0.76876   0.45596   0.01267  Uiso   1.00
C95    C     0.96410   0.29128   0.87966   0.01267  Uiso   1.00
C96    C     0.75602   0.10472   0.64498   0.01267  Uiso   1.00
C97    C     0.54990   0.44387   0.07554   0.01267  Uiso   1.00
C98    C     0.54990   0.63167   0.07554   0.01267  Uiso   1.00
C99    C     0.94408   0.15044   0.79532   0.01267  Uiso   1.00
C100   C     0.93623   0.01453   0.77786   0.01267  Uiso   1.00
C101   C     0.97436   0.55613   0.92446   0.01267  Uiso   1.00
C102   C     0.23667   0.65837   0.72214   0.01267  Uiso   1.00
C103   C     0.58362   0.31280   0.54404   0.01267  Uiso   1.00
C104   C     0.32230   0.07230   0.75000   0.01267  Uiso   1.00
C105   C     0.44387   0.54990   0.57554   0.01267  Uiso   1.00
C106   C     0.02103   0.59790   0.86340   0.01267  Uiso   1.00
C107   C     0.26550   0.02103   0.36340   0.01267  Uiso   1.00
C108   C     0.29128   0.41556   0.37966   0.01267  Uiso   1.00
C109   C     0.06377   0.23667   0.22214   0.01267  Uiso   1.00
C110   C     0.64876   0.84956   0.20468   0.01267  Uiso   1.00
C111   C     0.69026   0.37426   0.17872   0.01267  Uiso   1.00
C112   C     0.62574   0.01154   0.32128   0.01267  Uiso   1.00
C113   C     0.10472   0.75602   0.14498   0.01267  Uiso   1.00
C114   C     0.35512   0.64876   0.70468   0.01267  Uiso   1.00
C115   C     0.55613   0.45010   0.42446   0.01267  Uiso   1.00
C116   C     0.52069   0.73079   0.54138   0.01267  Uiso   1.00
C117   C     0.32230   0.67770   0.75000   0.01267  Uiso   1.00
C118   C     0.57167   0.36151   0.18592   0.01267  Uiso   1.00
C119   C     0.36151   0.57167   0.68592   0.01267  Uiso   1.00
C120   C     0.70872   0.03590   0.62034   0.01267  Uiso   1.00
C121   C     0.52069   0.81059   0.54138   0.01267  Uiso   1.00
C122   C     0.47931   0.26921   0.45862   0.01267  Uiso   1.00
C123   C     0.05592   0.84956   0.20468   0.01267  Uiso   1.00
C124   C     0.41556   0.29128   0.87966   0.01267  Uiso   1.00
C125   C     0.89528   0.61104   0.85502   0.01267  Uiso   1.00
C126   C     0.47931   0.18941   0.45862   0.01267  Uiso   1.00
C127   C     0.65837   0.98547   0.22214   0.01267  Uiso   1.00
C128   C     0.36151   0.11425   0.68592   0.01267  Uiso   1.00
C129   C     0.58444   0.41162   0.12034   0.01267  Uiso   1.00
C130   C     0.88575   0.63849   0.81408   0.01267  Uiso   1.00
C131   C     0.88575   0.17559   0.81408   0.01267  Uiso   1.00
C132   C     0.67770   0.92770   0.25000   0.01267  Uiso   1.00
C133   C     0.53958   0.68720   0.45596   0.01267  Uiso   1.00
C134   C     0.17559   0.42833   0.31408   0.01267  Uiso   1.00
C135   C     0.01453   0.34163   0.27786   0.01267  Uiso   1.00
C136   C     0.41638   0.68720   0.45596   0.01267  Uiso   1.00
C137   C     0.89528   0.24398   0.85502   0.01267  Uiso   1.00
C138   C     0.73079   0.52069   0.04138   0.01267  Uiso   1.00
C139   C     0.37426   0.69026   0.67872   0.01267  Uiso   1.00
C140   C     0.42833   0.63849   0.81408   0.01267  Uiso   1.00
C141   C     0.54026   0.75602   0.14498   0.01267  Uiso   1.00
C142   C     0.34237   0.26550   0.86340   0.01267  Uiso   1.00
C143   C     0.24398   0.89528   0.35502   0.01267  Uiso   1.00
C144   C     0.07230   0.92770   0.25000   0.01267  Uiso   1.00
C145   C     0.02103   0.26550   0.86340   0.01267  Uiso   1.00
C146   C     0.34163   0.01453   0.77786   0.01267  Uiso   1.00
C147   C     0.15044   0.35124   0.29532   0.01267  Uiso   1.00
C148   C     0.97897   0.40210   0.13660   0.01267  Uiso   1.00
C149   C     0.29128   0.96410   0.37966   0.01267  Uiso   1.00
C150   C     0.92770   0.67770   0.75000   0.01267  Uiso   1.00
C151   C     0.67770   0.32230   0.25000   0.01267  Uiso   1.00
C152   C     0.81059   0.52069   0.04138   0.01267  Uiso   1.00
C153   C     0.73450   0.65763   0.63660   0.01267  Uiso   1.00
C154   C     0.15044   0.94408   0.29532   0.01267  Uiso   1.00
C155   C     0.63167   0.02564   0.57554   0.01267  Uiso   1.00
C156   C     0.40210   0.97897   0.63660   0.01267  Uiso   1.00
C157   C     0.17559   0.88575   0.31408   0.01267  Uiso   1.00
C158   C     0.31280   0.58362   0.04404   0.01267  Uiso   1.00
C159   C     0.84956   0.64876   0.70468   0.01267  Uiso   1.00
C160   C     0.69026   0.80446   0.17872   0.01267  Uiso   1.00
N1     N     0.50786   0.18960   0.51572   0.01267  Uiso   1.00
N2     N     0.81040   0.49214   0.98428   0.01267  Uiso   1.00
N3     N     0.49214   0.81040   0.48428   0.01267  Uiso   1.00
N4     N     0.32612   0.50786   0.01572   0.01267  Uiso   1.00
N5     N     0.18960   0.50786   0.01572   0.01267  Uiso   1.00
N6     N     0.50786   0.32612   0.51572   0.01267  Uiso   1.00
N7     N     0.49214   0.67388   0.48428   0.01267  Uiso   1.00
N8     N     0.67388   0.49214   0.98428   0.01267  Uiso   1.00
O1     O     0.40243   0.03999   0.45028   0.01267  Uiso   1.00
O2     O     0.58971   0.45215   0.04972   0.01267  Uiso   1.00
O3     O     0.40243   0.41029   0.45028   0.01267  Uiso   1.00
O4     O     0.08328   0.45904   0.06792   0.01267  Uiso   1.00
O5     O     0.91672   0.39112   0.93208   0.01267  Uiso   1.00
O6     O     0.60888   0.08328   0.56792   0.01267  Uiso   1.00
O7     O     0.54096   0.51536   0.43208   0.01267  Uiso   1.00
O8     O     0.51536   0.39112   0.93208   0.01267  Uiso   1.00
O9     O     0.96001   0.59757   0.04972   0.01267  Uiso   1.00
O10    O     0.54785   0.03999   0.45028   0.01267  Uiso   1.00
O11    O     0.45215   0.96001   0.54972   0.01267  Uiso   1.00
O12    O     0.59757   0.96001   0.54972   0.01267  Uiso   1.00
O13    O     0.51536   0.54096   0.93208   0.01267  Uiso   1.00
O14    O     0.03999   0.54785   0.95028   0.01267  Uiso   1.00
O15    O     0.45904   0.48464   0.56792   0.01267  Uiso   1.00
O16    O     0.58971   0.59757   0.04972   0.01267  Uiso   1.00
O17    O     0.03999   0.40243   0.95028   0.01267  Uiso   1.00
O18    O     0.60888   0.48464   0.56792   0.01267  Uiso   1.00
O19    O     0.39112   0.51536   0.43208   0.01267  Uiso   1.00
O20    O     0.59757   0.58971   0.54972   0.01267  Uiso   1.00
O21    O     0.54096   0.91672   0.43208   0.01267  Uiso   1.00
O22    O     0.48464   0.45904   0.06792   0.01267  Uiso   1.00
O23    O     0.41029   0.40243   0.95028   0.01267  Uiso   1.00
O24    O     0.48464   0.60888   0.06792   0.01267  Uiso   1.00
O25    O     0.96001   0.45215   0.04972   0.01267  Uiso   1.00
O26    O     0.41029   0.54785   0.95028   0.01267  Uiso   1.00
O27    O     0.39112   0.91672   0.43208   0.01267  Uiso   1.00
O28    O     0.08328   0.60888   0.06792   0.01267  Uiso   1.00
O29    O     0.45904   0.08328   0.56792   0.01267  Uiso   1.00
O30    O     0.91672   0.54096   0.93208   0.01267  Uiso   1.00
O31    O     0.54785   0.41029   0.45028   0.01267  Uiso   1.00
O32    O     0.45215   0.58971   0.54972   0.01267  Uiso   1.00
F1     F     0.69535   0.05557   0.25412   0.01267  Uiso   1.00
F2     F     0.32213   0.03560   0.82430   0.01267  Uiso   1.00
F3     F     0.03560   0.32213   0.32430   0.01267  Uiso   1.00
F4     F     0.00988   0.88147   0.29848   0.01267  Uiso   1.00
F5     F     0.99012   0.11853   0.70152   0.01267  Uiso   1.00
F6     F     0.94123   0.94443   0.74588   0.01267  Uiso   1.00
F7     F     0.99783   0.96440   0.17570   0.01267  Uiso   1.00
F8     F     0.32213   0.78870   0.82430   0.01267  Uiso   1.00
F9     F     0.99783   0.21130   0.17570   0.01267  Uiso   1.00
F10    F     0.96440   0.99783   0.67570   0.01267  Uiso   1.00
F11    F     0.30465   0.94443   0.74588   0.01267  Uiso   1.00
F12    F     0.94443   0.30465   0.24588   0.01267  Uiso   1.00
F13    F     0.05877   0.19855   0.25412   0.01267  Uiso   1.00
F14    F     0.05557   0.69535   0.75412   0.01267  Uiso   1.00
F15    F     0.11853   0.99012   0.20152   0.01267  Uiso   1.00
F16    F     0.80145   0.94123   0.24588   0.01267  Uiso   1.00
F17    F     0.21130   0.99783   0.67570   0.01267  Uiso   1.00
F18    F     0.67787   0.96440   0.17570   0.01267  Uiso   1.00
F19    F     0.00217   0.03560   0.82430   0.01267  Uiso   1.00
F20    F     0.94123   0.80145   0.74588   0.01267  Uiso   1.00
F21    F     0.78860   0.88147   0.29848   0.01267  Uiso   1.00
F22    F     0.00217   0.78870   0.82430   0.01267  Uiso   1.00
F23    F     0.58299   0.99012   0.20152   0.01267  Uiso   1.00
F24    F     0.99012   0.58299   0.70152   0.01267  Uiso   1.00
F25    F     0.69535   0.19855   0.25412   0.01267  Uiso   1.00
F26    F     0.05557   0.05877   0.75412   0.01267  Uiso   1.00
F27    F     0.94443   0.94123   0.24588   0.01267  Uiso   1.00
F28    F     0.30465   0.80145   0.74588   0.01267  Uiso   1.00
F29    F     0.19855   0.69535   0.75412   0.01267  Uiso   1.00
F30    F     0.80145   0.30465   0.24588   0.01267  Uiso   1.00
F31    F     0.78860   0.41701   0.29848   0.01267  Uiso   1.00
F32    F     0.19855   0.05877   0.75412   0.01267  Uiso   1.00
F33    F     0.05877   0.05557   0.25412   0.01267  Uiso   1.00
F34    F     0.96440   0.67787   0.67570   0.01267  Uiso   1.00
F35    F     0.78870   0.32213   0.32430   0.01267  Uiso   1.00
F36    F     0.21140   0.58299   0.70152   0.01267  Uiso   1.00
F37    F     0.11853   0.21140   0.20152   0.01267  Uiso   1.00
F38    F     0.41701   0.78860   0.79848   0.01267  Uiso   1.00
F39    F     0.03560   0.00217   0.32430   0.01267  Uiso   1.00
F40    F     0.67787   0.21130   0.17570   0.01267  Uiso   1.00
F41    F     0.21130   0.67787   0.67570   0.01267  Uiso   1.00
F42    F     0.41701   0.00988   0.79848   0.01267  Uiso   1.00
F43    F     0.88147   0.78860   0.79848   0.01267  Uiso   1.00
F44    F     0.58299   0.21140   0.20152   0.01267  Uiso   1.00
F45    F     0.88147   0.00988   0.79848   0.01267  Uiso   1.00
F46    F     0.21140   0.11853   0.70152   0.01267  Uiso   1.00
F47    F     0.00988   0.41701   0.29848   0.01267  Uiso   1.00
F48    F     0.78870   0.00217   0.32430   0.01267  Uiso   1.00
