data_image0
_cell_length_a       22.8973
_cell_length_b       26.5061
_cell_length_c       31.6472
_cell_angle_alpha    90
_cell_angle_beta     90
_cell_angle_gamma    90

_symmetry_space_group_name_H-M    "P 1"
_symmetry_int_tables_number       1

loop_
  _symmetry_equiv_pos_as_xyz
  'x, y, z'

loop_
  _atom_site_label
  _atom_site_occupancy
  _atom_site_fract_x
  _atom_site_fract_y
  _atom_site_fract_z
  _atom_site_thermal_displace_type
  _atom_site_B_iso_or_equiv
  _atom_site_type_symbol
  Zn1      1.0000 0.71904  0.65640  0.68091  Biso   1.000  Zn
  Zn2      1.0000 0.61665  0.71750  0.73333  Biso   1.000  Zn
  N1       1.0000 0.93159  0.48878  0.75105  Biso   1.000  N
  H1       1.0000 0.91250  0.46770  0.73570  Biso   1.000  H
  N2       1.0000 0.76990  0.68724  0.45863  Biso   1.000  N
  H2       1.0000 0.73710  0.67270  0.45360  Biso   1.000  H
  O1       1.0000 0.80837  0.69005  0.75133  Biso   1.000  O
  O2       1.0000 0.77390  0.62198  0.71739  Biso   1.000  O
  O3       1.0000 0.15156  0.38986  0.81589  Biso   1.000  O
  O4       1.0000 0.08576  0.35046  0.77479  Biso   1.000  O
  O5       1.0000 0.80687  0.70321  0.64747  Biso   1.000  O
  O6       1.0000 0.73446  0.65976  0.61990  Biso   1.000  O
  O7       1.0000 0.79747  0.71150  0.29665  Biso   1.000  O
  O8       1.0000 0.89244  0.72992  0.29341  Biso   1.000  O
  O9       1.0000 0.69205  0.72106  0.70481  Biso   1.000  O
  H3       1.0000 0.69210  0.74130  0.68940  Biso   1.000  H
  C1       1.0000 0.81033  0.64433  0.74091  Biso   1.000  C
  C2       1.0000 0.86072  0.61392  0.75705  Biso   1.000  C
  C3       1.0000 0.90248  0.63655  0.78355  Biso   1.000  C
  H4       1.0000 0.89760  0.66990  0.79200  Biso   1.000  H
  C4       1.0000 0.95055  0.60986  0.79706  Biso   1.000  C
  H5       1.0000 0.97830  0.62530  0.81420  Biso   1.000  H
  C5       1.0000 0.95762  0.55970  0.78500  Biso   1.000  C
  C6       1.0000 0.91539  0.53783  0.75906  Biso   1.000  C
  C7       1.0000 0.86706  0.56449  0.74459  Biso   1.000  C
  H6       1.0000 0.83970  0.54930  0.72700  Biso   1.000  H
  C8       1.0000 0.00030  0.52188  0.79357  Biso   1.000  C
  C9       1.0000 0.05067  0.52039  0.81725  Biso   1.000  C
  H7       1.0000 0.06230  0.54830  0.83290  Biso   1.000  H
  C10      1.0000 0.08354  0.47688  0.81740  Biso   1.000  C
  H8       1.0000 0.11780  0.47600  0.83320  Biso   1.000  H
  C11      1.0000 0.06722  0.43433  0.79470  Biso   1.000  C
  C12      1.0000 0.01631  0.43509  0.77166  Biso   1.000  C
  H9       1.0000 0.00430  0.40690  0.75650  Biso   1.000  H
  C13      1.0000 0.98312  0.47912  0.77153  Biso   1.000  C
  C14      1.0000 0.10481  0.38797  0.79526  Biso   1.000  C
  C15      1.0000 0.77990  0.68677  0.61590  Biso   1.000  C
  C16      1.0000 0.80129  0.69804  0.57274  Biso   1.000  C
  C17      1.0000 0.85382  0.72417  0.56820  Biso   1.000  C
  H10      1.0000 0.87420  0.73370  0.59240  Biso   1.000  H
  C18      1.0000 0.87659  0.73636  0.52930  Biso   1.000  C
  H11      1.0000 0.91160  0.75390  0.52710  Biso   1.000  H
  C19      1.0000 0.84606  0.72179  0.49319  Biso   1.000  C
  C20      1.0000 0.79226  0.69615  0.49822  Biso   1.000  C
  C21      1.0000 0.77036  0.68446  0.53756  Biso   1.000  C
  H12      1.0000 0.73500  0.66750  0.54020  Biso   1.000  H
  C22      1.0000 0.85568  0.72742  0.44835  Biso   1.000  C
  C23      1.0000 0.90014  0.74732  0.42440  Biso   1.000  C
  H13      1.0000 0.93240  0.76180  0.43760  Biso   1.000  H
  C24      1.0000 0.89700  0.74591  0.38112  Biso   1.000  C
  H14      1.0000 0.92720  0.75940  0.36500  Biso   1.000  H
  C25      1.0000 0.84799  0.72402  0.36098  Biso   1.000  C
  C26      1.0000 0.80293  0.70449  0.38447  Biso   1.000  C
  H15      1.0000 0.77000  0.69120  0.37140  Biso   1.000  H
  C27      1.0000 0.80769  0.70509  0.42816  Biso   1.000  C
  C28      1.0000 0.84531  0.72181  0.31382  Biso   1.000  C
  Zn3      1.0000 0.78096  0.84360  0.68091  Biso   1.000  Zn
  Zn4      1.0000 0.88335  0.78250  0.73333  Biso   1.000  Zn
  N3       1.0000 0.56841  0.01122  0.75105  Biso   1.000  N
  H16      1.0000 0.58750  0.03230  0.73570  Biso   1.000  H
  N4       1.0000 0.73010  0.81276  0.45863  Biso   1.000  N
  H17      1.0000 0.76290  0.82730  0.45360  Biso   1.000  H
  O10      1.0000 0.69163  0.80995  0.75133  Biso   1.000  O
  O11      1.0000 0.72610  0.87802  0.71739  Biso   1.000  O
  O12      1.0000 0.34844  0.11014  0.81589  Biso   1.000  O
  O13      1.0000 0.41424  0.14954  0.77479  Biso   1.000  O
  O14      1.0000 0.69313  0.79679  0.64747  Biso   1.000  O
  O15      1.0000 0.76554  0.84024  0.61990  Biso   1.000  O
  O16      1.0000 0.70253  0.78850  0.29665  Biso   1.000  O
  O17      1.0000 0.60756  0.77008  0.29341  Biso   1.000  O
  O18      1.0000 0.80795  0.77894  0.70481  Biso   1.000  O
  H18      1.0000 0.80790  0.75870  0.68940  Biso   1.000  H
  C29      1.0000 0.68967  0.85567  0.74091  Biso   1.000  C
  C30      1.0000 0.63928  0.88608  0.75705  Biso   1.000  C
  C31      1.0000 0.59752  0.86345  0.78355  Biso   1.000  C
  H19      1.0000 0.60240  0.83010  0.79200  Biso   1.000  H
  C32      1.0000 0.54945  0.89014  0.79706  Biso   1.000  C
  H20      1.0000 0.52170  0.87470  0.81420  Biso   1.000  H
  C33      1.0000 0.54238  0.94030  0.78500  Biso   1.000  C
  C34      1.0000 0.58461  0.96217  0.75906  Biso   1.000  C
  C35      1.0000 0.63294  0.93551  0.74459  Biso   1.000  C
  H21      1.0000 0.66030  0.95070  0.72700  Biso   1.000  H
  C36      1.0000 0.49970  0.97812  0.79357  Biso   1.000  C
  C37      1.0000 0.44933  0.97961  0.81725  Biso   1.000  C
  H22      1.0000 0.43770  0.95170  0.83290  Biso   1.000  H
  C38      1.0000 0.41646  0.02312  0.81740  Biso   1.000  C
  H23      1.0000 0.38220  0.02400  0.83320  Biso   1.000  H
  C39      1.0000 0.43278  0.06567  0.79470  Biso   1.000  C
  C40      1.0000 0.48369  0.06491  0.77166  Biso   1.000  C
  H24      1.0000 0.49570  0.09310  0.75650  Biso   1.000  H
  C41      1.0000 0.51688  0.02088  0.77153  Biso   1.000  C
  C42      1.0000 0.39519  0.11203  0.79526  Biso   1.000  C
  C43      1.0000 0.72010  0.81323  0.61590  Biso   1.000  C
  C44      1.0000 0.69871  0.80196  0.57274  Biso   1.000  C
  C45      1.0000 0.64618  0.77583  0.56820  Biso   1.000  C
  H25      1.0000 0.62580  0.76630  0.59240  Biso   1.000  H
  C46      1.0000 0.62341  0.76364  0.52930  Biso   1.000  C
  H26      1.0000 0.58840  0.74610  0.52710  Biso   1.000  H
  C47      1.0000 0.65394  0.77821  0.49319  Biso   1.000  C
  C48      1.0000 0.70774  0.80385  0.49822  Biso   1.000  C
  C49      1.0000 0.72964  0.81554  0.53756  Biso   1.000  C
  H27      1.0000 0.76500  0.83250  0.54020  Biso   1.000  H
  C50      1.0000 0.64432  0.77258  0.44835  Biso   1.000  C
  C51      1.0000 0.59986  0.75268  0.42440  Biso   1.000  C
  H28      1.0000 0.56760  0.73820  0.43760  Biso   1.000  H
  C52      1.0000 0.60300  0.75409  0.38112  Biso   1.000  C
  H29      1.0000 0.57280  0.74060  0.36500  Biso   1.000  H
  C53      1.0000 0.65201  0.77598  0.36098  Biso   1.000  C
  C54      1.0000 0.69707  0.79551  0.38447  Biso   1.000  C
  H30      1.0000 0.73000  0.80880  0.37140  Biso   1.000  H
  C55      1.0000 0.69231  0.79491  0.42816  Biso   1.000  C
  C56      1.0000 0.65469  0.77819  0.31382  Biso   1.000  C
  Zn5      1.0000 0.28096  0.15640  0.81909  Biso   1.000  Zn
  Zn6      1.0000 0.38335  0.21750  0.76667  Biso   1.000  Zn
  N5       1.0000 0.06841  0.98878  0.74895  Biso   1.000  N
  H31      1.0000 0.08750  0.96770  0.76430  Biso   1.000  H
  N6       1.0000 0.23010  0.18724  0.04137  Biso   1.000  N
  H32      1.0000 0.26290  0.17270  0.04640  Biso   1.000  H
  O19      1.0000 0.19163  0.19005  0.74867  Biso   1.000  O
  O20      1.0000 0.22610  0.12198  0.78261  Biso   1.000  O
  O21      1.0000 0.84844  0.88986  0.68411  Biso   1.000  O
  O22      1.0000 0.91424  0.85046  0.72521  Biso   1.000  O
  O23      1.0000 0.19313  0.20321  0.85253  Biso   1.000  O
  O24      1.0000 0.26554  0.15976  0.88010  Biso   1.000  O
  O25      1.0000 0.20253  0.21150  0.20335  Biso   1.000  O
  O26      1.0000 0.10756  0.22992  0.20659  Biso   1.000  O
  O27      1.0000 0.30795  0.22106  0.79519  Biso   1.000  O
  H33      1.0000 0.30790  0.24130  0.81060  Biso   1.000  H
  C57      1.0000 0.18967  0.14433  0.75909  Biso   1.000  C
  C58      1.0000 0.13928  0.11392  0.74295  Biso   1.000  C
  C59      1.0000 0.09752  0.13655  0.71645  Biso   1.000  C
  H34      1.0000 0.10240  0.16990  0.70800  Biso   1.000  H
  C60      1.0000 0.04945  0.10986  0.70294  Biso   1.000  C
  H35      1.0000 0.02170  0.12530  0.68580  Biso   1.000  H
  C61      1.0000 0.04238  0.05970  0.71500  Biso   1.000  C
  C62      1.0000 0.08461  0.03783  0.74094  Biso   1.000  C
  C63      1.0000 0.13294  0.06449  0.75541  Biso   1.000  C
  H36      1.0000 0.16030  0.04930  0.77300  Biso   1.000  H
  C64      1.0000 0.99970  0.02188  0.70643  Biso   1.000  C
  C65      1.0000 0.94933  0.02039  0.68275  Biso   1.000  C
  H37      1.0000 0.93770  0.04830  0.66710  Biso   1.000  H
  C66      1.0000 0.91646  0.97688  0.68260  Biso   1.000  C
  H38      1.0000 0.88220  0.97600  0.66680  Biso   1.000  H
  C67      1.0000 0.93278  0.93433  0.70530  Biso   1.000  C
  C68      1.0000 0.98369  0.93509  0.72834  Biso   1.000  C
  H39      1.0000 0.99570  0.90690  0.74350  Biso   1.000  H
  C69      1.0000 0.01688  0.97912  0.72847  Biso   1.000  C
  C70      1.0000 0.89519  0.88797  0.70474  Biso   1.000  C
  C71      1.0000 0.22010  0.18677  0.88410  Biso   1.000  C
  C72      1.0000 0.19871  0.19804  0.92726  Biso   1.000  C
  C73      1.0000 0.14618  0.22417  0.93180  Biso   1.000  C
  H40      1.0000 0.12580  0.23370  0.90760  Biso   1.000  H
  C74      1.0000 0.12341  0.23636  0.97070  Biso   1.000  C
  H41      1.0000 0.08840  0.25390  0.97290  Biso   1.000  H
  C75      1.0000 0.15394  0.22179  0.00681  Biso   1.000  C
  C76      1.0000 0.20774  0.19615  0.00178  Biso   1.000  C
  C77      1.0000 0.22964  0.18446  0.96244  Biso   1.000  C
  H42      1.0000 0.26500  0.16750  0.95980  Biso   1.000  H
  C78      1.0000 0.14432  0.22742  0.05165  Biso   1.000  C
  C79      1.0000 0.09986  0.24732  0.07560  Biso   1.000  C
  H43      1.0000 0.06760  0.26180  0.06240  Biso   1.000  H
  C80      1.0000 0.10300  0.24591  0.11888  Biso   1.000  C
  H44      1.0000 0.07280  0.25940  0.13500  Biso   1.000  H
  C81      1.0000 0.15201  0.22402  0.13902  Biso   1.000  C
  C82      1.0000 0.19707  0.20449  0.11553  Biso   1.000  C
  H45      1.0000 0.23000  0.19120  0.12860  Biso   1.000  H
  C83      1.0000 0.19231  0.20509  0.07184  Biso   1.000  C
  C84      1.0000 0.15469  0.22181  0.18618  Biso   1.000  C
  Zn7      1.0000 0.21904  0.34360  0.81909  Biso   1.000  Zn
  Zn8      1.0000 0.11665  0.28250  0.76667  Biso   1.000  Zn
  N7       1.0000 0.43159  0.51122  0.74895  Biso   1.000  N
  H46      1.0000 0.41250  0.53230  0.76430  Biso   1.000  H
  N8       1.0000 0.26990  0.31276  0.04137  Biso   1.000  N
  H47      1.0000 0.23710  0.32730  0.04640  Biso   1.000  H
  O28      1.0000 0.30837  0.30995  0.74867  Biso   1.000  O
  O29      1.0000 0.27390  0.37802  0.78261  Biso   1.000  O
  O30      1.0000 0.65156  0.61014  0.68411  Biso   1.000  O
  O31      1.0000 0.58576  0.64954  0.72521  Biso   1.000  O
  O32      1.0000 0.30687  0.29679  0.85253  Biso   1.000  O
  O33      1.0000 0.23446  0.34024  0.88010  Biso   1.000  O
  O34      1.0000 0.29747  0.28850  0.20335  Biso   1.000  O
  O35      1.0000 0.39244  0.27008  0.20659  Biso   1.000  O
  O36      1.0000 0.19205  0.27894  0.79519  Biso   1.000  O
  H48      1.0000 0.19210  0.25870  0.81060  Biso   1.000  H
  C85      1.0000 0.31033  0.35567  0.75909  Biso   1.000  C
  C86      1.0000 0.36072  0.38608  0.74295  Biso   1.000  C
  C87      1.0000 0.40248  0.36345  0.71645  Biso   1.000  C
  H49      1.0000 0.39760  0.33010  0.70800  Biso   1.000  H
  C88      1.0000 0.45055  0.39014  0.70294  Biso   1.000  C
  H50      1.0000 0.47830  0.37470  0.68580  Biso   1.000  H
  C89      1.0000 0.45762  0.44030  0.71500  Biso   1.000  C
  C90      1.0000 0.41539  0.46217  0.74094  Biso   1.000  C
  C91      1.0000 0.36706  0.43551  0.75541  Biso   1.000  C
  H51      1.0000 0.33970  0.45070  0.77300  Biso   1.000  H
  C92      1.0000 0.50030  0.47812  0.70643  Biso   1.000  C
  C93      1.0000 0.55067  0.47961  0.68275  Biso   1.000  C
  H52      1.0000 0.56230  0.45170  0.66710  Biso   1.000  H
  C94      1.0000 0.58354  0.52312  0.68260  Biso   1.000  C
  H53      1.0000 0.61780  0.52400  0.66680  Biso   1.000  H
  C95      1.0000 0.56722  0.56567  0.70530  Biso   1.000  C
  C96      1.0000 0.51631  0.56491  0.72834  Biso   1.000  C
  H54      1.0000 0.50430  0.59310  0.74350  Biso   1.000  H
  C97      1.0000 0.48312  0.52088  0.72847  Biso   1.000  C
  C98      1.0000 0.60481  0.61203  0.70474  Biso   1.000  C
  C99      1.0000 0.27990  0.31323  0.88410  Biso   1.000  C
  C100     1.0000 0.30129  0.30196  0.92726  Biso   1.000  C
  C101     1.0000 0.35382  0.27583  0.93180  Biso   1.000  C
  H55      1.0000 0.37420  0.26630  0.90760  Biso   1.000  H
  C102     1.0000 0.37659  0.26364  0.97070  Biso   1.000  C
  H56      1.0000 0.41160  0.24610  0.97290  Biso   1.000  H
  C103     1.0000 0.34606  0.27821  0.00681  Biso   1.000  C
  C104     1.0000 0.29226  0.30385  0.00178  Biso   1.000  C
  C105     1.0000 0.27036  0.31554  0.96244  Biso   1.000  C
  H57      1.0000 0.23500  0.33250  0.95980  Biso   1.000  H
  C106     1.0000 0.35568  0.27258  0.05165  Biso   1.000  C
  C107     1.0000 0.40014  0.25268  0.07560  Biso   1.000  C
  H58      1.0000 0.43240  0.23820  0.06240  Biso   1.000  H
  C108     1.0000 0.39700  0.25409  0.11888  Biso   1.000  C
  H59      1.0000 0.42720  0.24060  0.13500  Biso   1.000  H
  C109     1.0000 0.34799  0.27598  0.13902  Biso   1.000  C
  C110     1.0000 0.30293  0.29551  0.11553  Biso   1.000  C
  H60      1.0000 0.27000  0.30880  0.12860  Biso   1.000  H
  C111     1.0000 0.30769  0.29491  0.07184  Biso   1.000  C
  C112     1.0000 0.34531  0.27819  0.18618  Biso   1.000  C
  Zn9      1.0000 0.28096  0.34360  0.31909  Biso   1.000  Zn
  Zn10     1.0000 0.38335  0.28250  0.26667  Biso   1.000  Zn
  N9       1.0000 0.06841  0.51122  0.24895  Biso   1.000  N
  H61      1.0000 0.08750  0.53230  0.26430  Biso   1.000  H
  N10      1.0000 0.23010  0.31276  0.54137  Biso   1.000  N
  H62      1.0000 0.26290  0.32730  0.54640  Biso   1.000  H
  O37      1.0000 0.19163  0.30995  0.24867  Biso   1.000  O
  O38      1.0000 0.22610  0.37802  0.28261  Biso   1.000  O
  O39      1.0000 0.84844  0.61014  0.18411  Biso   1.000  O
  O40      1.0000 0.91424  0.64954  0.22521  Biso   1.000  O
  O41      1.0000 0.19313  0.29679  0.35253  Biso   1.000  O
  O42      1.0000 0.26554  0.34024  0.38010  Biso   1.000  O
  O43      1.0000 0.20253  0.28850  0.70335  Biso   1.000  O
  O44      1.0000 0.10756  0.27008  0.70659  Biso   1.000  O
  O45      1.0000 0.30795  0.27894  0.29519  Biso   1.000  O
  H63      1.0000 0.30790  0.25870  0.31060  Biso   1.000  H
  C113     1.0000 0.18967  0.35567  0.25909  Biso   1.000  C
  C114     1.0000 0.13928  0.38608  0.24295  Biso   1.000  C
  C115     1.0000 0.09752  0.36345  0.21645  Biso   1.000  C
  H64      1.0000 0.10240  0.33010  0.20800  Biso   1.000  H
  C116     1.0000 0.04945  0.39014  0.20294  Biso   1.000  C
  H65      1.0000 0.02170  0.37470  0.18580  Biso   1.000  H
  C117     1.0000 0.04238  0.44030  0.21500  Biso   1.000  C
  C118     1.0000 0.08461  0.46217  0.24094  Biso   1.000  C
  C119     1.0000 0.13294  0.43551  0.25541  Biso   1.000  C
  H66      1.0000 0.16030  0.45070  0.27300  Biso   1.000  H
  C120     1.0000 0.99970  0.47812  0.20643  Biso   1.000  C
  C121     1.0000 0.94933  0.47961  0.18275  Biso   1.000  C
  H67      1.0000 0.93770  0.45170  0.16710  Biso   1.000  H
  C122     1.0000 0.91646  0.52312  0.18260  Biso   1.000  C
  H68      1.0000 0.88220  0.52400  0.16680  Biso   1.000  H
  C123     1.0000 0.93278  0.56567  0.20530  Biso   1.000  C
  C124     1.0000 0.98369  0.56491  0.22834  Biso   1.000  C
  H69      1.0000 0.99570  0.59310  0.24350  Biso   1.000  H
  C125     1.0000 0.01688  0.52088  0.22847  Biso   1.000  C
  C126     1.0000 0.89519  0.61203  0.20474  Biso   1.000  C
  C127     1.0000 0.22010  0.31323  0.38410  Biso   1.000  C
  C128     1.0000 0.19871  0.30196  0.42726  Biso   1.000  C
  C129     1.0000 0.14618  0.27583  0.43180  Biso   1.000  C
  H70      1.0000 0.12580  0.26630  0.40760  Biso   1.000  H
  C130     1.0000 0.12341  0.26364  0.47070  Biso   1.000  C
  H71      1.0000 0.08840  0.24610  0.47290  Biso   1.000  H
  C131     1.0000 0.15394  0.27821  0.50681  Biso   1.000  C
  C132     1.0000 0.20774  0.30385  0.50178  Biso   1.000  C
  C133     1.0000 0.22964  0.31554  0.46244  Biso   1.000  C
  H72      1.0000 0.26500  0.33250  0.45980  Biso   1.000  H
  C134     1.0000 0.14432  0.27258  0.55165  Biso   1.000  C
  C135     1.0000 0.09986  0.25268  0.57560  Biso   1.000  C
  H73      1.0000 0.06760  0.23820  0.56240  Biso   1.000  H
  C136     1.0000 0.10300  0.25409  0.61888  Biso   1.000  C
  H74      1.0000 0.07280  0.24060  0.63500  Biso   1.000  H
  C137     1.0000 0.15201  0.27598  0.63902  Biso   1.000  C
  C138     1.0000 0.19707  0.29551  0.61553  Biso   1.000  C
  H75      1.0000 0.23000  0.30880  0.62860  Biso   1.000  H
  C139     1.0000 0.19231  0.29491  0.57184  Biso   1.000  C
  C140     1.0000 0.15469  0.27819  0.68618  Biso   1.000  C
  Zn11     1.0000 0.21904  0.15640  0.31909  Biso   1.000  Zn
  Zn12     1.0000 0.11665  0.21750  0.26667  Biso   1.000  Zn
  N11      1.0000 0.43159  0.98878  0.24895  Biso   1.000  N
  H76      1.0000 0.41250  0.96770  0.26430  Biso   1.000  H
  N12      1.0000 0.26990  0.18724  0.54137  Biso   1.000  N
  H77      1.0000 0.23710  0.17270  0.54640  Biso   1.000  H
  O46      1.0000 0.30837  0.19005  0.24867  Biso   1.000  O
  O47      1.0000 0.27390  0.12198  0.28261  Biso   1.000  O
  O48      1.0000 0.65156  0.88986  0.18411  Biso   1.000  O
  O49      1.0000 0.58576  0.85046  0.22521  Biso   1.000  O
  O50      1.0000 0.30687  0.20321  0.35253  Biso   1.000  O
  O51      1.0000 0.23446  0.15976  0.38010  Biso   1.000  O
  O52      1.0000 0.29747  0.21150  0.70335  Biso   1.000  O
  O53      1.0000 0.39244  0.22992  0.70659  Biso   1.000  O
  O54      1.0000 0.19205  0.22106  0.29519  Biso   1.000  O
  H78      1.0000 0.19210  0.24130  0.31060  Biso   1.000  H
  C141     1.0000 0.31033  0.14433  0.25909  Biso   1.000  C
  C142     1.0000 0.36072  0.11392  0.24295  Biso   1.000  C
  C143     1.0000 0.40248  0.13655  0.21645  Biso   1.000  C
  H79      1.0000 0.39760  0.16990  0.20800  Biso   1.000  H
  C144     1.0000 0.45055  0.10986  0.20294  Biso   1.000  C
  H80      1.0000 0.47830  0.12530  0.18580  Biso   1.000  H
  C145     1.0000 0.45762  0.05970  0.21500  Biso   1.000  C
  C146     1.0000 0.41539  0.03783  0.24094  Biso   1.000  C
  C147     1.0000 0.36706  0.06449  0.25541  Biso   1.000  C
  H81      1.0000 0.33970  0.04930  0.27300  Biso   1.000  H
  C148     1.0000 0.50030  0.02188  0.20643  Biso   1.000  C
  C149     1.0000 0.55067  0.02039  0.18275  Biso   1.000  C
  H82      1.0000 0.56230  0.04830  0.16710  Biso   1.000  H
  C150     1.0000 0.58354  0.97688  0.18260  Biso   1.000  C
  H83      1.0000 0.61780  0.97600  0.16680  Biso   1.000  H
  C151     1.0000 0.56722  0.93433  0.20530  Biso   1.000  C
  C152     1.0000 0.51631  0.93509  0.22834  Biso   1.000  C
  H84      1.0000 0.50430  0.90690  0.24350  Biso   1.000  H
  C153     1.0000 0.48312  0.97912  0.22847  Biso   1.000  C
  C154     1.0000 0.60481  0.88797  0.20474  Biso   1.000  C
  C155     1.0000 0.27990  0.18677  0.38410  Biso   1.000  C
  C156     1.0000 0.30129  0.19804  0.42726  Biso   1.000  C
  C157     1.0000 0.35382  0.22417  0.43180  Biso   1.000  C
  H85      1.0000 0.37420  0.23370  0.40760  Biso   1.000  H
  C158     1.0000 0.37659  0.23636  0.47070  Biso   1.000  C
  H86      1.0000 0.41160  0.25390  0.47290  Biso   1.000  H
  C159     1.0000 0.34606  0.22179  0.50681  Biso   1.000  C
  C160     1.0000 0.29226  0.19615  0.50178  Biso   1.000  C
  C161     1.0000 0.27036  0.18446  0.46244  Biso   1.000  C
  H87      1.0000 0.23500  0.16750  0.45980  Biso   1.000  H
  C162     1.0000 0.35568  0.22742  0.55165  Biso   1.000  C
  C163     1.0000 0.40014  0.24732  0.57560  Biso   1.000  C
  H88      1.0000 0.43240  0.26180  0.56240  Biso   1.000  H
  C164     1.0000 0.39700  0.24591  0.61888  Biso   1.000  C
  H89      1.0000 0.42720  0.25940  0.63500  Biso   1.000  H
  C165     1.0000 0.34799  0.22402  0.63902  Biso   1.000  C
  C166     1.0000 0.30293  0.20449  0.61553  Biso   1.000  C
  H90      1.0000 0.27000  0.19120  0.62860  Biso   1.000  H
  C167     1.0000 0.30769  0.20509  0.57184  Biso   1.000  C
  C168     1.0000 0.34531  0.22181  0.68618  Biso   1.000  C
  Zn13     1.0000 0.71904  0.84360  0.18091  Biso   1.000  Zn
  Zn14     1.0000 0.61665  0.78250  0.23333  Biso   1.000  Zn
  N13      1.0000 0.93159  0.01122  0.25105  Biso   1.000  N
  H91      1.0000 0.91250  0.03230  0.23570  Biso   1.000  H
  N14      1.0000 0.76990  0.81276  0.95863  Biso   1.000  N
  H92      1.0000 0.73710  0.82730  0.95360  Biso   1.000  H
  O55      1.0000 0.80837  0.80995  0.25133  Biso   1.000  O
  O56      1.0000 0.77390  0.87802  0.21739  Biso   1.000  O
  O57      1.0000 0.15156  0.11014  0.31589  Biso   1.000  O
  O58      1.0000 0.08576  0.14954  0.27479  Biso   1.000  O
  O59      1.0000 0.80687  0.79679  0.14747  Biso   1.000  O
  O60      1.0000 0.73446  0.84024  0.11990  Biso   1.000  O
  O61      1.0000 0.79747  0.78850  0.79665  Biso   1.000  O
  O62      1.0000 0.89244  0.77008  0.79341  Biso   1.000  O
  O63      1.0000 0.69205  0.77894  0.20481  Biso   1.000  O
  H93      1.0000 0.69210  0.75870  0.18940  Biso   1.000  H
  C169     1.0000 0.81033  0.85567  0.24091  Biso   1.000  C
  C170     1.0000 0.86072  0.88608  0.25705  Biso   1.000  C
  C171     1.0000 0.90248  0.86345  0.28355  Biso   1.000  C
  H94      1.0000 0.89760  0.83010  0.29200  Biso   1.000  H
  C172     1.0000 0.95055  0.89014  0.29706  Biso   1.000  C
  H95      1.0000 0.97830  0.87470  0.31420  Biso   1.000  H
  C173     1.0000 0.95762  0.94030  0.28500  Biso   1.000  C
  C174     1.0000 0.91539  0.96217  0.25906  Biso   1.000  C
  C175     1.0000 0.86706  0.93551  0.24459  Biso   1.000  C
  H96      1.0000 0.83970  0.95070  0.22700  Biso   1.000  H
  C176     1.0000 0.00030  0.97812  0.29357  Biso   1.000  C
  C177     1.0000 0.05067  0.97961  0.31725  Biso   1.000  C
  H97      1.0000 0.06230  0.95170  0.33290  Biso   1.000  H
  C178     1.0000 0.08354  0.02312  0.31740  Biso   1.000  C
  H98      1.0000 0.11780  0.02400  0.33320  Biso   1.000  H
  C179     1.0000 0.06722  0.06567  0.29470  Biso   1.000  C
  C180     1.0000 0.01631  0.06491  0.27166  Biso   1.000  C
  H99      1.0000 0.00430  0.09310  0.25650  Biso   1.000  H
  C181     1.0000 0.98312  0.02088  0.27153  Biso   1.000  C
  C182     1.0000 0.10481  0.11203  0.29526  Biso   1.000  C
  C183     1.0000 0.77990  0.81323  0.11590  Biso   1.000  C
  C184     1.0000 0.80129  0.80196  0.07274  Biso   1.000  C
  C185     1.0000 0.85382  0.77583  0.06820  Biso   1.000  C
  H100     1.0000 0.87420  0.76630  0.09240  Biso   1.000  H
  C186     1.0000 0.87659  0.76364  0.02930  Biso   1.000  C
  H101     1.0000 0.91160  0.74610  0.02710  Biso   1.000  H
  C187     1.0000 0.84606  0.77821  0.99319  Biso   1.000  C
  C188     1.0000 0.79226  0.80385  0.99822  Biso   1.000  C
  C189     1.0000 0.77036  0.81554  0.03756  Biso   1.000  C
  H102     1.0000 0.73500  0.83250  0.04020  Biso   1.000  H
  C190     1.0000 0.85568  0.77258  0.94835  Biso   1.000  C
  C191     1.0000 0.90014  0.75268  0.92440  Biso   1.000  C
  H103     1.0000 0.93240  0.73820  0.93760  Biso   1.000  H
  C192     1.0000 0.89700  0.75409  0.88112  Biso   1.000  C
  H104     1.0000 0.92720  0.74060  0.86500  Biso   1.000  H
  C193     1.0000 0.84799  0.77598  0.86098  Biso   1.000  C
  C194     1.0000 0.80293  0.79551  0.88447  Biso   1.000  C
  H105     1.0000 0.77000  0.80880  0.87140  Biso   1.000  H
  C195     1.0000 0.80769  0.79491  0.92816  Biso   1.000  C
  C196     1.0000 0.84531  0.77819  0.81382  Biso   1.000  C
  Zn15     1.0000 0.78096  0.65640  0.18091  Biso   1.000  Zn
  Zn16     1.0000 0.88335  0.71750  0.23333  Biso   1.000  Zn
  N15      1.0000 0.56841  0.48878  0.25105  Biso   1.000  N
  H106     1.0000 0.58750  0.46770  0.23570  Biso   1.000  H
  N16      1.0000 0.73010  0.68724  0.95863  Biso   1.000  N
  H107     1.0000 0.76290  0.67270  0.95360  Biso   1.000  H
  O64      1.0000 0.69163  0.69005  0.25133  Biso   1.000  O
  O65      1.0000 0.72610  0.62198  0.21739  Biso   1.000  O
  O66      1.0000 0.34844  0.38986  0.31589  Biso   1.000  O
  O67      1.0000 0.41424  0.35046  0.27479  Biso   1.000  O
  O68      1.0000 0.69313  0.70321  0.14747  Biso   1.000  O
  O69      1.0000 0.76554  0.65976  0.11990  Biso   1.000  O
  O70      1.0000 0.70253  0.71150  0.79665  Biso   1.000  O
  O71      1.0000 0.60756  0.72992  0.79341  Biso   1.000  O
  O72      1.0000 0.80795  0.72106  0.20481  Biso   1.000  O
  H108     1.0000 0.80790  0.74130  0.18940  Biso   1.000  H
  C197     1.0000 0.68967  0.64433  0.24091  Biso   1.000  C
  C198     1.0000 0.63928  0.61392  0.25705  Biso   1.000  C
  C199     1.0000 0.59752  0.63655  0.28355  Biso   1.000  C
  H109     1.0000 0.60240  0.66990  0.29200  Biso   1.000  H
  C200     1.0000 0.54945  0.60986  0.29706  Biso   1.000  C
  H110     1.0000 0.52170  0.62530  0.31420  Biso   1.000  H
  C201     1.0000 0.54238  0.55970  0.28500  Biso   1.000  C
  C202     1.0000 0.58461  0.53783  0.25906  Biso   1.000  C
  C203     1.0000 0.63294  0.56449  0.24459  Biso   1.000  C
  H111     1.0000 0.66030  0.54930  0.22700  Biso   1.000  H
  C204     1.0000 0.49970  0.52188  0.29357  Biso   1.000  C
  C205     1.0000 0.44933  0.52039  0.31725  Biso   1.000  C
  H112     1.0000 0.43770  0.54830  0.33290  Biso   1.000  H
  C206     1.0000 0.41646  0.47688  0.31740  Biso   1.000  C
  H113     1.0000 0.38220  0.47600  0.33320  Biso   1.000  H
  C207     1.0000 0.43278  0.43433  0.29470  Biso   1.000  C
  C208     1.0000 0.48369  0.43509  0.27166  Biso   1.000  C
  H114     1.0000 0.49570  0.40690  0.25650  Biso   1.000  H
  C209     1.0000 0.51688  0.47912  0.27153  Biso   1.000  C
  C210     1.0000 0.39519  0.38797  0.29526  Biso   1.000  C
  C211     1.0000 0.72010  0.68677  0.11590  Biso   1.000  C
  C212     1.0000 0.69871  0.69804  0.07274  Biso   1.000  C
  C213     1.0000 0.64618  0.72417  0.06820  Biso   1.000  C
  H115     1.0000 0.62580  0.73370  0.09240  Biso   1.000  H
  C214     1.0000 0.62341  0.73636  0.02930  Biso   1.000  C
  H116     1.0000 0.58840  0.75390  0.02710  Biso   1.000  H
  C215     1.0000 0.65394  0.72179  0.99319  Biso   1.000  C
  C216     1.0000 0.70774  0.69615  0.99822  Biso   1.000  C
  C217     1.0000 0.72964  0.68446  0.03756  Biso   1.000  C
  H117     1.0000 0.76500  0.66750  0.04020  Biso   1.000  H
  C218     1.0000 0.64432  0.72742  0.94835  Biso   1.000  C
  C219     1.0000 0.59986  0.74732  0.92440  Biso   1.000  C
  H118     1.0000 0.56760  0.76180  0.93760  Biso   1.000  H
  C220     1.0000 0.60300  0.74591  0.88112  Biso   1.000  C
  H119     1.0000 0.57280  0.75940  0.86500  Biso   1.000  H
  C221     1.0000 0.65201  0.72402  0.86098  Biso   1.000  C
  C222     1.0000 0.69707  0.70449  0.88447  Biso   1.000  C
  H120     1.0000 0.73000  0.69120  0.87140  Biso   1.000  H
  C223     1.0000 0.69231  0.70509  0.92816  Biso   1.000  C
  C224     1.0000 0.65469  0.72181  0.81382  Biso   1.000  C
  Zn17     1.0000 0.75000  0.75000  0.75110  Biso   1.000  Zn
  Zn18     1.0000 0.25000  0.25000  0.74890  Biso   1.000  Zn
  Zn19     1.0000 0.25000  0.25000  0.24890  Biso   1.000  Zn
  Zn20     1.0000 0.75000  0.75000  0.25110  Biso   1.000  Zn
