data_image0
_cell_length_a       39.826
_cell_length_b       14.012
_cell_length_c       29.269
_cell_angle_alpha    90
_cell_angle_beta     123.206
_cell_angle_gamma    90

_symmetry_space_group_name_H-M    "P 1"
_symmetry_int_tables_number       1

loop_
  _symmetry_equiv_pos_as_xyz
  'x, y, z'

loop_
  _atom_site_label
  _atom_site_occupancy
  _atom_site_fract_x
  _atom_site_fract_y
  _atom_site_fract_z
  _atom_site_thermal_displace_type
  _atom_site_B_iso_or_equiv
  _atom_site_type_symbol
  Zn1      1.0000 0.98951  0.47169  0.94510  Biso   1.000  Zn
  N1       1.0000 0.96463  0.44410  0.86331  Biso   1.000  N
  O1       1.0000 0.04823  0.43770  0.97886  Biso   1.000  O
  O2       1.0000 0.98303  0.34570  0.97300  Biso   1.000  O
  O3       1.0000 0.93825  0.51930  0.94042  Biso   1.000  O
  O4       1.0000 0.00196  0.61210  0.94351  Biso   1.000  O
  C1       1.0000 0.95400  0.34400  0.84970  Biso   1.000  C
  C2       1.0000 0.99283  0.46850  0.84800  Biso   1.000  C
  C3       1.0000 0.92840  0.50070  0.82980  Biso   1.000  C
  C4       1.0000 0.07220  0.44470  0.02970  Biso   1.000  C
  C5       1.0000 0.98753  0.32930  0.01920  Biso   1.000  C
  H1       1.0000 0.93650  0.32440  0.86140  Biso   1.000  H
  H2       1.0000 0.97810  0.30520  0.86880  Biso   1.000  H
  C6       1.0000 0.93230  0.32770  0.78690  Biso   1.000  C
  H3       1.0000 0.01760  0.43330  0.87080  Biso   1.000  H
  H4       1.0000 0.99900  0.53610  0.85400  Biso   1.000  H
  C7       1.0000 0.97500  0.44440  0.78800  Biso   1.000  C
  H5       1.0000 0.93460  0.56770  0.83900  Biso   1.000  H
  H6       1.0000 0.90850  0.48220  0.83740  Biso   1.000  H
  C8       1.0000 0.91130  0.48600  0.76850  Biso   1.000  C
  C9       1.0000 0.11373  0.41190  0.05570  Biso   1.000  C
  C10      1.0000 0.97990  0.22800  0.02820  Biso   1.000  C
  N2       1.0000 0.93404  0.41180  0.76095  Biso   1.000  N
  H7       1.0000 0.94490  0.27530  0.78020  Biso   1.000  H
  H8       1.0000 0.90440  0.31080  0.77170  Biso   1.000  H
  H9       1.0000 0.97600  0.50060  0.76940  Biso   1.000  H
  H10      1.0000 0.99110  0.39510  0.78560  Biso   1.000  H
  H11      1.0000 0.88330  0.46740  0.74970  Biso   1.000  H
  H12      1.0000 0.91270  0.54550  0.75270  Biso   1.000  H
  C11      1.0000 0.12740  0.38120  0.02360  Biso   1.000  C
  C12      1.0000 0.13880  0.41200  0.11150  Biso   1.000  C
  C13      1.0000 0.97140  0.15550  0.99040  Biso   1.000  C
  C14      1.0000 0.98240  0.20720  0.07600  Biso   1.000  C
  Zn2      1.0000 0.90635  0.39157  0.67627  Biso   1.000  Zn
  H13      1.0000 0.11090  0.38150  0.98570  Biso   1.000  H
  C15      1.0000 0.16632  0.35040  0.05030  Biso   1.000  C
  C16      1.0000 0.17590  0.37980  0.13750  Biso   1.000  C
  H14      1.0000 0.12920  0.43580  0.13200  Biso   1.000  H
  H15      1.0000 0.97150  0.16990  0.95950  Biso   1.000  H
  C17      1.0000 0.96300  0.06320  0.99770  Biso   1.000  C
  C18      1.0000 0.97420  0.11290  0.08380  Biso   1.000  C
  H16      1.0000 0.98920  0.25390  0.10220  Biso   1.000  H
  O5       1.0000 0.85568  0.34780  0.66277  Biso   1.000  O
  O6       1.0000 0.92833  0.33530  0.63650  Biso   1.000  O
  N3       1.0000 0.18768  0.31580  0.02968  Biso   1.000  N
  C19      1.0000 0.19200  0.34590  0.10630  Biso   1.000  C
  H17      1.0000 0.19160  0.37870  0.17550  Biso   1.000  H
  H18      1.0000 0.95590  0.01700  0.97110  Biso   1.000  H
  C20      1.0000 0.96530  0.04150  0.04460  Biso   1.000  C
  N4       1.0000 0.97280  0.07440  0.12620  Biso   1.000  N
  H19      1.0000 0.17860  0.31180  0.99550  Biso   1.000  H
  C21      1.0000 0.22647  0.28750  0.07200  Biso   1.000  C
  C22      1.0000 0.23030  0.30400  0.12230  Biso   1.000  C
  C23      1.0000 0.95900  0.95290  0.06650  Biso   1.000  C
  H20      1.0000 0.97690  0.10420  0.15450  Biso   1.000  H
  C24      1.0000 0.96330  0.97710  0.11420  Biso   1.000  C
  C25      1.0000 0.25738  0.24690  0.07020  Biso   1.000  C
  C26      1.0000 0.26600  0.27880  0.17070  Biso   1.000  C
  C27      1.0000 0.94960  0.86120  0.04820  Biso   1.000  C
  C28      1.0000 0.95710  0.91510  0.14590  Biso   1.000  C
  H21      1.0000 0.25430  0.23440  0.03690  Biso   1.000  H
  C29      1.0000 0.29240  0.22560  0.11810  Biso   1.000  C
  C30      1.0000 0.29800  0.24130  0.17010  Biso   1.000  C
  H22      1.0000 0.26840  0.28720  0.20380  Biso   1.000  H
  C31      1.0000 0.94410  0.79330  0.07810  Biso   1.000  C
  H23      1.0000 0.94680  0.84410  0.01550  Biso   1.000  H
  H24      1.0000 0.95880  0.93450  0.17750  Biso   1.000  H
  C32      1.0000 0.94780  0.82090  0.12640  Biso   1.000  C
  C33      1.0000 0.32710  0.18240  0.11810  Biso   1.000  C
  H25      1.0000 0.32220  0.22690  0.20230  Biso   1.000  H
  H26      1.0000 0.93810  0.73040  0.06610  Biso   1.000  H
  C34      1.0000 0.93780  0.74550  0.15610  Biso   1.000  C
  O7       1.0000 0.32532  0.17330  0.07480  Biso   1.000  O
  O8       1.0000 0.93640  0.77440  0.19510  Biso   1.000  O
  Zn3      1.0000 0.48951  0.97169  0.94510  Biso   1.000  Zn
  N5       1.0000 0.46463  0.94410  0.86331  Biso   1.000  N
  O9       1.0000 0.54823  0.93770  0.97886  Biso   1.000  O
  O10      1.0000 0.48303  0.84570  0.97300  Biso   1.000  O
  O11      1.0000 0.43825  0.01930  0.94042  Biso   1.000  O
  O12      1.0000 0.50196  0.11210  0.94351  Biso   1.000  O
  C35      1.0000 0.45400  0.84400  0.84970  Biso   1.000  C
  C36      1.0000 0.49283  0.96850  0.84800  Biso   1.000  C
  C37      1.0000 0.42840  0.00070  0.82980  Biso   1.000  C
  C38      1.0000 0.57220  0.94470  0.02970  Biso   1.000  C
  C39      1.0000 0.48753  0.82930  0.01920  Biso   1.000  C
  H27      1.0000 0.43650  0.82440  0.86140  Biso   1.000  H
  H28      1.0000 0.47810  0.80520  0.86880  Biso   1.000  H
  C40      1.0000 0.43230  0.82770  0.78690  Biso   1.000  C
  H29      1.0000 0.51760  0.93330  0.87080  Biso   1.000  H
  H30      1.0000 0.49900  0.03610  0.85400  Biso   1.000  H
  C41      1.0000 0.47500  0.94440  0.78800  Biso   1.000  C
  H31      1.0000 0.43460  0.06770  0.83900  Biso   1.000  H
  H32      1.0000 0.40850  0.98220  0.83740  Biso   1.000  H
  C42      1.0000 0.41130  0.98600  0.76850  Biso   1.000  C
  C43      1.0000 0.61373  0.91190  0.05570  Biso   1.000  C
  C44      1.0000 0.47990  0.72800  0.02820  Biso   1.000  C
  N6       1.0000 0.43404  0.91180  0.76095  Biso   1.000  N
  H33      1.0000 0.44490  0.77530  0.78020  Biso   1.000  H
  H34      1.0000 0.40440  0.81080  0.77170  Biso   1.000  H
  H35      1.0000 0.47600  0.00060  0.76940  Biso   1.000  H
  H36      1.0000 0.49110  0.89510  0.78560  Biso   1.000  H
  H37      1.0000 0.38330  0.96740  0.74970  Biso   1.000  H
  H38      1.0000 0.41270  0.04550  0.75270  Biso   1.000  H
  C45      1.0000 0.62740  0.88120  0.02360  Biso   1.000  C
  C46      1.0000 0.63880  0.91200  0.11150  Biso   1.000  C
  C47      1.0000 0.47140  0.65550  0.99040  Biso   1.000  C
  C48      1.0000 0.48240  0.70720  0.07600  Biso   1.000  C
  Zn4      1.0000 0.40635  0.89157  0.67627  Biso   1.000  Zn
  H39      1.0000 0.61090  0.88150  0.98570  Biso   1.000  H
  C49      1.0000 0.66632  0.85040  0.05030  Biso   1.000  C
  C50      1.0000 0.67590  0.87980  0.13750  Biso   1.000  C
  H40      1.0000 0.62920  0.93580  0.13200  Biso   1.000  H
  H41      1.0000 0.47150  0.66990  0.95950  Biso   1.000  H
  C51      1.0000 0.46300  0.56320  0.99770  Biso   1.000  C
  C52      1.0000 0.47420  0.61290  0.08380  Biso   1.000  C
  H42      1.0000 0.48920  0.75390  0.10220  Biso   1.000  H
  O13      1.0000 0.35568  0.84780  0.66277  Biso   1.000  O
  O14      1.0000 0.42833  0.83530  0.63650  Biso   1.000  O
  N7       1.0000 0.68768  0.81580  0.02968  Biso   1.000  N
  C53      1.0000 0.69200  0.84590  0.10630  Biso   1.000  C
  H43      1.0000 0.69160  0.87870  0.17550  Biso   1.000  H
  H44      1.0000 0.45590  0.51700  0.97110  Biso   1.000  H
  C54      1.0000 0.46530  0.54150  0.04460  Biso   1.000  C
  N8       1.0000 0.47280  0.57440  0.12620  Biso   1.000  N
  H45      1.0000 0.67860  0.81180  0.99550  Biso   1.000  H
  C55      1.0000 0.72647  0.78750  0.07200  Biso   1.000  C
  C56      1.0000 0.73030  0.80400  0.12230  Biso   1.000  C
  C57      1.0000 0.45900  0.45290  0.06650  Biso   1.000  C
  H46      1.0000 0.47690  0.60420  0.15450  Biso   1.000  H
  C58      1.0000 0.46330  0.47710  0.11420  Biso   1.000  C
  C59      1.0000 0.75738  0.74690  0.07020  Biso   1.000  C
  C60      1.0000 0.76600  0.77880  0.17070  Biso   1.000  C
  C61      1.0000 0.44960  0.36120  0.04820  Biso   1.000  C
  C62      1.0000 0.45710  0.41510  0.14590  Biso   1.000  C
  H47      1.0000 0.75430  0.73440  0.03690  Biso   1.000  H
  C63      1.0000 0.79240  0.72560  0.11810  Biso   1.000  C
  C64      1.0000 0.79800  0.74130  0.17010  Biso   1.000  C
  H48      1.0000 0.76840  0.78720  0.20380  Biso   1.000  H
  C65      1.0000 0.44410  0.29330  0.07810  Biso   1.000  C
  H49      1.0000 0.44680  0.34410  0.01550  Biso   1.000  H
  H50      1.0000 0.45880  0.43450  0.17750  Biso   1.000  H
  C66      1.0000 0.44780  0.32090  0.12640  Biso   1.000  C
  C67      1.0000 0.82710  0.68240  0.11810  Biso   1.000  C
  H51      1.0000 0.82220  0.72690  0.20230  Biso   1.000  H
  H52      1.0000 0.43810  0.23040  0.06610  Biso   1.000  H
  C68      1.0000 0.43780  0.24550  0.15610  Biso   1.000  C
  O15      1.0000 0.82532  0.67330  0.07480  Biso   1.000  O
  O16      1.0000 0.43640  0.27440  0.19510  Biso   1.000  O
  Zn5      1.0000 0.01049  0.47169  0.55490  Biso   1.000  Zn
  N9       1.0000 0.03537  0.44410  0.63669  Biso   1.000  N
  O17      1.0000 0.95177  0.43770  0.52114  Biso   1.000  O
  O18      1.0000 0.01697  0.34570  0.52700  Biso   1.000  O
  O19      1.0000 0.06175  0.51930  0.55958  Biso   1.000  O
  O20      1.0000 0.99804  0.61210  0.55649  Biso   1.000  O
  C69      1.0000 0.04600  0.34400  0.65030  Biso   1.000  C
  C70      1.0000 0.00717  0.46850  0.65200  Biso   1.000  C
  C71      1.0000 0.07160  0.50070  0.67020  Biso   1.000  C
  C72      1.0000 0.92780  0.44470  0.47030  Biso   1.000  C
  C73      1.0000 0.01247  0.32930  0.48080  Biso   1.000  C
  H53      1.0000 0.06350  0.32440  0.63860  Biso   1.000  H
  H54      1.0000 0.02190  0.30520  0.63120  Biso   1.000  H
  C74      1.0000 0.06770  0.32770  0.71310  Biso   1.000  C
  H55      1.0000 0.98240  0.43330  0.62920  Biso   1.000  H
  H56      1.0000 0.00100  0.53610  0.64600  Biso   1.000  H
  C75      1.0000 0.02500  0.44440  0.71200  Biso   1.000  C
  H57      1.0000 0.06540  0.56770  0.66100  Biso   1.000  H
  H58      1.0000 0.09150  0.48220  0.66260  Biso   1.000  H
  C76      1.0000 0.08870  0.48600  0.73150  Biso   1.000  C
  C77      1.0000 0.88627  0.41190  0.44430  Biso   1.000  C
  C78      1.0000 0.02010  0.22800  0.47180  Biso   1.000  C
  N10      1.0000 0.06596  0.41180  0.73905  Biso   1.000  N
  H59      1.0000 0.05510  0.27530  0.71980  Biso   1.000  H
  H60      1.0000 0.09560  0.31080  0.72830  Biso   1.000  H
  H61      1.0000 0.02400  0.50060  0.73060  Biso   1.000  H
  H62      1.0000 0.00890  0.39510  0.71440  Biso   1.000  H
  H63      1.0000 0.11670  0.46740  0.75030  Biso   1.000  H
  H64      1.0000 0.08730  0.54550  0.74730  Biso   1.000  H
  C79      1.0000 0.87260  0.38120  0.47640  Biso   1.000  C
  C80      1.0000 0.86120  0.41200  0.38850  Biso   1.000  C
  C81      1.0000 0.02860  0.15550  0.50960  Biso   1.000  C
  C82      1.0000 0.01760  0.20720  0.42400  Biso   1.000  C
  Zn6      1.0000 0.09365  0.39157  0.82373  Biso   1.000  Zn
  H65      1.0000 0.88910  0.38150  0.51430  Biso   1.000  H
  C83      1.0000 0.83368  0.35040  0.44970  Biso   1.000  C
  C84      1.0000 0.82410  0.37980  0.36250  Biso   1.000  C
  H66      1.0000 0.87080  0.43580  0.36800  Biso   1.000  H
  H67      1.0000 0.02850  0.16990  0.54050  Biso   1.000  H
  C85      1.0000 0.03700  0.06320  0.50230  Biso   1.000  C
  C86      1.0000 0.02580  0.11290  0.41620  Biso   1.000  C
  H68      1.0000 0.01080  0.25390  0.39780  Biso   1.000  H
  O21      1.0000 0.14432  0.34780  0.83723  Biso   1.000  O
  O22      1.0000 0.07167  0.33530  0.86350  Biso   1.000  O
  N11      1.0000 0.81232  0.31580  0.47032  Biso   1.000  N
  C87      1.0000 0.80800  0.34590  0.39370  Biso   1.000  C
  H69      1.0000 0.80840  0.37870  0.32450  Biso   1.000  H
  H70      1.0000 0.04410  0.01700  0.52890  Biso   1.000  H
  C88      1.0000 0.03470  0.04150  0.45540  Biso   1.000  C
  N12      1.0000 0.02720  0.07440  0.37380  Biso   1.000  N
  H71      1.0000 0.82140  0.31180  0.50450  Biso   1.000  H
  C89      1.0000 0.77353  0.28750  0.42800  Biso   1.000  C
  C90      1.0000 0.76970  0.30400  0.37770  Biso   1.000  C
  C91      1.0000 0.04100  0.95290  0.43350  Biso   1.000  C
  H72      1.0000 0.02310  0.10420  0.34550  Biso   1.000  H
  C92      1.0000 0.03670  0.97710  0.38580  Biso   1.000  C
  C93      1.0000 0.74262  0.24690  0.42980  Biso   1.000  C
  C94      1.0000 0.73400  0.27880  0.32930  Biso   1.000  C
  C95      1.0000 0.05040  0.86120  0.45180  Biso   1.000  C
  C96      1.0000 0.04290  0.91510  0.35410  Biso   1.000  C
  H73      1.0000 0.74570  0.23440  0.46310  Biso   1.000  H
  C97      1.0000 0.70760  0.22560  0.38190  Biso   1.000  C
  C98      1.0000 0.70200  0.24130  0.32990  Biso   1.000  C
  H74      1.0000 0.73160  0.28720  0.29620  Biso   1.000  H
  C99      1.0000 0.05590  0.79330  0.42190  Biso   1.000  C
  H75      1.0000 0.05320  0.84410  0.48450  Biso   1.000  H
  H76      1.0000 0.04120  0.93450  0.32250  Biso   1.000  H
  C100     1.0000 0.05220  0.82090  0.37360  Biso   1.000  C
  C101     1.0000 0.67290  0.18240  0.38190  Biso   1.000  C
  H77      1.0000 0.67780  0.22690  0.29770  Biso   1.000  H
  H78      1.0000 0.06190  0.73040  0.43390  Biso   1.000  H
  C102     1.0000 0.06220  0.74550  0.34390  Biso   1.000  C
  O23      1.0000 0.67468  0.17330  0.42520  Biso   1.000  O
  O24      1.0000 0.06360  0.77440  0.30490  Biso   1.000  O
  Zn7      1.0000 0.51049  0.97169  0.55490  Biso   1.000  Zn
  N13      1.0000 0.53537  0.94410  0.63669  Biso   1.000  N
  O25      1.0000 0.45177  0.93770  0.52114  Biso   1.000  O
  O26      1.0000 0.51697  0.84570  0.52700  Biso   1.000  O
  O27      1.0000 0.56175  0.01930  0.55958  Biso   1.000  O
  O28      1.0000 0.49804  0.11210  0.55649  Biso   1.000  O
  C103     1.0000 0.54600  0.84400  0.65030  Biso   1.000  C
  C104     1.0000 0.50717  0.96850  0.65200  Biso   1.000  C
  C105     1.0000 0.57160  0.00070  0.67020  Biso   1.000  C
  C106     1.0000 0.42780  0.94470  0.47030  Biso   1.000  C
  C107     1.0000 0.51247  0.82930  0.48080  Biso   1.000  C
  H79      1.0000 0.56350  0.82440  0.63860  Biso   1.000  H
  H80      1.0000 0.52190  0.80520  0.63120  Biso   1.000  H
  C108     1.0000 0.56770  0.82770  0.71310  Biso   1.000  C
  H81      1.0000 0.48240  0.93330  0.62920  Biso   1.000  H
  H82      1.0000 0.50100  0.03610  0.64600  Biso   1.000  H
  C109     1.0000 0.52500  0.94440  0.71200  Biso   1.000  C
  H83      1.0000 0.56540  0.06770  0.66100  Biso   1.000  H
  H84      1.0000 0.59150  0.98220  0.66260  Biso   1.000  H
  C110     1.0000 0.58870  0.98600  0.73150  Biso   1.000  C
  C111     1.0000 0.38627  0.91190  0.44430  Biso   1.000  C
  C112     1.0000 0.52010  0.72800  0.47180  Biso   1.000  C
  N14      1.0000 0.56596  0.91180  0.73905  Biso   1.000  N
  H85      1.0000 0.55510  0.77530  0.71980  Biso   1.000  H
  H86      1.0000 0.59560  0.81080  0.72830  Biso   1.000  H
  H87      1.0000 0.52400  0.00060  0.73060  Biso   1.000  H
  H88      1.0000 0.50890  0.89510  0.71440  Biso   1.000  H
  H89      1.0000 0.61670  0.96740  0.75030  Biso   1.000  H
  H90      1.0000 0.58730  0.04550  0.74730  Biso   1.000  H
  C113     1.0000 0.37260  0.88120  0.47640  Biso   1.000  C
  C114     1.0000 0.36120  0.91200  0.38850  Biso   1.000  C
  C115     1.0000 0.52860  0.65550  0.50960  Biso   1.000  C
  C116     1.0000 0.51760  0.70720  0.42400  Biso   1.000  C
  Zn8      1.0000 0.59365  0.89157  0.82373  Biso   1.000  Zn
  H91      1.0000 0.38910  0.88150  0.51430  Biso   1.000  H
  C117     1.0000 0.33368  0.85040  0.44970  Biso   1.000  C
  C118     1.0000 0.32410  0.87980  0.36250  Biso   1.000  C
  H92      1.0000 0.37080  0.93580  0.36800  Biso   1.000  H
  H93      1.0000 0.52850  0.66990  0.54050  Biso   1.000  H
  C119     1.0000 0.53700  0.56320  0.50230  Biso   1.000  C
  C120     1.0000 0.52580  0.61290  0.41620  Biso   1.000  C
  H94      1.0000 0.51080  0.75390  0.39780  Biso   1.000  H
  O29      1.0000 0.64432  0.84780  0.83723  Biso   1.000  O
  O30      1.0000 0.57167  0.83530  0.86350  Biso   1.000  O
  N15      1.0000 0.31232  0.81580  0.47032  Biso   1.000  N
  C121     1.0000 0.30800  0.84590  0.39370  Biso   1.000  C
  H95      1.0000 0.30840  0.87870  0.32450  Biso   1.000  H
  H96      1.0000 0.54410  0.51700  0.52890  Biso   1.000  H
  C122     1.0000 0.53470  0.54150  0.45540  Biso   1.000  C
  N16      1.0000 0.52720  0.57440  0.37380  Biso   1.000  N
  H97      1.0000 0.32140  0.81180  0.50450  Biso   1.000  H
  C123     1.0000 0.27353  0.78750  0.42800  Biso   1.000  C
  C124     1.0000 0.26970  0.80400  0.37770  Biso   1.000  C
  C125     1.0000 0.54100  0.45290  0.43350  Biso   1.000  C
  H98      1.0000 0.52310  0.60420  0.34550  Biso   1.000  H
  C126     1.0000 0.53670  0.47710  0.38580  Biso   1.000  C
  C127     1.0000 0.24262  0.74690  0.42980  Biso   1.000  C
  C128     1.0000 0.23400  0.77880  0.32930  Biso   1.000  C
  C129     1.0000 0.55040  0.36120  0.45180  Biso   1.000  C
  C130     1.0000 0.54290  0.41510  0.35410  Biso   1.000  C
  H99      1.0000 0.24570  0.73440  0.46310  Biso   1.000  H
  C131     1.0000 0.20760  0.72560  0.38190  Biso   1.000  C
  C132     1.0000 0.20200  0.74130  0.32990  Biso   1.000  C
  H100     1.0000 0.23160  0.78720  0.29620  Biso   1.000  H
  C133     1.0000 0.55590  0.29330  0.42190  Biso   1.000  C
  H101     1.0000 0.55320  0.34410  0.48450  Biso   1.000  H
  H102     1.0000 0.54120  0.43450  0.32250  Biso   1.000  H
  C134     1.0000 0.55220  0.32090  0.37360  Biso   1.000  C
  C135     1.0000 0.17290  0.68240  0.38190  Biso   1.000  C
  H103     1.0000 0.17780  0.72690  0.29770  Biso   1.000  H
  H104     1.0000 0.56190  0.23040  0.43390  Biso   1.000  H
  C136     1.0000 0.56220  0.24550  0.34390  Biso   1.000  C
  O31      1.0000 0.17468  0.67330  0.42520  Biso   1.000  O
  O32      1.0000 0.56360  0.27440  0.30490  Biso   1.000  O
  Zn9      1.0000 0.01049  0.52831  0.05490  Biso   1.000  Zn
  N17      1.0000 0.03537  0.55590  0.13669  Biso   1.000  N
  O33      1.0000 0.95177  0.56230  0.02114  Biso   1.000  O
  O34      1.0000 0.01697  0.65430  0.02700  Biso   1.000  O
  O35      1.0000 0.06175  0.48070  0.05958  Biso   1.000  O
  O36      1.0000 0.99804  0.38790  0.05649  Biso   1.000  O
  C137     1.0000 0.04600  0.65600  0.15030  Biso   1.000  C
  C138     1.0000 0.00717  0.53150  0.15200  Biso   1.000  C
  C139     1.0000 0.07160  0.49930  0.17020  Biso   1.000  C
  C140     1.0000 0.92780  0.55530  0.97030  Biso   1.000  C
  C141     1.0000 0.01247  0.67070  0.98080  Biso   1.000  C
  H105     1.0000 0.06350  0.67560  0.13860  Biso   1.000  H
  H106     1.0000 0.02190  0.69480  0.13120  Biso   1.000  H
  C142     1.0000 0.06770  0.67230  0.21310  Biso   1.000  C
  H107     1.0000 0.98240  0.56670  0.12920  Biso   1.000  H
  H108     1.0000 0.00100  0.46390  0.14600  Biso   1.000  H
  C143     1.0000 0.02500  0.55560  0.21200  Biso   1.000  C
  H109     1.0000 0.06540  0.43230  0.16100  Biso   1.000  H
  H110     1.0000 0.09150  0.51780  0.16260  Biso   1.000  H
  C144     1.0000 0.08870  0.51400  0.23150  Biso   1.000  C
  C145     1.0000 0.88627  0.58810  0.94430  Biso   1.000  C
  C146     1.0000 0.02010  0.77200  0.97180  Biso   1.000  C
  N18      1.0000 0.06596  0.58820  0.23905  Biso   1.000  N
  H111     1.0000 0.05510  0.72470  0.21980  Biso   1.000  H
  H112     1.0000 0.09560  0.68920  0.22830  Biso   1.000  H
  H113     1.0000 0.02400  0.49940  0.23060  Biso   1.000  H
  H114     1.0000 0.00890  0.60490  0.21440  Biso   1.000  H
  H115     1.0000 0.11670  0.53260  0.25030  Biso   1.000  H
  H116     1.0000 0.08730  0.45450  0.24730  Biso   1.000  H
  C147     1.0000 0.87260  0.61880  0.97640  Biso   1.000  C
  C148     1.0000 0.86120  0.58800  0.88850  Biso   1.000  C
  C149     1.0000 0.02860  0.84450  0.00960  Biso   1.000  C
  C150     1.0000 0.01760  0.79280  0.92400  Biso   1.000  C
  Zn10     1.0000 0.09365  0.60843  0.32373  Biso   1.000  Zn
  H117     1.0000 0.88910  0.61850  0.01430  Biso   1.000  H
  C151     1.0000 0.83368  0.64960  0.94970  Biso   1.000  C
  C152     1.0000 0.82410  0.62020  0.86250  Biso   1.000  C
  H118     1.0000 0.87080  0.56420  0.86800  Biso   1.000  H
  H119     1.0000 0.02850  0.83010  0.04050  Biso   1.000  H
  C153     1.0000 0.03700  0.93680  0.00230  Biso   1.000  C
  C154     1.0000 0.02580  0.88710  0.91620  Biso   1.000  C
  H120     1.0000 0.01080  0.74610  0.89780  Biso   1.000  H
  O37      1.0000 0.14432  0.65220  0.33723  Biso   1.000  O
  O38      1.0000 0.07167  0.66470  0.36350  Biso   1.000  O
  N19      1.0000 0.81232  0.68420  0.97032  Biso   1.000  N
  C155     1.0000 0.80800  0.65410  0.89370  Biso   1.000  C
  H121     1.0000 0.80840  0.62130  0.82450  Biso   1.000  H
  H122     1.0000 0.04410  0.98300  0.02890  Biso   1.000  H
  C156     1.0000 0.03470  0.95850  0.95540  Biso   1.000  C
  N20      1.0000 0.02720  0.92560  0.87380  Biso   1.000  N
  H123     1.0000 0.82140  0.68820  0.00450  Biso   1.000  H
  C157     1.0000 0.77353  0.71250  0.92800  Biso   1.000  C
  C158     1.0000 0.76970  0.69600  0.87770  Biso   1.000  C
  C159     1.0000 0.04100  0.04710  0.93350  Biso   1.000  C
  H124     1.0000 0.02310  0.89580  0.84550  Biso   1.000  H
  C160     1.0000 0.03670  0.02290  0.88580  Biso   1.000  C
  C161     1.0000 0.74262  0.75310  0.92980  Biso   1.000  C
  C162     1.0000 0.73400  0.72120  0.82930  Biso   1.000  C
  C163     1.0000 0.05040  0.13880  0.95180  Biso   1.000  C
  C164     1.0000 0.04290  0.08490  0.85410  Biso   1.000  C
  H125     1.0000 0.74570  0.76560  0.96310  Biso   1.000  H
  C165     1.0000 0.70760  0.77440  0.88190  Biso   1.000  C
  C166     1.0000 0.70200  0.75870  0.82990  Biso   1.000  C
  H126     1.0000 0.73160  0.71280  0.79620  Biso   1.000  H
  C167     1.0000 0.05590  0.20670  0.92190  Biso   1.000  C
  H127     1.0000 0.05320  0.15590  0.98450  Biso   1.000  H
  H128     1.0000 0.04120  0.06550  0.82250  Biso   1.000  H
  C168     1.0000 0.05220  0.17910  0.87360  Biso   1.000  C
  C169     1.0000 0.67290  0.81760  0.88190  Biso   1.000  C
  H129     1.0000 0.67780  0.77310  0.79770  Biso   1.000  H
  H130     1.0000 0.06190  0.26960  0.93390  Biso   1.000  H
  C170     1.0000 0.06220  0.25450  0.84390  Biso   1.000  C
  O39      1.0000 0.67468  0.82670  0.92520  Biso   1.000  O
  O40      1.0000 0.06360  0.22560  0.80490  Biso   1.000  O
  Zn11     1.0000 0.51049  0.02831  0.05490  Biso   1.000  Zn
  N21      1.0000 0.53537  0.05590  0.13669  Biso   1.000  N
  O41      1.0000 0.45177  0.06230  0.02114  Biso   1.000  O
  O42      1.0000 0.51697  0.15430  0.02700  Biso   1.000  O
  O43      1.0000 0.56175  0.98070  0.05958  Biso   1.000  O
  O44      1.0000 0.49804  0.88790  0.05649  Biso   1.000  O
  C171     1.0000 0.54600  0.15600  0.15030  Biso   1.000  C
  C172     1.0000 0.50717  0.03150  0.15200  Biso   1.000  C
  C173     1.0000 0.57160  0.99930  0.17020  Biso   1.000  C
  C174     1.0000 0.42780  0.05530  0.97030  Biso   1.000  C
  C175     1.0000 0.51247  0.17070  0.98080  Biso   1.000  C
  H131     1.0000 0.56350  0.17560  0.13860  Biso   1.000  H
  H132     1.0000 0.52190  0.19480  0.13120  Biso   1.000  H
  C176     1.0000 0.56770  0.17230  0.21310  Biso   1.000  C
  H133     1.0000 0.48240  0.06670  0.12920  Biso   1.000  H
  H134     1.0000 0.50100  0.96390  0.14600  Biso   1.000  H
  C177     1.0000 0.52500  0.05560  0.21200  Biso   1.000  C
  H135     1.0000 0.56540  0.93230  0.16100  Biso   1.000  H
  H136     1.0000 0.59150  0.01780  0.16260  Biso   1.000  H
  C178     1.0000 0.58870  0.01400  0.23150  Biso   1.000  C
  C179     1.0000 0.38627  0.08810  0.94430  Biso   1.000  C
  C180     1.0000 0.52010  0.27200  0.97180  Biso   1.000  C
  N22      1.0000 0.56596  0.08820  0.23905  Biso   1.000  N
  H137     1.0000 0.55510  0.22470  0.21980  Biso   1.000  H
  H138     1.0000 0.59560  0.18920  0.22830  Biso   1.000  H
  H139     1.0000 0.52400  0.99940  0.23060  Biso   1.000  H
  H140     1.0000 0.50890  0.10490  0.21440  Biso   1.000  H
  H141     1.0000 0.61670  0.03260  0.25030  Biso   1.000  H
  H142     1.0000 0.58730  0.95450  0.24730  Biso   1.000  H
  C181     1.0000 0.37260  0.11880  0.97640  Biso   1.000  C
  C182     1.0000 0.36120  0.08800  0.88850  Biso   1.000  C
  C183     1.0000 0.52860  0.34450  0.00960  Biso   1.000  C
  C184     1.0000 0.51760  0.29280  0.92400  Biso   1.000  C
  Zn12     1.0000 0.59365  0.10843  0.32373  Biso   1.000  Zn
  H143     1.0000 0.38910  0.11850  0.01430  Biso   1.000  H
  C185     1.0000 0.33368  0.14960  0.94970  Biso   1.000  C
  C186     1.0000 0.32410  0.12020  0.86250  Biso   1.000  C
  H144     1.0000 0.37080  0.06420  0.86800  Biso   1.000  H
  H145     1.0000 0.52850  0.33010  0.04050  Biso   1.000  H
  C187     1.0000 0.53700  0.43680  0.00230  Biso   1.000  C
  C188     1.0000 0.52580  0.38710  0.91620  Biso   1.000  C
  H146     1.0000 0.51080  0.24610  0.89780  Biso   1.000  H
  O45      1.0000 0.64432  0.15220  0.33723  Biso   1.000  O
  O46      1.0000 0.57167  0.16470  0.36350  Biso   1.000  O
  N23      1.0000 0.31232  0.18420  0.97032  Biso   1.000  N
  C189     1.0000 0.30800  0.15410  0.89370  Biso   1.000  C
  H147     1.0000 0.30840  0.12130  0.82450  Biso   1.000  H
  H148     1.0000 0.54410  0.48300  0.02890  Biso   1.000  H
  C190     1.0000 0.53470  0.45850  0.95540  Biso   1.000  C
  N24      1.0000 0.52720  0.42560  0.87380  Biso   1.000  N
  H149     1.0000 0.32140  0.18820  0.00450  Biso   1.000  H
  C191     1.0000 0.27353  0.21250  0.92800  Biso   1.000  C
  C192     1.0000 0.26970  0.19600  0.87770  Biso   1.000  C
  C193     1.0000 0.54100  0.54710  0.93350  Biso   1.000  C
  H150     1.0000 0.52310  0.39580  0.84550  Biso   1.000  H
  C194     1.0000 0.53670  0.52290  0.88580  Biso   1.000  C
  C195     1.0000 0.24262  0.25310  0.92980  Biso   1.000  C
  C196     1.0000 0.23400  0.22120  0.82930  Biso   1.000  C
  C197     1.0000 0.55040  0.63880  0.95180  Biso   1.000  C
  C198     1.0000 0.54290  0.58490  0.85410  Biso   1.000  C
  H151     1.0000 0.24570  0.26560  0.96310  Biso   1.000  H
  C199     1.0000 0.20760  0.27440  0.88190  Biso   1.000  C
  C200     1.0000 0.20200  0.25870  0.82990  Biso   1.000  C
  H152     1.0000 0.23160  0.21280  0.79620  Biso   1.000  H
  C201     1.0000 0.55590  0.70670  0.92190  Biso   1.000  C
  H153     1.0000 0.55320  0.65590  0.98450  Biso   1.000  H
  H154     1.0000 0.54120  0.56550  0.82250  Biso   1.000  H
  C202     1.0000 0.55220  0.67910  0.87360  Biso   1.000  C
  C203     1.0000 0.17290  0.31760  0.88190  Biso   1.000  C
  H155     1.0000 0.17780  0.27310  0.79770  Biso   1.000  H
  H156     1.0000 0.56190  0.76960  0.93390  Biso   1.000  H
  C204     1.0000 0.56220  0.75450  0.84390  Biso   1.000  C
  O47      1.0000 0.17468  0.32670  0.92520  Biso   1.000  O
  O48      1.0000 0.56360  0.72560  0.80490  Biso   1.000  O
  Zn13     1.0000 0.98951  0.52831  0.44510  Biso   1.000  Zn
  N25      1.0000 0.96463  0.55590  0.36331  Biso   1.000  N
  O49      1.0000 0.04823  0.56230  0.47886  Biso   1.000  O
  O50      1.0000 0.98303  0.65430  0.47300  Biso   1.000  O
  O51      1.0000 0.93825  0.48070  0.44042  Biso   1.000  O
  O52      1.0000 0.00196  0.38790  0.44351  Biso   1.000  O
  C205     1.0000 0.95400  0.65600  0.34970  Biso   1.000  C
  C206     1.0000 0.99283  0.53150  0.34800  Biso   1.000  C
  C207     1.0000 0.92840  0.49930  0.32980  Biso   1.000  C
  C208     1.0000 0.07220  0.55530  0.52970  Biso   1.000  C
  C209     1.0000 0.98753  0.67070  0.51920  Biso   1.000  C
  H157     1.0000 0.93650  0.67560  0.36140  Biso   1.000  H
  H158     1.0000 0.97810  0.69480  0.36880  Biso   1.000  H
  C210     1.0000 0.93230  0.67230  0.28690  Biso   1.000  C
  H159     1.0000 0.01760  0.56670  0.37080  Biso   1.000  H
  H160     1.0000 0.99900  0.46390  0.35400  Biso   1.000  H
  C211     1.0000 0.97500  0.55560  0.28800  Biso   1.000  C
  H161     1.0000 0.93460  0.43230  0.33900  Biso   1.000  H
  H162     1.0000 0.90850  0.51780  0.33740  Biso   1.000  H
  C212     1.0000 0.91130  0.51400  0.26850  Biso   1.000  C
  C213     1.0000 0.11373  0.58810  0.55570  Biso   1.000  C
  C214     1.0000 0.97990  0.77200  0.52820  Biso   1.000  C
  N26      1.0000 0.93404  0.58820  0.26095  Biso   1.000  N
  H163     1.0000 0.94490  0.72470  0.28020  Biso   1.000  H
  H164     1.0000 0.90440  0.68920  0.27170  Biso   1.000  H
  H165     1.0000 0.97600  0.49940  0.26940  Biso   1.000  H
  H166     1.0000 0.99110  0.60490  0.28560  Biso   1.000  H
  H167     1.0000 0.88330  0.53260  0.24970  Biso   1.000  H
  H168     1.0000 0.91270  0.45450  0.25270  Biso   1.000  H
  C215     1.0000 0.12740  0.61880  0.52360  Biso   1.000  C
  C216     1.0000 0.13880  0.58800  0.61150  Biso   1.000  C
  C217     1.0000 0.97140  0.84450  0.49040  Biso   1.000  C
  C218     1.0000 0.98240  0.79280  0.57600  Biso   1.000  C
  Zn14     1.0000 0.90635  0.60843  0.17627  Biso   1.000  Zn
  H169     1.0000 0.11090  0.61850  0.48570  Biso   1.000  H
  C219     1.0000 0.16632  0.64960  0.55030  Biso   1.000  C
  C220     1.0000 0.17590  0.62020  0.63750  Biso   1.000  C
  H170     1.0000 0.12920  0.56420  0.63200  Biso   1.000  H
  H171     1.0000 0.97150  0.83010  0.45950  Biso   1.000  H
  C221     1.0000 0.96300  0.93680  0.49770  Biso   1.000  C
  C222     1.0000 0.97420  0.88710  0.58380  Biso   1.000  C
  H172     1.0000 0.98920  0.74610  0.60220  Biso   1.000  H
  O53      1.0000 0.85568  0.65220  0.16277  Biso   1.000  O
  O54      1.0000 0.92833  0.66470  0.13650  Biso   1.000  O
  N27      1.0000 0.18768  0.68420  0.52968  Biso   1.000  N
  C223     1.0000 0.19200  0.65410  0.60630  Biso   1.000  C
  H173     1.0000 0.19160  0.62130  0.67550  Biso   1.000  H
  H174     1.0000 0.95590  0.98300  0.47110  Biso   1.000  H
  C224     1.0000 0.96530  0.95850  0.54460  Biso   1.000  C
  N28      1.0000 0.97280  0.92560  0.62620  Biso   1.000  N
  H175     1.0000 0.17860  0.68820  0.49550  Biso   1.000  H
  C225     1.0000 0.22647  0.71250  0.57200  Biso   1.000  C
  C226     1.0000 0.23030  0.69600  0.62230  Biso   1.000  C
  C227     1.0000 0.95900  0.04710  0.56650  Biso   1.000  C
  H176     1.0000 0.97690  0.89580  0.65450  Biso   1.000  H
  C228     1.0000 0.96330  0.02290  0.61420  Biso   1.000  C
  C229     1.0000 0.25738  0.75310  0.57020  Biso   1.000  C
  C230     1.0000 0.26600  0.72120  0.67070  Biso   1.000  C
  C231     1.0000 0.94960  0.13880  0.54820  Biso   1.000  C
  C232     1.0000 0.95710  0.08490  0.64590  Biso   1.000  C
  H177     1.0000 0.25430  0.76560  0.53690  Biso   1.000  H
  C233     1.0000 0.29240  0.77440  0.61810  Biso   1.000  C
  C234     1.0000 0.29800  0.75870  0.67010  Biso   1.000  C
  H178     1.0000 0.26840  0.71280  0.70380  Biso   1.000  H
  C235     1.0000 0.94410  0.20670  0.57810  Biso   1.000  C
  H179     1.0000 0.94680  0.15590  0.51550  Biso   1.000  H
  H180     1.0000 0.95880  0.06550  0.67750  Biso   1.000  H
  C236     1.0000 0.94780  0.17910  0.62640  Biso   1.000  C
  C237     1.0000 0.32710  0.81760  0.61810  Biso   1.000  C
  H181     1.0000 0.32220  0.77310  0.70230  Biso   1.000  H
  H182     1.0000 0.93810  0.26960  0.56610  Biso   1.000  H
  C238     1.0000 0.93780  0.25450  0.65610  Biso   1.000  C
  O55      1.0000 0.32532  0.82670  0.57480  Biso   1.000  O
  O56      1.0000 0.93640  0.22560  0.69510  Biso   1.000  O
  Zn15     1.0000 0.48951  0.02831  0.44510  Biso   1.000  Zn
  N29      1.0000 0.46463  0.05590  0.36331  Biso   1.000  N
  O57      1.0000 0.54823  0.06230  0.47886  Biso   1.000  O
  O58      1.0000 0.48303  0.15430  0.47300  Biso   1.000  O
  O59      1.0000 0.43825  0.98070  0.44042  Biso   1.000  O
  O60      1.0000 0.50196  0.88790  0.44351  Biso   1.000  O
  C239     1.0000 0.45400  0.15600  0.34970  Biso   1.000  C
  C240     1.0000 0.49283  0.03150  0.34800  Biso   1.000  C
  C241     1.0000 0.42840  0.99930  0.32980  Biso   1.000  C
  C242     1.0000 0.57220  0.05530  0.52970  Biso   1.000  C
  C243     1.0000 0.48753  0.17070  0.51920  Biso   1.000  C
  H183     1.0000 0.43650  0.17560  0.36140  Biso   1.000  H
  H184     1.0000 0.47810  0.19480  0.36880  Biso   1.000  H
  C244     1.0000 0.43230  0.17230  0.28690  Biso   1.000  C
  H185     1.0000 0.51760  0.06670  0.37080  Biso   1.000  H
  H186     1.0000 0.49900  0.96390  0.35400  Biso   1.000  H
  C245     1.0000 0.47500  0.05560  0.28800  Biso   1.000  C
  H187     1.0000 0.43460  0.93230  0.33900  Biso   1.000  H
  H188     1.0000 0.40850  0.01780  0.33740  Biso   1.000  H
  C246     1.0000 0.41130  0.01400  0.26850  Biso   1.000  C
  C247     1.0000 0.61373  0.08810  0.55570  Biso   1.000  C
  C248     1.0000 0.47990  0.27200  0.52820  Biso   1.000  C
  N30      1.0000 0.43404  0.08820  0.26095  Biso   1.000  N
  H189     1.0000 0.44490  0.22470  0.28020  Biso   1.000  H
  H190     1.0000 0.40440  0.18920  0.27170  Biso   1.000  H
  H191     1.0000 0.47600  0.99940  0.26940  Biso   1.000  H
  H192     1.0000 0.49110  0.10490  0.28560  Biso   1.000  H
  H193     1.0000 0.38330  0.03260  0.24970  Biso   1.000  H
  H194     1.0000 0.41270  0.95450  0.25270  Biso   1.000  H
  C249     1.0000 0.62740  0.11880  0.52360  Biso   1.000  C
  C250     1.0000 0.63880  0.08800  0.61150  Biso   1.000  C
  C251     1.0000 0.47140  0.34450  0.49040  Biso   1.000  C
  C252     1.0000 0.48240  0.29280  0.57600  Biso   1.000  C
  Zn16     1.0000 0.40635  0.10843  0.17627  Biso   1.000  Zn
  H195     1.0000 0.61090  0.11850  0.48570  Biso   1.000  H
  C253     1.0000 0.66632  0.14960  0.55030  Biso   1.000  C
  C254     1.0000 0.67590  0.12020  0.63750  Biso   1.000  C
  H196     1.0000 0.62920  0.06420  0.63200  Biso   1.000  H
  H197     1.0000 0.47150  0.33010  0.45950  Biso   1.000  H
  C255     1.0000 0.46300  0.43680  0.49770  Biso   1.000  C
  C256     1.0000 0.47420  0.38710  0.58380  Biso   1.000  C
  H198     1.0000 0.48920  0.24610  0.60220  Biso   1.000  H
  O61      1.0000 0.35568  0.15220  0.16277  Biso   1.000  O
  O62      1.0000 0.42833  0.16470  0.13650  Biso   1.000  O
  N31      1.0000 0.68768  0.18420  0.52968  Biso   1.000  N
  C257     1.0000 0.69200  0.15410  0.60630  Biso   1.000  C
  H199     1.0000 0.69160  0.12130  0.67550  Biso   1.000  H
  H200     1.0000 0.45590  0.48300  0.47110  Biso   1.000  H
  C258     1.0000 0.46530  0.45850  0.54460  Biso   1.000  C
  N32      1.0000 0.47280  0.42560  0.62620  Biso   1.000  N
  H201     1.0000 0.67860  0.18820  0.49550  Biso   1.000  H
  C259     1.0000 0.72647  0.21250  0.57200  Biso   1.000  C
  C260     1.0000 0.73030  0.19600  0.62230  Biso   1.000  C
  C261     1.0000 0.45900  0.54710  0.56650  Biso   1.000  C
  H202     1.0000 0.47690  0.39580  0.65450  Biso   1.000  H
  C262     1.0000 0.46330  0.52290  0.61420  Biso   1.000  C
  C263     1.0000 0.75738  0.25310  0.57020  Biso   1.000  C
  C264     1.0000 0.76600  0.22120  0.67070  Biso   1.000  C
  C265     1.0000 0.44960  0.63880  0.54820  Biso   1.000  C
  C266     1.0000 0.45710  0.58490  0.64590  Biso   1.000  C
  H203     1.0000 0.75430  0.26560  0.53690  Biso   1.000  H
  C267     1.0000 0.79240  0.27440  0.61810  Biso   1.000  C
  C268     1.0000 0.79800  0.25870  0.67010  Biso   1.000  C
  H204     1.0000 0.76840  0.21280  0.70380  Biso   1.000  H
  C269     1.0000 0.44410  0.70670  0.57810  Biso   1.000  C
  H205     1.0000 0.44680  0.65590  0.51550  Biso   1.000  H
  H206     1.0000 0.45880  0.56550  0.67750  Biso   1.000  H
  C270     1.0000 0.44780  0.67910  0.62640  Biso   1.000  C
  C271     1.0000 0.82710  0.31760  0.61810  Biso   1.000  C
  H207     1.0000 0.82220  0.27310  0.70230  Biso   1.000  H
  H208     1.0000 0.43810  0.76960  0.56610  Biso   1.000  H
  C272     1.0000 0.43780  0.75450  0.65610  Biso   1.000  C
  O63      1.0000 0.82532  0.32670  0.57480  Biso   1.000  O
  O64      1.0000 0.43640  0.72560  0.69510  Biso   1.000  O
