data_image0
_cell_length_a       21.713
_cell_length_b       21.713
_cell_length_c       14.998
_cell_angle_alpha    90
_cell_angle_beta     90
_cell_angle_gamma    120

_symmetry_space_group_name_H-M    "P 1"
_symmetry_int_tables_number       1

loop_
  _symmetry_equiv_pos_as_xyz
  'x, y, z'

loop_
  _atom_site_label
  _atom_site_occupancy
  _atom_site_fract_x
  _atom_site_fract_y
  _atom_site_fract_z
  _atom_site_thermal_displace_type
  _atom_site_B_iso_or_equiv
  _atom_site_type_symbol
  Cu1      1.0000 0.08926  0.37941  0.39215  Biso   1.000  Cu
  C1       1.0000 0.96550  0.34490  0.26050  Biso   1.000  C
  C2       1.0000 0.11340  0.25260  0.37900  Biso   1.000  C
  N1       1.0000 0.01040  0.35920  0.31020  Biso   1.000  N
  N2       1.0000 0.09891  0.29460  0.40200  Biso   1.000  N
  S1       1.0000 0.89918  0.32238  0.19030  Biso   1.000  S
  S2       1.0000 0.13577  0.19435  0.34499  Biso   1.000  S
  Cu2      1.0000 0.75593  0.71274  0.72548  Biso   1.000  Cu
  C3       1.0000 0.63217  0.67823  0.59383  Biso   1.000  C
  C4       1.0000 0.78007  0.58593  0.71233  Biso   1.000  C
  N3       1.0000 0.67707  0.69253  0.64353  Biso   1.000  N
  N4       1.0000 0.76558  0.62793  0.73533  Biso   1.000  N
  S3       1.0000 0.56585  0.65571  0.52363  Biso   1.000  S
  S4       1.0000 0.80244  0.52768  0.67832  Biso   1.000  S
  Cu3      1.0000 0.42259  0.04608  0.05882  Biso   1.000  Cu
  C5       1.0000 0.29883  0.01157  0.92717  Biso   1.000  C
  C6       1.0000 0.44673  0.91927  0.04567  Biso   1.000  C
  N5       1.0000 0.34373  0.02587  0.97687  Biso   1.000  N
  N6       1.0000 0.43224  0.96127  0.06867  Biso   1.000  N
  S5       1.0000 0.23251  0.98905  0.85697  Biso   1.000  S
  S6       1.0000 0.46910  0.86102  0.01166  Biso   1.000  S
  Cu4      1.0000 0.62059  0.70985  0.39215  Biso   1.000  Cu
  C7       1.0000 0.65510  0.62060  0.26050  Biso   1.000  C
  C8       1.0000 0.74740  0.86080  0.37900  Biso   1.000  C
  N7       1.0000 0.64080  0.65120  0.31020  Biso   1.000  N
  N8       1.0000 0.70540  0.80431  0.40200  Biso   1.000  N
  S7       1.0000 0.67762  0.57680  0.19030  Biso   1.000  S
  S8       1.0000 0.80565  0.94142  0.34499  Biso   1.000  S
  Cu5      1.0000 0.28726  0.04318  0.72548  Biso   1.000  Cu
  C9       1.0000 0.32177  0.95393  0.59383  Biso   1.000  C
  C10      1.0000 0.41407  0.19413  0.71233  Biso   1.000  C
  N9       1.0000 0.30747  0.98453  0.64353  Biso   1.000  N
  N10      1.0000 0.37207  0.13764  0.73533  Biso   1.000  N
  S9       1.0000 0.34429  0.91013  0.52363  Biso   1.000  S
  S10      1.0000 0.47232  0.27475  0.67832  Biso   1.000  S
  Cu6      1.0000 0.95392  0.37652  0.05882  Biso   1.000  Cu
  C11      1.0000 0.98843  0.28727  0.92717  Biso   1.000  C
  C12      1.0000 0.08073  0.52747  0.04567  Biso   1.000  C
  N11      1.0000 0.97413  0.31787  0.97687  Biso   1.000  N
  N12      1.0000 0.03873  0.47098  0.06867  Biso   1.000  N
  S11      1.0000 0.01095  0.24347  0.85697  Biso   1.000  S
  S12      1.0000 0.13898  0.60809  0.01166  Biso   1.000  S
  Cu7      1.0000 0.29015  0.91074  0.39215  Biso   1.000  Cu
  C13      1.0000 0.37940  0.03450  0.26050  Biso   1.000  C
  C14      1.0000 0.13920  0.88660  0.37900  Biso   1.000  C
  N13      1.0000 0.34880  0.98960  0.31020  Biso   1.000  N
  N14      1.0000 0.19569  0.90109  0.40200  Biso   1.000  N
  S13      1.0000 0.42320  0.10082  0.19030  Biso   1.000  S
  S14      1.0000 0.05858  0.86423  0.34499  Biso   1.000  S
  Cu8      1.0000 0.95682  0.24407  0.72548  Biso   1.000  Cu
  C15      1.0000 0.04607  0.36783  0.59383  Biso   1.000  C
  C16      1.0000 0.80587  0.21993  0.71233  Biso   1.000  C
  N15      1.0000 0.01547  0.32293  0.64353  Biso   1.000  N
  N16      1.0000 0.86236  0.23442  0.73533  Biso   1.000  N
  S15      1.0000 0.08987  0.43415  0.52363  Biso   1.000  S
  S16      1.0000 0.72525  0.19756  0.67832  Biso   1.000  S
  Cu9      1.0000 0.62348  0.57741  0.05882  Biso   1.000  Cu
  C17      1.0000 0.71273  0.70117  0.92717  Biso   1.000  C
  C18      1.0000 0.47253  0.55327  0.04567  Biso   1.000  C
  N17      1.0000 0.68213  0.65627  0.97687  Biso   1.000  N
  N18      1.0000 0.52902  0.56776  0.06867  Biso   1.000  N
  S17      1.0000 0.75653  0.76749  0.85697  Biso   1.000  S
  S18      1.0000 0.39191  0.53090  0.01166  Biso   1.000  S
  Cu10     1.0000 0.91074  0.62059  0.60785  Biso   1.000  Cu
  C19      1.0000 0.03450  0.65510  0.73950  Biso   1.000  C
  C20      1.0000 0.88660  0.74740  0.62100  Biso   1.000  C
  N19      1.0000 0.98960  0.64080  0.68980  Biso   1.000  N
  N20      1.0000 0.90109  0.70540  0.59800  Biso   1.000  N
  S19      1.0000 0.10082  0.67762  0.80970  Biso   1.000  S
  S20      1.0000 0.86423  0.80565  0.65501  Biso   1.000  S
  Cu11     1.0000 0.57741  0.95392  0.94118  Biso   1.000  Cu
  C21      1.0000 0.70117  0.98843  0.07283  Biso   1.000  C
  C22      1.0000 0.55327  0.08073  0.95433  Biso   1.000  C
  N21      1.0000 0.65627  0.97413  0.02313  Biso   1.000  N
  N22      1.0000 0.56776  0.03873  0.93133  Biso   1.000  N
  S21      1.0000 0.76749  0.01095  0.14303  Biso   1.000  S
  S22      1.0000 0.53090  0.13898  0.98834  Biso   1.000  S
  Cu12     1.0000 0.24407  0.28726  0.27452  Biso   1.000  Cu
  C23      1.0000 0.36783  0.32177  0.40617  Biso   1.000  C
  C24      1.0000 0.21993  0.41407  0.28767  Biso   1.000  C
  N23      1.0000 0.32293  0.30747  0.35647  Biso   1.000  N
  N24      1.0000 0.23442  0.37207  0.26467  Biso   1.000  N
  S23      1.0000 0.43415  0.34429  0.47637  Biso   1.000  S
  S24      1.0000 0.19756  0.47232  0.32168  Biso   1.000  S
  Cu13     1.0000 0.37941  0.29015  0.60785  Biso   1.000  Cu
  C25      1.0000 0.34490  0.37940  0.73950  Biso   1.000  C
  C26      1.0000 0.25260  0.13920  0.62100  Biso   1.000  C
  N25      1.0000 0.35920  0.34880  0.68980  Biso   1.000  N
  N26      1.0000 0.29460  0.19569  0.59800  Biso   1.000  N
  S25      1.0000 0.32238  0.42320  0.80970  Biso   1.000  S
  S26      1.0000 0.19435  0.05858  0.65501  Biso   1.000  S
  Cu14     1.0000 0.04608  0.62348  0.94118  Biso   1.000  Cu
  C27      1.0000 0.01157  0.71273  0.07283  Biso   1.000  C
  C28      1.0000 0.91927  0.47253  0.95433  Biso   1.000  C
  N27      1.0000 0.02587  0.68213  0.02313  Biso   1.000  N
  N28      1.0000 0.96127  0.52902  0.93133  Biso   1.000  N
  S27      1.0000 0.98905  0.75653  0.14303  Biso   1.000  S
  S28      1.0000 0.86102  0.39191  0.98834  Biso   1.000  S
  Cu15     1.0000 0.71274  0.95682  0.27452  Biso   1.000  Cu
  C29      1.0000 0.67823  0.04607  0.40617  Biso   1.000  C
  C30      1.0000 0.58593  0.80587  0.28767  Biso   1.000  C
  N29      1.0000 0.69253  0.01547  0.35647  Biso   1.000  N
  N30      1.0000 0.62793  0.86236  0.26467  Biso   1.000  N
  S29      1.0000 0.65571  0.08987  0.47637  Biso   1.000  S
  S30      1.0000 0.52768  0.72525  0.32168  Biso   1.000  S
  Cu16     1.0000 0.70985  0.08926  0.60785  Biso   1.000  Cu
  C31      1.0000 0.62060  0.96550  0.73950  Biso   1.000  C
  C32      1.0000 0.86080  0.11340  0.62100  Biso   1.000  C
  N31      1.0000 0.65120  0.01040  0.68980  Biso   1.000  N
  N32      1.0000 0.80431  0.09891  0.59800  Biso   1.000  N
  S31      1.0000 0.57680  0.89918  0.80970  Biso   1.000  S
  S32      1.0000 0.94142  0.13577  0.65501  Biso   1.000  S
  Cu17     1.0000 0.37652  0.42259  0.94118  Biso   1.000  Cu
  C33      1.0000 0.28727  0.29883  0.07283  Biso   1.000  C
  C34      1.0000 0.52747  0.44673  0.95433  Biso   1.000  C
  N33      1.0000 0.31787  0.34373  0.02313  Biso   1.000  N
  N34      1.0000 0.47098  0.43224  0.93133  Biso   1.000  N
  S33      1.0000 0.24347  0.23251  0.14303  Biso   1.000  S
  S34      1.0000 0.60809  0.46910  0.98834  Biso   1.000  S
  Cu18     1.0000 0.04318  0.75593  0.27452  Biso   1.000  Cu
  C35      1.0000 0.95393  0.63217  0.40617  Biso   1.000  C
  C36      1.0000 0.19413  0.78007  0.28767  Biso   1.000  C
  N35      1.0000 0.98453  0.67707  0.35647  Biso   1.000  N
  N36      1.0000 0.13764  0.76558  0.26467  Biso   1.000  N
  S35      1.0000 0.91013  0.56585  0.47637  Biso   1.000  S
  S36      1.0000 0.27475  0.80244  0.32168  Biso   1.000  S
