data_image0
_cell_length_a       17.0076
_cell_length_b       17.0076
_cell_length_c       7.8591
_cell_angle_alpha    90
_cell_angle_beta     90
_cell_angle_gamma    90

_symmetry_space_group_name_H-M    "P 1"
_symmetry_int_tables_number       1

loop_
  _symmetry_equiv_pos_as_xyz
  'x, y, z'

loop_
  _atom_site_label
  _atom_site_occupancy
  _atom_site_fract_x
  _atom_site_fract_y
  _atom_site_fract_z
  _atom_site_thermal_displace_type
  _atom_site_B_iso_or_equiv
  _atom_site_type_symbol
  N1       1.0000 0.67510  0.18619  0.41240  Biso   1.000  N
  N2       1.0000 0.75562  0.91647  0.41260  Biso   1.000  N
  C1       1.0000 0.69030  0.12130  0.33090  Biso   1.000  C
  H1       1.0000 0.68790  0.12190  0.21140  Biso   1.000  H
  C2       1.0000 0.71020  0.05045  0.41190  Biso   1.000  C
  C3       1.0000 0.73340  0.97980  0.33140  Biso   1.000  C
  H2       1.0000 0.73290  0.97830  0.21180  Biso   1.000  H
  N3       1.0000 0.32490  0.81381  0.41240  Biso   1.000  N
  N4       1.0000 0.24438  0.08353  0.41260  Biso   1.000  N
  C4       1.0000 0.30970  0.87870  0.33090  Biso   1.000  C
  H3       1.0000 0.31210  0.87810  0.21140  Biso   1.000  H
  C5       1.0000 0.28980  0.94955  0.41190  Biso   1.000  C
  C6       1.0000 0.26660  0.02020  0.33140  Biso   1.000  C
  H4       1.0000 0.26710  0.02170  0.21180  Biso   1.000  H
  N5       1.0000 0.18619  0.67510  0.58760  Biso   1.000  N
  N6       1.0000 0.91647  0.75562  0.58740  Biso   1.000  N
  C7       1.0000 0.12130  0.69030  0.66910  Biso   1.000  C
  H5       1.0000 0.12190  0.68790  0.78860  Biso   1.000  H
  C8       1.0000 0.05045  0.71020  0.58810  Biso   1.000  C
  C9       1.0000 0.97980  0.73340  0.66860  Biso   1.000  C
  H6       1.0000 0.97830  0.73290  0.78820  Biso   1.000  H
  N7       1.0000 0.81381  0.32490  0.58760  Biso   1.000  N
  N8       1.0000 0.08353  0.24438  0.58740  Biso   1.000  N
  C10      1.0000 0.87870  0.30970  0.66910  Biso   1.000  C
  H7       1.0000 0.87810  0.31210  0.78860  Biso   1.000  H
  C11      1.0000 0.94955  0.28980  0.58810  Biso   1.000  C
  C12      1.0000 0.02020  0.26660  0.66860  Biso   1.000  C
  H8       1.0000 0.02170  0.26710  0.78820  Biso   1.000  H
  N9       1.0000 0.32490  0.81381  0.58760  Biso   1.000  N
  N10      1.0000 0.24438  0.08353  0.58740  Biso   1.000  N
  C13      1.0000 0.30970  0.87870  0.66910  Biso   1.000  C
  H9       1.0000 0.31210  0.87810  0.78860  Biso   1.000  H
  C14      1.0000 0.28980  0.94955  0.58810  Biso   1.000  C
  C15      1.0000 0.26660  0.02020  0.66860  Biso   1.000  C
  H10      1.0000 0.26710  0.02170  0.78820  Biso   1.000  H
  N11      1.0000 0.67510  0.18619  0.58760  Biso   1.000  N
  N12      1.0000 0.75562  0.91647  0.58740  Biso   1.000  N
  C16      1.0000 0.69030  0.12130  0.66910  Biso   1.000  C
  H11      1.0000 0.68790  0.12190  0.78860  Biso   1.000  H
  C17      1.0000 0.71020  0.05045  0.58810  Biso   1.000  C
  C18      1.0000 0.73340  0.97980  0.66860  Biso   1.000  C
  H12      1.0000 0.73290  0.97830  0.78820  Biso   1.000  H
  N13      1.0000 0.81381  0.32490  0.41240  Biso   1.000  N
  N14      1.0000 0.08353  0.24438  0.41260  Biso   1.000  N
  C19      1.0000 0.87870  0.30970  0.33090  Biso   1.000  C
  H13      1.0000 0.87810  0.31210  0.21140  Biso   1.000  H
  C20      1.0000 0.94955  0.28980  0.41190  Biso   1.000  C
  C21      1.0000 0.02020  0.26660  0.33140  Biso   1.000  C
  H14      1.0000 0.02170  0.26710  0.21180  Biso   1.000  H
  N15      1.0000 0.18619  0.67510  0.41240  Biso   1.000  N
  N16      1.0000 0.91647  0.75562  0.41260  Biso   1.000  N
  C22      1.0000 0.12130  0.69030  0.33090  Biso   1.000  C
  H15      1.0000 0.12190  0.68790  0.21140  Biso   1.000  H
  C23      1.0000 0.05045  0.71020  0.41190  Biso   1.000  C
  C24      1.0000 0.97980  0.73340  0.33140  Biso   1.000  C
  H16      1.0000 0.97830  0.73290  0.21180  Biso   1.000  H
  Ag1      1.0000 0.18735  0.18735  0.75893  Biso   1.000  Ag
  N17      1.0000 0.09964  0.09964  0.91350  Biso   1.000  N
  C25      1.0000 0.05220  0.05220  0.83260  Biso   1.000  C
  H17      1.0000 0.05300  0.05300  0.71300  Biso   1.000  H
  Ag2      1.0000 0.81265  0.81265  0.75893  Biso   1.000  Ag
  N18      1.0000 0.90036  0.90036  0.91350  Biso   1.000  N
  C26      1.0000 0.94780  0.94780  0.83260  Biso   1.000  C
  H18      1.0000 0.94700  0.94700  0.71300  Biso   1.000  H
  Ag3      1.0000 0.81265  0.81265  0.24107  Biso   1.000  Ag
  N19      1.0000 0.90036  0.90036  0.08650  Biso   1.000  N
  C27      1.0000 0.94780  0.94780  0.16740  Biso   1.000  C
  H19      1.0000 0.94700  0.94700  0.28700  Biso   1.000  H
  Ag4      1.0000 0.18735  0.18735  0.24107  Biso   1.000  Ag
  N20      1.0000 0.09964  0.09964  0.08650  Biso   1.000  N
  C28      1.0000 0.05220  0.05220  0.16740  Biso   1.000  C
  H20      1.0000 0.05300  0.05300  0.28700  Biso   1.000  H
  C29      1.0000 0.00000  0.00000  0.91340  Biso   1.000  C
  C30      1.0000 0.00000  0.00000  0.08660  Biso   1.000  C
  N21      1.0000 0.31381  0.17510  0.91240  Biso   1.000  N
  N22      1.0000 0.58353  0.25562  0.91260  Biso   1.000  N
  C31      1.0000 0.37870  0.19030  0.83090  Biso   1.000  C
  H21      1.0000 0.37810  0.18790  0.71140  Biso   1.000  H
  C32      1.0000 0.44955  0.21020  0.91190  Biso   1.000  C
  C33      1.0000 0.52020  0.23340  0.83140  Biso   1.000  C
  H22      1.0000 0.52170  0.23290  0.71180  Biso   1.000  H
  N23      1.0000 0.68619  0.82490  0.91240  Biso   1.000  N
  N24      1.0000 0.41647  0.74438  0.91260  Biso   1.000  N
  C34      1.0000 0.62130  0.80970  0.83090  Biso   1.000  C
  H23      1.0000 0.62190  0.81210  0.71140  Biso   1.000  H
  C35      1.0000 0.55045  0.78980  0.91190  Biso   1.000  C
  C36      1.0000 0.47980  0.76660  0.83140  Biso   1.000  C
  H24      1.0000 0.47830  0.76710  0.71180  Biso   1.000  H
  N25      1.0000 0.82490  0.68619  0.08760  Biso   1.000  N
  N26      1.0000 0.74438  0.41647  0.08740  Biso   1.000  N
  C37      1.0000 0.80970  0.62130  0.16910  Biso   1.000  C
  H25      1.0000 0.81210  0.62190  0.28860  Biso   1.000  H
  C38      1.0000 0.78980  0.55045  0.08810  Biso   1.000  C
  C39      1.0000 0.76660  0.47980  0.16860  Biso   1.000  C
  H26      1.0000 0.76710  0.47830  0.28820  Biso   1.000  H
  N27      1.0000 0.17510  0.31381  0.08760  Biso   1.000  N
  N28      1.0000 0.25562  0.58353  0.08740  Biso   1.000  N
  C40      1.0000 0.19030  0.37870  0.16910  Biso   1.000  C
  H27      1.0000 0.18790  0.37810  0.28860  Biso   1.000  H
  C41      1.0000 0.21020  0.44955  0.08810  Biso   1.000  C
  C42      1.0000 0.23340  0.52020  0.16860  Biso   1.000  C
  H28      1.0000 0.23290  0.52170  0.28820  Biso   1.000  H
  N29      1.0000 0.68619  0.82490  0.08760  Biso   1.000  N
  N30      1.0000 0.41647  0.74438  0.08740  Biso   1.000  N
  C43      1.0000 0.62130  0.80970  0.16910  Biso   1.000  C
  H29      1.0000 0.62190  0.81210  0.28860  Biso   1.000  H
  C44      1.0000 0.55045  0.78980  0.08810  Biso   1.000  C
  C45      1.0000 0.47980  0.76660  0.16860  Biso   1.000  C
  H30      1.0000 0.47830  0.76710  0.28820  Biso   1.000  H
  N31      1.0000 0.31381  0.17510  0.08760  Biso   1.000  N
  N32      1.0000 0.58353  0.25562  0.08740  Biso   1.000  N
  C46      1.0000 0.37870  0.19030  0.16910  Biso   1.000  C
  H31      1.0000 0.37810  0.18790  0.28860  Biso   1.000  H
  C47      1.0000 0.44955  0.21020  0.08810  Biso   1.000  C
  C48      1.0000 0.52020  0.23340  0.16860  Biso   1.000  C
  H32      1.0000 0.52170  0.23290  0.28820  Biso   1.000  H
  N33      1.0000 0.17510  0.31381  0.91240  Biso   1.000  N
  N34      1.0000 0.25562  0.58353  0.91260  Biso   1.000  N
  C49      1.0000 0.19030  0.37870  0.83090  Biso   1.000  C
  H33      1.0000 0.18790  0.37810  0.71140  Biso   1.000  H
  C50      1.0000 0.21020  0.44955  0.91190  Biso   1.000  C
  C51      1.0000 0.23340  0.52020  0.83140  Biso   1.000  C
  H34      1.0000 0.23290  0.52170  0.71180  Biso   1.000  H
  N35      1.0000 0.82490  0.68619  0.91240  Biso   1.000  N
  N36      1.0000 0.74438  0.41647  0.91260  Biso   1.000  N
  C52      1.0000 0.80970  0.62130  0.83090  Biso   1.000  C
  H35      1.0000 0.81210  0.62190  0.71140  Biso   1.000  H
  C53      1.0000 0.78980  0.55045  0.91190  Biso   1.000  C
  C54      1.0000 0.76660  0.47980  0.83140  Biso   1.000  C
  H36      1.0000 0.76710  0.47830  0.71180  Biso   1.000  H
  Ag5      1.0000 0.68735  0.31265  0.25893  Biso   1.000  Ag
  N37      1.0000 0.59964  0.40036  0.41350  Biso   1.000  N
  C55      1.0000 0.55220  0.44780  0.33260  Biso   1.000  C
  H37      1.0000 0.55300  0.44700  0.21300  Biso   1.000  H
  Ag6      1.0000 0.31265  0.68735  0.25893  Biso   1.000  Ag
  N38      1.0000 0.40036  0.59964  0.41350  Biso   1.000  N
  C56      1.0000 0.44780  0.55220  0.33260  Biso   1.000  C
  H38      1.0000 0.44700  0.55300  0.21300  Biso   1.000  H
  Ag7      1.0000 0.31265  0.68735  0.74107  Biso   1.000  Ag
  N39      1.0000 0.40036  0.59964  0.58650  Biso   1.000  N
  C57      1.0000 0.44780  0.55220  0.66740  Biso   1.000  C
  H39      1.0000 0.44700  0.55300  0.78700  Biso   1.000  H
  Ag8      1.0000 0.68735  0.31265  0.74107  Biso   1.000  Ag
  N40      1.0000 0.59964  0.40036  0.58650  Biso   1.000  N
  C58      1.0000 0.55220  0.44780  0.66740  Biso   1.000  C
  H40      1.0000 0.55300  0.44700  0.78700  Biso   1.000  H
  C59      1.0000 0.50000  0.50000  0.41340  Biso   1.000  C
  C60      1.0000 0.50000  0.50000  0.58660  Biso   1.000  C
