data_image0
_cell_length_a       17.0801
_cell_length_b       17.0782
_cell_length_c       7.592
_cell_angle_alpha    90
_cell_angle_beta     90
_cell_angle_gamma    90

_symmetry_space_group_name_H-M    "P 1"
_symmetry_int_tables_number       1

loop_
  _symmetry_equiv_pos_as_xyz
  'x, y, z'

loop_
  _atom_site_label
  _atom_site_occupancy
  _atom_site_fract_x
  _atom_site_fract_y
  _atom_site_fract_z
  _atom_site_thermal_displace_type
  _atom_site_B_iso_or_equiv
  _atom_site_type_symbol
  Ag1      1.0000 0.81416  0.18978  0.24346  Biso   1.000  Ag
  N1       1.0000 0.90310  0.10050  0.09040  Biso   1.000  N
  N2       1.0000 0.69320  0.19310  0.09130  Biso   1.000  N
  N3       1.0000 0.42140  0.26270  0.09290  Biso   1.000  N
  N4       1.0000 0.84080  0.32080  0.09090  Biso   1.000  N
  N5       1.0000 0.74990  0.58580  0.08740  Biso   1.000  N
  C1       1.0000 0.94870  0.05300  0.17570  Biso   1.000  C
  H1       1.0000 0.94780  0.05370  0.29950  Biso   1.000  H
  C2       1.0000 0.62690  0.20490  0.17470  Biso   1.000  C
  H2       1.0000 0.62760  0.20140  0.29830  Biso   1.000  H
  C3       1.0000 0.55540  0.22200  0.09430  Biso   1.000  C
  C4       1.0000 0.48520  0.24310  0.17310  Biso   1.000  C
  H3       1.0000 0.48390  0.24320  0.29690  Biso   1.000  H
  C5       1.0000 0.82410  0.38640  0.17780  Biso   1.000  C
  H4       1.0000 0.82630  0.38640  0.30150  Biso   1.000  H
  C6       1.0000 0.80270  0.45680  0.08750  Biso   1.000  C
  C7       1.0000 0.77550  0.52380  0.18200  Biso   1.000  C
  H5       1.0000 0.77540  0.52470  0.30580  Biso   1.000  H
  Ag2      1.0000 0.18584  0.81022  0.24346  Biso   1.000  Ag
  N6       1.0000 0.09690  0.89950  0.09040  Biso   1.000  N
  N7       1.0000 0.30680  0.80690  0.09130  Biso   1.000  N
  N8       1.0000 0.57860  0.73730  0.09290  Biso   1.000  N
  N9       1.0000 0.15920  0.67920  0.09090  Biso   1.000  N
  N10      1.0000 0.25010  0.41420  0.08740  Biso   1.000  N
  C8       1.0000 0.05130  0.94700  0.17570  Biso   1.000  C
  H6       1.0000 0.05220  0.94630  0.29950  Biso   1.000  H
  C9       1.0000 0.37310  0.79510  0.17470  Biso   1.000  C
  H7       1.0000 0.37240  0.79860  0.29830  Biso   1.000  H
  C10      1.0000 0.44460  0.77800  0.09430  Biso   1.000  C
  C11      1.0000 0.51480  0.75690  0.17310  Biso   1.000  C
  H8       1.0000 0.51610  0.75680  0.29690  Biso   1.000  H
  C12      1.0000 0.17590  0.61360  0.17780  Biso   1.000  C
  H9       1.0000 0.17370  0.61360  0.30150  Biso   1.000  H
  C13      1.0000 0.19730  0.54320  0.08750  Biso   1.000  C
  C14      1.0000 0.22450  0.47620  0.18200  Biso   1.000  C
  H10      1.0000 0.22460  0.47530  0.30580  Biso   1.000  H
  Ag3      1.0000 0.68584  0.68978  0.25654  Biso   1.000  Ag
  N11      1.0000 0.59690  0.60050  0.40960  Biso   1.000  N
  N12      1.0000 0.80680  0.69310  0.40870  Biso   1.000  N
  N13      1.0000 0.07860  0.76270  0.40710  Biso   1.000  N
  N14      1.0000 0.65920  0.82080  0.40910  Biso   1.000  N
  N15      1.0000 0.75010  0.08580  0.41260  Biso   1.000  N
  C15      1.0000 0.55130  0.55300  0.32430  Biso   1.000  C
  H11      1.0000 0.55220  0.55370  0.20050  Biso   1.000  H
  C16      1.0000 0.87310  0.70490  0.32530  Biso   1.000  C
  H12      1.0000 0.87240  0.70140  0.20170  Biso   1.000  H
  C17      1.0000 0.94460  0.72200  0.40570  Biso   1.000  C
  C18      1.0000 0.01480  0.74310  0.32690  Biso   1.000  C
  H13      1.0000 0.01610  0.74320  0.20310  Biso   1.000  H
  C19      1.0000 0.67590  0.88640  0.32220  Biso   1.000  C
  H14      1.0000 0.67370  0.88640  0.19850  Biso   1.000  H
  C20      1.0000 0.69730  0.95680  0.41250  Biso   1.000  C
  C21      1.0000 0.72450  0.02380  0.31800  Biso   1.000  C
  H15      1.0000 0.72460  0.02470  0.19420  Biso   1.000  H
  Ag4      1.0000 0.31416  0.31022  0.25654  Biso   1.000  Ag
  N16      1.0000 0.40310  0.39950  0.40960  Biso   1.000  N
  N17      1.0000 0.19320  0.30690  0.40870  Biso   1.000  N
  N18      1.0000 0.92140  0.23730  0.40710  Biso   1.000  N
  N19      1.0000 0.34080  0.17920  0.40910  Biso   1.000  N
  N20      1.0000 0.24990  0.91420  0.41260  Biso   1.000  N
  C22      1.0000 0.44870  0.44700  0.32430  Biso   1.000  C
  H16      1.0000 0.44780  0.44630  0.20050  Biso   1.000  H
  C23      1.0000 0.12690  0.29510  0.32530  Biso   1.000  C
  H17      1.0000 0.12760  0.29860  0.20170  Biso   1.000  H
  C24      1.0000 0.05540  0.27800  0.40570  Biso   1.000  C
  C25      1.0000 0.98520  0.25690  0.32690  Biso   1.000  C
  H18      1.0000 0.98390  0.25680  0.20310  Biso   1.000  H
  C26      1.0000 0.32410  0.11360  0.32220  Biso   1.000  C
  H19      1.0000 0.32630  0.11360  0.19850  Biso   1.000  H
  C27      1.0000 0.30270  0.04320  0.41250  Biso   1.000  C
  C28      1.0000 0.27550  0.97620  0.31800  Biso   1.000  C
  H20      1.0000 0.27540  0.97530  0.19420  Biso   1.000  H
  Ag5      1.0000 0.18584  0.81022  0.75654  Biso   1.000  Ag
  N21      1.0000 0.09690  0.89950  0.90960  Biso   1.000  N
  N22      1.0000 0.30680  0.80690  0.90870  Biso   1.000  N
  N23      1.0000 0.57860  0.73730  0.90710  Biso   1.000  N
  N24      1.0000 0.15920  0.67920  0.90910  Biso   1.000  N
  N25      1.0000 0.25010  0.41420  0.91260  Biso   1.000  N
  C29      1.0000 0.05130  0.94700  0.82430  Biso   1.000  C
  H21      1.0000 0.05220  0.94630  0.70050  Biso   1.000  H
  C30      1.0000 0.37310  0.79510  0.82530  Biso   1.000  C
  H22      1.0000 0.37240  0.79860  0.70170  Biso   1.000  H
  C31      1.0000 0.44460  0.77800  0.90570  Biso   1.000  C
  C32      1.0000 0.51480  0.75690  0.82690  Biso   1.000  C
  H23      1.0000 0.51610  0.75680  0.70310  Biso   1.000  H
  C33      1.0000 0.17590  0.61360  0.82220  Biso   1.000  C
  H24      1.0000 0.17370  0.61360  0.69850  Biso   1.000  H
  C34      1.0000 0.19730  0.54320  0.91250  Biso   1.000  C
  C35      1.0000 0.22450  0.47620  0.81800  Biso   1.000  C
  H25      1.0000 0.22460  0.47530  0.69420  Biso   1.000  H
  Ag6      1.0000 0.81416  0.18978  0.75654  Biso   1.000  Ag
  N26      1.0000 0.90310  0.10050  0.90960  Biso   1.000  N
  N27      1.0000 0.69320  0.19310  0.90870  Biso   1.000  N
  N28      1.0000 0.42140  0.26270  0.90710  Biso   1.000  N
  N29      1.0000 0.84080  0.32080  0.90910  Biso   1.000  N
  N30      1.0000 0.74990  0.58580  0.91260  Biso   1.000  N
  C36      1.0000 0.94870  0.05300  0.82430  Biso   1.000  C
  H26      1.0000 0.94780  0.05370  0.70050  Biso   1.000  H
  C37      1.0000 0.62690  0.20490  0.82530  Biso   1.000  C
  H27      1.0000 0.62760  0.20140  0.70170  Biso   1.000  H
  C38      1.0000 0.55540  0.22200  0.90570  Biso   1.000  C
  C39      1.0000 0.48520  0.24310  0.82690  Biso   1.000  C
  H28      1.0000 0.48390  0.24320  0.70310  Biso   1.000  H
  C40      1.0000 0.82410  0.38640  0.82220  Biso   1.000  C
  H29      1.0000 0.82630  0.38640  0.69850  Biso   1.000  H
  C41      1.0000 0.80270  0.45680  0.91250  Biso   1.000  C
  C42      1.0000 0.77550  0.52380  0.81800  Biso   1.000  C
  H30      1.0000 0.77540  0.52470  0.69420  Biso   1.000  H
  Ag7      1.0000 0.31416  0.31022  0.74346  Biso   1.000  Ag
  N31      1.0000 0.40310  0.39950  0.59040  Biso   1.000  N
  N32      1.0000 0.19320  0.30690  0.59130  Biso   1.000  N
  N33      1.0000 0.92140  0.23730  0.59290  Biso   1.000  N
  N34      1.0000 0.34080  0.17920  0.59090  Biso   1.000  N
  N35      1.0000 0.24990  0.91420  0.58740  Biso   1.000  N
  C43      1.0000 0.44870  0.44700  0.67570  Biso   1.000  C
  H31      1.0000 0.44780  0.44630  0.79950  Biso   1.000  H
  C44      1.0000 0.12690  0.29510  0.67470  Biso   1.000  C
  H32      1.0000 0.12760  0.29860  0.79830  Biso   1.000  H
  C45      1.0000 0.05540  0.27800  0.59430  Biso   1.000  C
  C46      1.0000 0.98520  0.25690  0.67310  Biso   1.000  C
  H33      1.0000 0.98390  0.25680  0.79690  Biso   1.000  H
  C47      1.0000 0.32410  0.11360  0.67780  Biso   1.000  C
  H34      1.0000 0.32630  0.11360  0.80150  Biso   1.000  H
  C48      1.0000 0.30270  0.04320  0.58750  Biso   1.000  C
  C49      1.0000 0.27550  0.97620  0.68200  Biso   1.000  C
  H35      1.0000 0.27540  0.97530  0.80580  Biso   1.000  H
  Ag8      1.0000 0.68584  0.68978  0.74346  Biso   1.000  Ag
  N36      1.0000 0.59690  0.60050  0.59040  Biso   1.000  N
  N37      1.0000 0.80680  0.69310  0.59130  Biso   1.000  N
  N38      1.0000 0.07860  0.76270  0.59290  Biso   1.000  N
  N39      1.0000 0.65920  0.82080  0.59090  Biso   1.000  N
  N40      1.0000 0.75010  0.08580  0.58740  Biso   1.000  N
  C50      1.0000 0.55130  0.55300  0.67570  Biso   1.000  C
  H36      1.0000 0.55220  0.55370  0.79950  Biso   1.000  H
  C51      1.0000 0.87310  0.70490  0.67470  Biso   1.000  C
  H37      1.0000 0.87240  0.70140  0.79830  Biso   1.000  H
  C52      1.0000 0.94460  0.72200  0.59430  Biso   1.000  C
  C53      1.0000 0.01480  0.74310  0.67310  Biso   1.000  C
  H38      1.0000 0.01610  0.74320  0.79690  Biso   1.000  H
  C54      1.0000 0.67590  0.88640  0.67780  Biso   1.000  C
  H39      1.0000 0.67370  0.88640  0.80150  Biso   1.000  H
  C55      1.0000 0.69730  0.95680  0.58750  Biso   1.000  C
  C56      1.0000 0.72450  0.02380  0.68200  Biso   1.000  C
  H40      1.0000 0.72460  0.02470  0.80580  Biso   1.000  H
  C57      1.0000 0.00000  0.00000  0.08830  Biso   1.000  C
  C58      1.0000 0.50000  0.50000  0.41170  Biso   1.000  C
  C59      1.0000 0.00000  0.00000  0.91170  Biso   1.000  C
  C60      1.0000 0.50000  0.50000  0.58830  Biso   1.000  C
