data_image0
_cell_length_a       8.7652
_cell_length_b       22.1004
_cell_length_c       10.4417
_cell_angle_alpha    90
_cell_angle_beta     91.874
_cell_angle_gamma    90

_symmetry_space_group_name_H-M    "P 1"
_symmetry_int_tables_number       1

loop_
  _symmetry_equiv_pos_as_xyz
  'x, y, z'

loop_
  _atom_site_label
  _atom_site_occupancy
  _atom_site_fract_x
  _atom_site_fract_y
  _atom_site_fract_z
  _atom_site_thermal_displace_type
  _atom_site_B_iso_or_equiv
  _atom_site_type_symbol
  Ag1      1.0000 0.34332  0.80347  0.51196  Biso   1.000  Ag
  Ag2      1.0000 0.25102  0.70781  0.75673  Biso   1.000  Ag
  Ag3      1.0000 0.17730  0.79584  0.01653  Biso   1.000  Ag
  N1       1.0000 0.37310  0.70413  0.47930  Biso   1.000  N
  N2       1.0000 0.37320  0.66854  0.58470  Biso   1.000  N
  N3       1.0000 0.55450  0.39579  0.46290  Biso   1.000  N
  N4       1.0000 0.60420  0.43221  0.36940  Biso   1.000  N
  N5       1.0000 0.11410  0.82542  0.62240  Biso   1.000  N
  N6       1.0000 0.06310  0.77886  0.69220  Biso   1.000  N
  N7       1.0000 0.45060  0.77395  0.82600  Biso   1.000  N
  N8       1.0000 0.39920  0.81906  0.90180  Biso   1.000  N
  N9       1.0000 0.12490  0.66478  0.92210  Biso   1.000  N
  N10      1.0000 0.12260  0.69635  0.03310  Biso   1.000  N
  N11      1.0000 0.93570  0.38783  0.00620  Biso   1.000  N
  N12      1.0000 0.88940  0.42100  0.10590  Biso   1.000  N
  C1       1.0000 0.40290  0.61020  0.57510  Biso   1.000  C
  H1       1.0000 0.40440  0.58680  0.65030  Biso   1.000  H
  C2       1.0000 0.43250  0.58104  0.45870  Biso   1.000  C
  C3       1.0000 0.42710  0.61687  0.35130  Biso   1.000  C
  H2       1.0000 0.44160  0.60020  0.26970  Biso   1.000  H
  C4       1.0000 0.39950  0.67893  0.36640  Biso   1.000  C
  H3       1.0000 0.39950  0.70390  0.29340  Biso   1.000  H
  C5       1.0000 0.56170  0.48944  0.36820  Biso   1.000  C
  H4       1.0000 0.59650  0.51430  0.30220  Biso   1.000  H
  C6       1.0000 0.46790  0.51562  0.45930  Biso   1.000  C
  C7       1.0000 0.41510  0.47784  0.55200  Biso   1.000  C
  H5       1.0000 0.34890  0.49180  0.61450  Biso   1.000  H
  C8       1.0000 0.46380  0.41756  0.54980  Biso   1.000  C
  H6       1.0000 0.42990  0.39120  0.61360  Biso   1.000  H
  C9       1.0000 0.02850  0.87444  0.60850  Biso   1.000  C
  H7       1.0000 0.06680  0.90700  0.56130  Biso   1.000  H
  C10      1.0000 0.88480  0.88040  0.65970  Biso   1.000  C
  H8       1.0000 0.82780  0.91620  0.64860  Biso   1.000  H
  C11      1.0000 0.82860  0.83226  0.72720  Biso   1.000  C
  C12      1.0000 0.92630  0.78222  0.74180  Biso   1.000  C
  H9       1.0000 0.89250  0.74910  0.78970  Biso   1.000  H
  C13      1.0000 0.58330  0.77984  0.77100  Biso   1.000  C
  H10      1.0000 0.61670  0.74810  0.71900  Biso   1.000  H
  C14      1.0000 0.67760  0.83111  0.78610  Biso   1.000  C
  C15      1.0000 0.62140  0.87780  0.85690  Biso   1.000  C
  H11      1.0000 0.67580  0.91420  0.86710  Biso   1.000  H
  C16      1.0000 0.48060  0.86948  0.91340  Biso   1.000  C
  H12      1.0000 0.44160  0.90130  0.96220  Biso   1.000  H
  C17      1.0000 0.09020  0.60634  0.92150  Biso   1.000  C
  H13      1.0000 0.08950  0.58560  0.84290  Biso   1.000  H
  C18      1.0000 0.05470  0.57376  0.03200  Biso   1.000  C
  C19      1.0000 0.05540  0.60556  0.14480  Biso   1.000  C
  H14      1.0000 0.03530  0.58640  0.22280  Biso   1.000  H
  C20      1.0000 0.08710  0.66761  0.13990  Biso   1.000  C
  H15      1.0000 0.08310  0.69010  0.21620  Biso   1.000  H
  C21      1.0000 0.02070  0.41280  0.91870  Biso   1.000  C
  H16      1.0000 0.05190  0.38860  0.85030  Biso   1.000  H
  C22      1.0000 0.06690  0.47331  0.92230  Biso   1.000  C
  H17      1.0000 0.12930  0.48950  0.85930  Biso   1.000  H
  C23      1.0000 0.01740  0.50830  0.02190  Biso   1.000  C
  C24      1.0000 0.93000  0.47845  0.11240  Biso   1.000  C
  H18      1.0000 0.89790  0.50100  0.18300  Biso   1.000  H
  Ag4      1.0000 0.65668  0.30347  0.48804  Biso   1.000  Ag
  Ag5      1.0000 0.74898  0.20781  0.24327  Biso   1.000  Ag
  Ag6      1.0000 0.82270  0.29584  0.98347  Biso   1.000  Ag
  N13      1.0000 0.62690  0.20413  0.52070  Biso   1.000  N
  N14      1.0000 0.62680  0.16854  0.41530  Biso   1.000  N
  N15      1.0000 0.44550  0.89579  0.53710  Biso   1.000  N
  N16      1.0000 0.39580  0.93221  0.63060  Biso   1.000  N
  N17      1.0000 0.88590  0.32542  0.37760  Biso   1.000  N
  N18      1.0000 0.93690  0.27886  0.30780  Biso   1.000  N
  N19      1.0000 0.54940  0.27395  0.17400  Biso   1.000  N
  N20      1.0000 0.60080  0.31906  0.09820  Biso   1.000  N
  N21      1.0000 0.87510  0.16478  0.07790  Biso   1.000  N
  N22      1.0000 0.87740  0.19635  0.96690  Biso   1.000  N
  N23      1.0000 0.06430  0.88783  0.99380  Biso   1.000  N
  N24      1.0000 0.11060  0.92100  0.89410  Biso   1.000  N
  C25      1.0000 0.59710  0.11020  0.42490  Biso   1.000  C
  H19      1.0000 0.59560  0.08680  0.34970  Biso   1.000  H
  C26      1.0000 0.56750  0.08104  0.54130  Biso   1.000  C
  C27      1.0000 0.57290  0.11687  0.64870  Biso   1.000  C
  H20      1.0000 0.55840  0.10020  0.73030  Biso   1.000  H
  C28      1.0000 0.60050  0.17893  0.63360  Biso   1.000  C
  H21      1.0000 0.60050  0.20390  0.70660  Biso   1.000  H
  C29      1.0000 0.43830  0.98944  0.63180  Biso   1.000  C
  H22      1.0000 0.40350  0.01430  0.69780  Biso   1.000  H
  C30      1.0000 0.53210  0.01562  0.54070  Biso   1.000  C
  C31      1.0000 0.58490  0.97784  0.44800  Biso   1.000  C
  H23      1.0000 0.65110  0.99180  0.38550  Biso   1.000  H
  C32      1.0000 0.53620  0.91756  0.45020  Biso   1.000  C
  H24      1.0000 0.57010  0.89120  0.38640  Biso   1.000  H
  C33      1.0000 0.97150  0.37444  0.39150  Biso   1.000  C
  H25      1.0000 0.93320  0.40700  0.43870  Biso   1.000  H
  C34      1.0000 0.11520  0.38040  0.34030  Biso   1.000  C
  H26      1.0000 0.17220  0.41620  0.35140  Biso   1.000  H
  C35      1.0000 0.17140  0.33226  0.27280  Biso   1.000  C
  C36      1.0000 0.07370  0.28222  0.25820  Biso   1.000  C
  H27      1.0000 0.10750  0.24910  0.21030  Biso   1.000  H
  C37      1.0000 0.41670  0.27984  0.22900  Biso   1.000  C
  H28      1.0000 0.38330  0.24810  0.28100  Biso   1.000  H
  C38      1.0000 0.32240  0.33111  0.21390  Biso   1.000  C
  C39      1.0000 0.37860  0.37780  0.14310  Biso   1.000  C
  H29      1.0000 0.32420  0.41420  0.13290  Biso   1.000  H
  C40      1.0000 0.51940  0.36948  0.08660  Biso   1.000  C
  H30      1.0000 0.55840  0.40130  0.03780  Biso   1.000  H
  C41      1.0000 0.90980  0.10634  0.07850  Biso   1.000  C
  H31      1.0000 0.91050  0.08560  0.15710  Biso   1.000  H
  C42      1.0000 0.94530  0.07376  0.96800  Biso   1.000  C
  C43      1.0000 0.94460  0.10556  0.85520  Biso   1.000  C
  H32      1.0000 0.96470  0.08640  0.77720  Biso   1.000  H
  C44      1.0000 0.91290  0.16761  0.86010  Biso   1.000  C
  H33      1.0000 0.91690  0.19010  0.78380  Biso   1.000  H
  C45      1.0000 0.97930  0.91280  0.08130  Biso   1.000  C
  H34      1.0000 0.94810  0.88860  0.14970  Biso   1.000  H
  C46      1.0000 0.93310  0.97331  0.07770  Biso   1.000  C
  H35      1.0000 0.87070  0.98950  0.14070  Biso   1.000  H
  C47      1.0000 0.98260  0.00830  0.97810  Biso   1.000  C
  C48      1.0000 0.07000  0.97845  0.88760  Biso   1.000  C
  H36      1.0000 0.10210  0.00100  0.81700  Biso   1.000  H
