data_WILGEE_charged
_audit_creation_date              2014-07-02
_audit_creation_method            'Materials Studio'
_symmetry_space_group_name_H-M    'P1'
_symmetry_Int_Tables_number       1
_symmetry_cell_setting            triclinic
loop_
_symmetry_equiv_pos_as_xyz
  x,y,z
_cell_length_a                    7.7385
_cell_length_b                    19.4728
_cell_length_c                    25.6963
_cell_angle_alpha                 88.2856
_cell_angle_beta                  81.3400
_cell_angle_gamma                 78.5393
loop_
_atom_site_label
_atom_site_type_symbol
_atom_site_fract_x
_atom_site_fract_y
_atom_site_fract_z
_atom_site_U_iso_or_equiv
_atom_site_adp_type
_atom_site_occupancy
Si1    Si    0.77263   0.45474   0.75000   0.01267  Uiso   1.00
F1     F     0.96782   0.46154   0.77262   0.01267  Uiso   1.00
F2     F     0.66955   0.52000   0.79550   0.01267  Uiso   1.00
F3     F     0.74127   0.39010   0.79396   0.01267  Uiso   1.00
F4     F     0.57064   0.46154   0.72738   0.01267  Uiso   1.00
F5     F     0.81045   0.52000   0.70450   0.01267  Uiso   1.00
F6     F     0.86863   0.39010   0.70604   0.01267  Uiso   1.00
Si2    Si    0.97737   0.04526   0.75000   0.01267  Uiso   1.00
F7     F     0.75956   0.03846   0.77262   0.01267  Uiso   1.00
F8     F     0.03495   0.98000   0.79550   0.01267  Uiso   1.00
F9     F     0.96477   0.10990   0.79396   0.01267  Uiso   1.00
F10    F     0.20198   0.03846   0.72738   0.01267  Uiso   1.00
F11    F     0.98505   0.98000   0.70450   0.01267  Uiso   1.00
F12    F     0.92533   0.10990   0.70604   0.01267  Uiso   1.00
Si3    Si    0.22737   0.54526   0.25000   0.01267  Uiso   1.00
F13    F     0.03218   0.53846   0.22738   0.01267  Uiso   1.00
F14    F     0.33045   0.48000   0.20450   0.01267  Uiso   1.00
F15    F     0.25873   0.60990   0.20604   0.01267  Uiso   1.00
F16    F     0.42936   0.53846   0.27262   0.01267  Uiso   1.00
F17    F     0.18955   0.48000   0.29550   0.01267  Uiso   1.00
F18    F     0.13137   0.60990   0.29396   0.01267  Uiso   1.00
Si4    Si    0.02263   0.95474   0.25000   0.01267  Uiso   1.00
F19    F     0.24044   0.96154   0.22738   0.01267  Uiso   1.00
F20    F     0.96505   0.02000   0.20450   0.01267  Uiso   1.00
F21    F     0.03523   0.89010   0.20604   0.01267  Uiso   1.00
F22    F     0.79802   0.96154   0.27262   0.01267  Uiso   1.00
F23    F     0.01495   0.02000   0.29550   0.01267  Uiso   1.00
F24    F     0.07467   0.89010   0.29396   0.01267  Uiso   1.00
Si5    Si    0.30895   0.75000   0.88210   0.01267  Uiso   1.00
F25    F     0.37639   0.69370   0.92952   0.01267  Uiso   1.00
F26    F     0.41961   0.69186   0.83732   0.01267  Uiso   1.00
F27    F     0.12699   0.71604   0.88318   0.01267  Uiso   1.00
F28    F     0.19409   0.80630   0.92952   0.01267  Uiso   1.00
F29    F     0.24307   0.80814   0.83732   0.01267  Uiso   1.00
F30    F     0.48983   0.78396   0.88318   0.01267  Uiso   1.00
Si6    Si    0.94105   0.75000   0.61790   0.01267  Uiso   1.00
F31    F     0.92991   0.69370   0.57048   0.01267  Uiso   1.00
F32    F     0.88853   0.69186   0.66268   0.01267  Uiso   1.00
F33    F     0.15697   0.71604   0.61682   0.01267  Uiso   1.00
F34    F     0.99961   0.80630   0.57048   0.01267  Uiso   1.00
F35    F     0.94879   0.80814   0.66268   0.01267  Uiso   1.00
F36    F     0.72621   0.78396   0.61682   0.01267  Uiso   1.00
Si7    Si    0.69105   0.25000   0.11790   0.01267  Uiso   1.00
F37    F     0.62361   0.30630   0.07048   0.01267  Uiso   1.00
F38    F     0.58039   0.30814   0.16268   0.01267  Uiso   1.00
F39    F     0.87301   0.28396   0.11682   0.01267  Uiso   1.00
F40    F     0.80591   0.19370   0.07048   0.01267  Uiso   1.00
F41    F     0.75693   0.19186   0.16268   0.01267  Uiso   1.00
F42    F     0.51017   0.21604   0.11682   0.01267  Uiso   1.00
Si8    Si    0.05895   0.25000   0.38210   0.01267  Uiso   1.00
F43    F     0.07009   0.30630   0.42952   0.01267  Uiso   1.00
F44    F     0.11147   0.30814   0.33732   0.01267  Uiso   1.00
F45    F     0.84303   0.28396   0.38318   0.01267  Uiso   1.00
F46    F     0.00039   0.19370   0.42952   0.01267  Uiso   1.00
F47    F     0.05121   0.19186   0.33732   0.01267  Uiso   1.00
F48    F     0.27379   0.21604   0.38318   0.01267  Uiso   1.00
Ag1    Ag    0.76953   0.46609   0.06124   0.01267  Uiso   1.00
Ag2    Ag    0.22708   0.43070   0.05278   0.01267  Uiso   1.00
Ag3    Ag    0.66922   0.03392   0.06124   0.01267  Uiso   1.00
Ag4    Ag    0.22014   0.06930   0.05278   0.01267  Uiso   1.00
Ag5    Ag    0.76438   0.46609   0.43875   0.01267  Uiso   1.00
Ag6    Ag    0.34222   0.43070   0.44722   0.01267  Uiso   1.00
Ag7    Ag    0.29687   0.03391   0.43875   0.01267  Uiso   1.00
Ag8    Ag    0.71056   0.06930   0.44722   0.01267  Uiso   1.00
Ag9    Ag    0.23047   0.53391   0.93876   0.01267  Uiso   1.00
Ag10   Ag    0.77292   0.56930   0.94722   0.01267  Uiso   1.00
Ag11   Ag    0.33078   0.96608   0.93876   0.01267  Uiso   1.00
Ag12   Ag    0.77986   0.93070   0.94722   0.01267  Uiso   1.00
Ag13   Ag    0.23562   0.53391   0.56125   0.01267  Uiso   1.00
Ag14   Ag    0.65778   0.56930   0.55278   0.01267  Uiso   1.00
Ag15   Ag    0.70314   0.96608   0.56125   0.01267  Uiso   1.00
Ag16   Ag    0.28944   0.93070   0.55278   0.01267  Uiso   1.00
H1     H     0.93800   0.44300   0.86380   0.01267  Uiso   1.00
H2     H     0.03650   0.32320   0.85540   0.01267  Uiso   1.00
H3     H     0.91140   0.31160   0.01160   0.01267  Uiso   1.00
H4     H     0.15730   0.08760   0.86060   0.01267  Uiso   1.00
H5     H     0.04310   0.20660   0.85580   0.01267  Uiso   1.00
H6     H     0.08190   0.21460   0.00760   0.01267  Uiso   1.00
H7     H     0.25930   0.34820   0.16380   0.01267  Uiso   1.00
H8     H     0.09400   0.33920   0.24560   0.01267  Uiso   1.00
H9     H     0.67450   0.44520   0.18520   0.01267  Uiso   1.00
H10    H     0.69820   0.05700   0.86380   0.01267  Uiso   1.00
H11    H     0.60810   0.17680   0.85540   0.01267  Uiso   1.00
H12    H     0.57700   0.18840   0.01160   0.01267  Uiso   1.00
H13    H     0.48210   0.41240   0.86060   0.01267  Uiso   1.00
H14    H     0.60110   0.29340   0.85580   0.01267  Uiso   1.00
H15    H     0.41050   0.28540   0.00760   0.01267  Uiso   1.00
H16    H     0.07690   0.15180   0.16380   0.01267  Uiso   1.00
H17    H     0.16040   0.16080   0.24560   0.01267  Uiso   1.00
H18    H     0.64030   0.05480   0.18520   0.01267  Uiso   1.00
H19    H     0.61900   0.44300   0.63620   0.01267  Uiso   1.00
H20    H     0.64030   0.32320   0.64460   0.01267  Uiso   1.00
H21    H     0.77700   0.31160   0.48840   0.01267  Uiso   1.00
H22    H     0.75510   0.08760   0.63940   0.01267  Uiso   1.00
H23    H     0.75030   0.20660   0.64420   0.01267  Uiso   1.00
H24    H     0.70350   0.21460   0.49240   0.01267  Uiso   1.00
H25    H     0.39250   0.34820   0.33620   0.01267  Uiso   1.00
H26    H     0.56680   0.33920   0.25440   0.01267  Uiso   1.00
H27    H     0.88030   0.44520   0.31480   0.01267  Uiso   1.00
H28    H     0.24480   0.05700   0.63620   0.01267  Uiso   1.00
H29    H     0.21510   0.17680   0.64460   0.01267  Uiso   1.00
H30    H     0.23460   0.18840   0.48840   0.01267  Uiso   1.00
H31    H     0.10550   0.41240   0.63940   0.01267  Uiso   1.00
H32    H     0.10550   0.29340   0.64420   0.01267  Uiso   1.00
H33    H     0.30410   0.28540   0.49240   0.01267  Uiso   1.00
H34    H     0.77130   0.15180   0.33620   0.01267  Uiso   1.00
H35    H     0.67880   0.16080   0.25440   0.01267  Uiso   1.00
H36    H     0.30490   0.05480   0.31480   0.01267  Uiso   1.00
H37    H     0.06200   0.55700   0.13620   0.01267  Uiso   1.00
H38    H     0.96350   0.67680   0.14460   0.01267  Uiso   1.00
H39    H     0.08860   0.68840   0.98840   0.01267  Uiso   1.00
H40    H     0.84270   0.91240   0.13940   0.01267  Uiso   1.00
H41    H     0.95690   0.79340   0.14420   0.01267  Uiso   1.00
H42    H     0.91810   0.78540   0.99240   0.01267  Uiso   1.00
H43    H     0.74070   0.65180   0.83620   0.01267  Uiso   1.00
H44    H     0.90600   0.66080   0.75440   0.01267  Uiso   1.00
H45    H     0.32550   0.55480   0.81480   0.01267  Uiso   1.00
H46    H     0.30180   0.94300   0.13620   0.01267  Uiso   1.00
H47    H     0.39190   0.82320   0.14460   0.01267  Uiso   1.00
H48    H     0.42300   0.81160   0.98840   0.01267  Uiso   1.00
H49    H     0.51790   0.58760   0.13940   0.01267  Uiso   1.00
H50    H     0.39890   0.70660   0.14420   0.01267  Uiso   1.00
H51    H     0.58950   0.71460   0.99240   0.01267  Uiso   1.00
H52    H     0.92310   0.84820   0.83620   0.01267  Uiso   1.00
H53    H     0.83960   0.83920   0.75440   0.01267  Uiso   1.00
H54    H     0.35970   0.94520   0.81480   0.01267  Uiso   1.00
H55    H     0.38100   0.55700   0.36380   0.01267  Uiso   1.00
H56    H     0.35970   0.67680   0.35540   0.01267  Uiso   1.00
H57    H     0.22300   0.68840   0.51160   0.01267  Uiso   1.00
H58    H     0.24490   0.91240   0.36060   0.01267  Uiso   1.00
H59    H     0.24970   0.79340   0.35580   0.01267  Uiso   1.00
H60    H     0.29650   0.78540   0.50760   0.01267  Uiso   1.00
H61    H     0.60750   0.65180   0.66380   0.01267  Uiso   1.00
H62    H     0.43320   0.66080   0.74560   0.01267  Uiso   1.00
H63    H     0.11970   0.55480   0.68520   0.01267  Uiso   1.00
H64    H     0.75520   0.94300   0.36380   0.01267  Uiso   1.00
H65    H     0.78490   0.82320   0.35540   0.01267  Uiso   1.00
H66    H     0.76540   0.81160   0.51160   0.01267  Uiso   1.00
H67    H     0.89450   0.58760   0.36060   0.01267  Uiso   1.00
H68    H     0.89450   0.70660   0.35580   0.01267  Uiso   1.00
H69    H     0.69590   0.71460   0.50760   0.01267  Uiso   1.00
H70    H     0.22870   0.84820   0.66380   0.01267  Uiso   1.00
H71    H     0.32120   0.83920   0.74560   0.01267  Uiso   1.00
H72    H     0.69510   0.94520   0.68520   0.01267  Uiso   1.00
C1     C     0.93700   0.41540   0.89400   0.01267  Uiso   1.00
C2     C     0.99481   0.34332   0.88846   0.01267  Uiso   1.00
C3     C     0.98857   0.30280   0.93326   0.01267  Uiso   1.00
C4     C     0.92087   0.33800   0.98086   0.01267  Uiso   1.00
C5     C     0.14388   0.11492   0.89052   0.01267  Uiso   1.00
C6     C     0.07419   0.18640   0.88722   0.01267  Uiso   1.00
C7     C     0.05308   0.22584   0.93180   0.01267  Uiso   1.00
C8     C     0.09920   0.18958   0.97642   0.01267  Uiso   1.00
C9     C     0.13895   0.36882   0.16908   0.01267  Uiso   1.00
C10    C     0.04100   0.36248   0.21812   0.01267  Uiso   1.00
C11    C     0.86421   0.39172   0.22466   0.01267  Uiso   1.00
C12    C     0.79560   0.42586   0.18154   0.01267  Uiso   1.00
C13    C     0.66900   0.08460   0.89400   0.01267  Uiso   1.00
C14    C     0.61673   0.15668   0.88846   0.01267  Uiso   1.00
C15    C     0.57817   0.19720   0.93326   0.01267  Uiso   1.00
C16    C     0.59827   0.16200   0.98086   0.01267  Uiso   1.00
C17    C     0.46560   0.38508   0.89052   0.01267  Uiso   1.00
C18    C     0.53859   0.31360   0.88722   0.01267  Uiso   1.00
C19    C     0.51512   0.27416   0.93180   0.01267  Uiso   1.00
C20    C     0.42438   0.31042   0.97642   0.01267  Uiso   1.00
C21    C     0.19197   0.13118   0.16908   0.01267  Uiso   1.00
C22    C     0.24088   0.13752   0.21812   0.01267  Uiso   1.00
C23    C     0.41113   0.10828   0.22466   0.01267  Uiso   1.00
C24    C     0.52286   0.07414   0.18154   0.01267  Uiso   1.00
C25    C     0.64760   0.41540   0.60600   0.01267  Uiso   1.00
C26    C     0.66187   0.34332   0.61154   0.01267  Uiso   1.00
C27    C     0.70863   0.30280   0.56674   0.01267  Uiso   1.00
C28    C     0.74113   0.33800   0.51914   0.01267  Uiso   1.00
C29    C     0.74120   0.11492   0.60948   0.01267  Uiso   1.00
C30    C     0.73941   0.18640   0.61278   0.01267  Uiso   1.00
C31    C     0.72108   0.22584   0.56820   0.01267  Uiso   1.00
C32    C     0.71122   0.18958   0.52358   0.01267  Uiso   1.00
C33    C     0.49223   0.36882   0.33092   0.01267  Uiso   1.00
C34    C     0.59652   0.36248   0.28188   0.01267  Uiso   1.00
C35    C     0.74407   0.39172   0.27534   0.01267  Uiso   1.00
C36    C     0.77854   0.42586   0.31846   0.01267  Uiso   1.00
C37    C     0.24640   0.08460   0.60600   0.01267  Uiso   1.00
C38    C     0.22659   0.15668   0.61154   0.01267  Uiso   1.00
C39    C     0.22463   0.19720   0.56674   0.01267  Uiso   1.00
C40    C     0.23973   0.16200   0.51914   0.01267  Uiso   1.00
C41    C     0.14932   0.38508   0.60948   0.01267  Uiso   1.00
C42    C     0.14781   0.31360   0.61278   0.01267  Uiso   1.00
C43    C     0.21072   0.27416   0.56820   0.01267  Uiso   1.00
C44    C     0.26520   0.31042   0.52358   0.01267  Uiso   1.00
C45    C     0.67685   0.13118   0.33092   0.01267  Uiso   1.00
C46    C     0.62160   0.13752   0.28188   0.01267  Uiso   1.00
C47    C     0.48059   0.10828   0.27534   0.01267  Uiso   1.00
C48    C     0.40300   0.07414   0.31846   0.01267  Uiso   1.00
C49    C     0.06300   0.58460   0.10600   0.01267  Uiso   1.00
C50    C     0.00519   0.65668   0.11154   0.01267  Uiso   1.00
C51    C     0.01143   0.69720   0.06674   0.01267  Uiso   1.00
C52    C     0.07913   0.66200   0.01914   0.01267  Uiso   1.00
C53    C     0.85612   0.88508   0.10948   0.01267  Uiso   1.00
C54    C     0.92581   0.81360   0.11278   0.01267  Uiso   1.00
C55    C     0.94692   0.77416   0.06820   0.01267  Uiso   1.00
C56    C     0.90080   0.81042   0.02358   0.01267  Uiso   1.00
C57    C     0.86105   0.63118   0.83092   0.01267  Uiso   1.00
C58    C     0.95900   0.63752   0.78188   0.01267  Uiso   1.00
C59    C     0.13579   0.60828   0.77534   0.01267  Uiso   1.00
C60    C     0.20440   0.57414   0.81846   0.01267  Uiso   1.00
C61    C     0.33100   0.91540   0.10600   0.01267  Uiso   1.00
C62    C     0.38327   0.84332   0.11154   0.01267  Uiso   1.00
C63    C     0.42183   0.80280   0.06674   0.01267  Uiso   1.00
C64    C     0.40173   0.83800   0.01914   0.01267  Uiso   1.00
C65    C     0.53440   0.61492   0.10948   0.01267  Uiso   1.00
C66    C     0.46141   0.68640   0.11278   0.01267  Uiso   1.00
C67    C     0.48488   0.72584   0.06820   0.01267  Uiso   1.00
C68    C     0.57562   0.68958   0.02358   0.01267  Uiso   1.00
C69    C     0.80803   0.86882   0.83092   0.01267  Uiso   1.00
C70    C     0.75912   0.86248   0.78188   0.01267  Uiso   1.00
C71    C     0.58887   0.89172   0.77534   0.01267  Uiso   1.00
C72    C     0.47714   0.92586   0.81846   0.01267  Uiso   1.00
C73    C     0.35240   0.58460   0.39400   0.01267  Uiso   1.00
C74    C     0.33813   0.65668   0.38846   0.01267  Uiso   1.00
C75    C     0.29137   0.69720   0.43326   0.01267  Uiso   1.00
C76    C     0.25887   0.66200   0.48086   0.01267  Uiso   1.00
C77    C     0.25880   0.88508   0.39052   0.01267  Uiso   1.00
C78    C     0.26059   0.81360   0.38722   0.01267  Uiso   1.00
C79    C     0.27892   0.77416   0.43180   0.01267  Uiso   1.00
C80    C     0.28878   0.81042   0.47642   0.01267  Uiso   1.00
C81    C     0.50777   0.63118   0.66908   0.01267  Uiso   1.00
C82    C     0.40348   0.63752   0.71812   0.01267  Uiso   1.00
C83    C     0.25593   0.60828   0.72466   0.01267  Uiso   1.00
C84    C     0.22146   0.57414   0.68154   0.01267  Uiso   1.00
C85    C     0.75360   0.91540   0.39400   0.01267  Uiso   1.00
C86    C     0.77341   0.84332   0.38846   0.01267  Uiso   1.00
C87    C     0.77537   0.80280   0.43326   0.01267  Uiso   1.00
C88    C     0.76027   0.83800   0.48086   0.01267  Uiso   1.00
C89    C     0.85068   0.61492   0.39052   0.01267  Uiso   1.00
C90    C     0.85219   0.68640   0.38722   0.01267  Uiso   1.00
C91    C     0.78928   0.72584   0.43180   0.01267  Uiso   1.00
C92    C     0.73480   0.68958   0.47642   0.01267  Uiso   1.00
C93    C     0.32315   0.86882   0.66908   0.01267  Uiso   1.00
C94    C     0.37840   0.86248   0.71812   0.01267  Uiso   1.00
C95    C     0.51941   0.89172   0.72466   0.01267  Uiso   1.00
C96    C     0.59700   0.92586   0.68154   0.01267  Uiso   1.00
N1     N     0.86953   0.40700   0.98434   0.01267  Uiso   1.00
N2     N     0.87971   0.44710   0.94088   0.01267  Uiso   1.00
N3     N     0.16662   0.12134   0.97762   0.01267  Uiso   1.00
N4     N     0.19210   0.08370   0.93410   0.01267  Uiso   1.00
N5     N     0.06968   0.40294   0.12930   0.01267  Uiso   1.00
N6     N     0.89496   0.43202   0.13566   0.01267  Uiso   1.00
N7     N     0.64613   0.09300   0.98434   0.01267  Uiso   1.00
N8     N     0.67941   0.05290   0.94088   0.01267  Uiso   1.00
N9     N     0.35576   0.37866   0.97762   0.01267  Uiso   1.00
N10    N     0.37380   0.41630   0.93410   0.01267  Uiso   1.00
N11    N     0.30102   0.09706   0.12930   0.01267  Uiso   1.00
N12    N     0.46938   0.06798   0.13566   0.01267  Uiso   1.00
N13    N     0.72347   0.40700   0.51566   0.01267  Uiso   1.00
N14    N     0.67319   0.44710   0.55912   0.01267  Uiso   1.00
N15    N     0.71204   0.12134   0.52238   0.01267  Uiso   1.00
N16    N     0.72420   0.08370   0.56590   0.01267  Uiso   1.00
N17    N     0.52738   0.40294   0.37070   0.01267  Uiso   1.00
N18    N     0.67302   0.43202   0.36434   0.01267  Uiso   1.00
N19    N     0.26087   0.09300   0.51566   0.01267  Uiso   1.00
N20    N     0.26769   0.05290   0.55912   0.01267  Uiso   1.00
N21    N     0.26558   0.37866   0.52238   0.01267  Uiso   1.00
N22    N     0.20990   0.41630   0.56590   0.01267  Uiso   1.00
N23    N     0.60192   0.09706   0.37070   0.01267  Uiso   1.00
N24    N     0.46264   0.06798   0.36434   0.01267  Uiso   1.00
N25    N     0.13047   0.59300   0.01566   0.01267  Uiso   1.00
N26    N     0.12029   0.55290   0.05912   0.01267  Uiso   1.00
N27    N     0.83338   0.87866   0.02238   0.01267  Uiso   1.00
N28    N     0.80790   0.91630   0.06590   0.01267  Uiso   1.00
N29    N     0.93032   0.59706   0.87070   0.01267  Uiso   1.00
N30    N     0.10504   0.56798   0.86434   0.01267  Uiso   1.00
N31    N     0.35387   0.90700   0.01566   0.01267  Uiso   1.00
N32    N     0.32059   0.94710   0.05912   0.01267  Uiso   1.00
N33    N     0.64424   0.62134   0.02238   0.01267  Uiso   1.00
N34    N     0.62620   0.58370   0.06590   0.01267  Uiso   1.00
N35    N     0.69898   0.90294   0.87070   0.01267  Uiso   1.00
N36    N     0.53062   0.93202   0.86434   0.01267  Uiso   1.00
N37    N     0.27653   0.59300   0.48434   0.01267  Uiso   1.00
N38    N     0.32681   0.55290   0.44088   0.01267  Uiso   1.00
N39    N     0.28796   0.87866   0.47762   0.01267  Uiso   1.00
N40    N     0.27580   0.91630   0.43410   0.01267  Uiso   1.00
N41    N     0.47262   0.59706   0.62930   0.01267  Uiso   1.00
N42    N     0.32698   0.56798   0.63566   0.01267  Uiso   1.00
N43    N     0.73913   0.90700   0.48434   0.01267  Uiso   1.00
N44    N     0.73231   0.94710   0.44088   0.01267  Uiso   1.00
N45    N     0.73442   0.62134   0.47762   0.01267  Uiso   1.00
N46    N     0.79010   0.58370   0.43410   0.01267  Uiso   1.00
N47    N     0.39808   0.90294   0.62930   0.01267  Uiso   1.00
N48    N     0.53736   0.93202   0.63566   0.01267  Uiso   1.00
