data_image0
_cell_length_a       9.775
_cell_length_b       18.958
_cell_length_c       11.469
_cell_angle_alpha    90
_cell_angle_beta     111.354
_cell_angle_gamma    90

_symmetry_space_group_name_H-M    "P 1"
_symmetry_int_tables_number       1

loop_
  _symmetry_equiv_pos_as_xyz
  'x, y, z'

loop_
  _atom_site_label
  _atom_site_occupancy
  _atom_site_fract_x
  _atom_site_fract_y
  _atom_site_fract_z
  _atom_site_thermal_displace_type
  _atom_site_B_iso_or_equiv
  _atom_site_type_symbol
  Zn1      1.0000 0.36499  0.99443  0.54654  Biso   1.000  Zn
  O1       1.0000 0.36148  0.07760  0.65014  Biso   1.000  O
  O2       1.0000 0.13669  0.05859  0.65517  Biso   1.000  O
  O3       1.0000 0.16235  0.39950  0.89576  Biso   1.000  O
  O4       1.0000 0.40361  0.40315  0.92753  Biso   1.000  O
  O5       1.0000 0.40641  0.00979  0.38635  Biso   1.000  O
  O6       1.0000 0.15512  0.01280  0.41942  Biso   1.000  O
  N1       1.0000 0.16225  0.06785  0.07934  Biso   1.000  N
  C1       1.0000 0.24942  0.09492  0.67498  Biso   1.000  C
  C2       1.0000 0.25741  0.16627  0.73526  Biso   1.000  C
  C3       1.0000 0.39257  0.19526  0.80759  Biso   1.000  C
  H1       1.0000 0.48020  0.16940  0.82090  Biso   1.000  H
  C4       1.0000 0.40009  0.26172  0.86040  Biso   1.000  C
  H2       1.0000 0.49270  0.28110  0.90990  Biso   1.000  H
  C5       1.0000 0.27176  0.30006  0.84077  Biso   1.000  C
  C6       1.0000 0.13642  0.27034  0.77029  Biso   1.000  C
  H3       1.0000 0.04870  0.29590  0.75800  Biso   1.000  H
  C7       1.0000 0.12848  0.20365  0.71786  Biso   1.000  C
  H4       1.0000 0.03580  0.18360  0.67040  Biso   1.000  H
  C8       1.0000 0.28135  0.37369  0.89317  Biso   1.000  C
  C9       1.0000 0.28873  0.02960  0.28915  Biso   1.000  C
  C10      1.0000 0.15200  0.03157  0.30963  Biso   1.000  C
  C11      1.0000 0.02554  0.05347  0.21095  Biso   1.000  C
  H5       1.0000 0.93390  0.05550  0.22210  Biso   1.000  H
  C12      1.0000 0.03413  0.07199  0.09859  Biso   1.000  C
  H6       1.0000 0.94840  0.08800  0.03290  Biso   1.000  H
  C13      1.0000 0.28995  0.04528  0.17158  Biso   1.000  C
  C14      1.0000 0.16430  0.09194  0.95756  Biso   1.000  C
  H7       1.0000 0.06530  0.10680  0.90380  Biso   1.000  H
  H8       1.0000 0.19670  0.05320  0.91720  Biso   1.000  H
  H9       1.0000 0.23210  0.13180  0.97080  Biso   1.000  H
  C15      1.0000 0.42422  0.03724  0.13877  Biso   1.000  C
  H10      1.0000 0.39930  0.01050  0.06060  Biso   1.000  H
  H11      1.0000 0.50020  0.01190  0.20610  Biso   1.000  H
  H12      1.0000 0.46100  0.08400  0.12810  Biso   1.000  H
  Zn2      1.0000 0.13501  0.49443  0.95346  Biso   1.000  Zn
  O7       1.0000 0.13852  0.57760  0.84986  Biso   1.000  O
  O8       1.0000 0.36331  0.55859  0.84483  Biso   1.000  O
  O9       1.0000 0.33765  0.89950  0.60424  Biso   1.000  O
  O10      1.0000 0.09639  0.90315  0.57247  Biso   1.000  O
  O11      1.0000 0.09359  0.50979  0.11365  Biso   1.000  O
  O12      1.0000 0.34488  0.51280  0.08058  Biso   1.000  O
  N2       1.0000 0.33775  0.56785  0.42066  Biso   1.000  N
  C16      1.0000 0.25058  0.59492  0.82502  Biso   1.000  C
  C17      1.0000 0.24259  0.66627  0.76474  Biso   1.000  C
  C18      1.0000 0.10743  0.69526  0.69241  Biso   1.000  C
  H13      1.0000 0.01980  0.66940  0.67910  Biso   1.000  H
  C19      1.0000 0.09991  0.76172  0.63960  Biso   1.000  C
  H14      1.0000 0.00730  0.78110  0.59010  Biso   1.000  H
  C20      1.0000 0.22824  0.80006  0.65923  Biso   1.000  C
  C21      1.0000 0.36358  0.77034  0.72971  Biso   1.000  C
  H15      1.0000 0.45130  0.79590  0.74200  Biso   1.000  H
  C22      1.0000 0.37152  0.70365  0.78214  Biso   1.000  C
  H16      1.0000 0.46420  0.68360  0.82960  Biso   1.000  H
  C23      1.0000 0.21865  0.87369  0.60683  Biso   1.000  C
  C24      1.0000 0.21127  0.52960  0.21085  Biso   1.000  C
  C25      1.0000 0.34800  0.53157  0.19037  Biso   1.000  C
  C26      1.0000 0.47446  0.55347  0.28905  Biso   1.000  C
  H17      1.0000 0.56610  0.55550  0.27790  Biso   1.000  H
  C27      1.0000 0.46587  0.57199  0.40141  Biso   1.000  C
  H18      1.0000 0.55160  0.58800  0.46710  Biso   1.000  H
  C28      1.0000 0.21005  0.54528  0.32842  Biso   1.000  C
  C29      1.0000 0.33570  0.59194  0.54244  Biso   1.000  C
  H19      1.0000 0.43470  0.60680  0.59620  Biso   1.000  H
  H20      1.0000 0.30330  0.55320  0.58280  Biso   1.000  H
  H21      1.0000 0.26790  0.63180  0.52920  Biso   1.000  H
  C30      1.0000 0.07578  0.53724  0.36123  Biso   1.000  C
  H22      1.0000 0.10070  0.51050  0.43940  Biso   1.000  H
  H23      1.0000 0.99980  0.51190  0.29390  Biso   1.000  H
  H24      1.0000 0.03900  0.58400  0.37190  Biso   1.000  H
  Zn3      1.0000 0.63501  0.00557  0.45346  Biso   1.000  Zn
  O13      1.0000 0.63852  0.92240  0.34986  Biso   1.000  O
  O14      1.0000 0.86331  0.94141  0.34483  Biso   1.000  O
  O15      1.0000 0.83765  0.60050  0.10424  Biso   1.000  O
  O16      1.0000 0.59639  0.59685  0.07247  Biso   1.000  O
  O17      1.0000 0.59359  0.99021  0.61365  Biso   1.000  O
  O18      1.0000 0.84488  0.98720  0.58058  Biso   1.000  O
  N3       1.0000 0.83775  0.93215  0.92066  Biso   1.000  N
  C31      1.0000 0.75058  0.90508  0.32502  Biso   1.000  C
  C32      1.0000 0.74259  0.83373  0.26474  Biso   1.000  C
  C33      1.0000 0.60743  0.80474  0.19241  Biso   1.000  C
  H25      1.0000 0.51980  0.83060  0.17910  Biso   1.000  H
  C34      1.0000 0.59991  0.73828  0.13960  Biso   1.000  C
  H26      1.0000 0.50730  0.71890  0.09010  Biso   1.000  H
  C35      1.0000 0.72824  0.69994  0.15923  Biso   1.000  C
  C36      1.0000 0.86358  0.72966  0.22971  Biso   1.000  C
  H27      1.0000 0.95130  0.70410  0.24200  Biso   1.000  H
  C37      1.0000 0.87152  0.79635  0.28214  Biso   1.000  C
  H28      1.0000 0.96420  0.81640  0.32960  Biso   1.000  H
  C38      1.0000 0.71865  0.62631  0.10683  Biso   1.000  C
  C39      1.0000 0.71127  0.97040  0.71085  Biso   1.000  C
  C40      1.0000 0.84800  0.96843  0.69037  Biso   1.000  C
  C41      1.0000 0.97446  0.94653  0.78905  Biso   1.000  C
  H29      1.0000 0.06610  0.94450  0.77790  Biso   1.000  H
  C42      1.0000 0.96587  0.92801  0.90141  Biso   1.000  C
  H30      1.0000 0.05160  0.91200  0.96710  Biso   1.000  H
  C43      1.0000 0.71005  0.95472  0.82842  Biso   1.000  C
  C44      1.0000 0.83570  0.90806  0.04244  Biso   1.000  C
  H31      1.0000 0.93470  0.89320  0.09620  Biso   1.000  H
  H32      1.0000 0.80330  0.94680  0.08280  Biso   1.000  H
  H33      1.0000 0.76790  0.86820  0.02920  Biso   1.000  H
  C45      1.0000 0.57578  0.96276  0.86123  Biso   1.000  C
  H34      1.0000 0.60070  0.98950  0.93940  Biso   1.000  H
  H35      1.0000 0.49980  0.98810  0.79390  Biso   1.000  H
  H36      1.0000 0.53900  0.91600  0.87190  Biso   1.000  H
  Zn4      1.0000 0.86499  0.50557  0.04654  Biso   1.000  Zn
  O19      1.0000 0.86148  0.42240  0.15014  Biso   1.000  O
  O20      1.0000 0.63669  0.44141  0.15517  Biso   1.000  O
  O21      1.0000 0.66235  0.10050  0.39576  Biso   1.000  O
  O22      1.0000 0.90361  0.09685  0.42753  Biso   1.000  O
  O23      1.0000 0.90641  0.49021  0.88635  Biso   1.000  O
  O24      1.0000 0.65512  0.48720  0.91942  Biso   1.000  O
  N4       1.0000 0.66225  0.43215  0.57934  Biso   1.000  N
  C46      1.0000 0.74942  0.40508  0.17498  Biso   1.000  C
  C47      1.0000 0.75741  0.33373  0.23526  Biso   1.000  C
  C48      1.0000 0.89257  0.30474  0.30759  Biso   1.000  C
  H37      1.0000 0.98020  0.33060  0.32090  Biso   1.000  H
  C49      1.0000 0.90009  0.23828  0.36040  Biso   1.000  C
  H38      1.0000 0.99270  0.21890  0.40990  Biso   1.000  H
  C50      1.0000 0.77176  0.19994  0.34077  Biso   1.000  C
  C51      1.0000 0.63642  0.22966  0.27029  Biso   1.000  C
  H39      1.0000 0.54870  0.20410  0.25800  Biso   1.000  H
  C52      1.0000 0.62848  0.29635  0.21786  Biso   1.000  C
  H40      1.0000 0.53580  0.31640  0.17040  Biso   1.000  H
  C53      1.0000 0.78135  0.12631  0.39317  Biso   1.000  C
  C54      1.0000 0.78873  0.47040  0.78915  Biso   1.000  C
  C55      1.0000 0.65200  0.46843  0.80963  Biso   1.000  C
  C56      1.0000 0.52554  0.44653  0.71095  Biso   1.000  C
  H41      1.0000 0.43390  0.44450  0.72210  Biso   1.000  H
  C57      1.0000 0.53413  0.42801  0.59859  Biso   1.000  C
  H42      1.0000 0.44840  0.41200  0.53290  Biso   1.000  H
  C58      1.0000 0.78995  0.45472  0.67158  Biso   1.000  C
  C59      1.0000 0.66430  0.40806  0.45756  Biso   1.000  C
  H43      1.0000 0.56530  0.39320  0.40380  Biso   1.000  H
  H44      1.0000 0.69670  0.44680  0.41720  Biso   1.000  H
  H45      1.0000 0.73210  0.36820  0.47080  Biso   1.000  H
  C60      1.0000 0.92422  0.46276  0.63877  Biso   1.000  C
  H46      1.0000 0.89930  0.48950  0.56060  Biso   1.000  H
  H47      1.0000 0.00020  0.48810  0.70610  Biso   1.000  H
  H48      1.0000 0.96100  0.41600  0.62810  Biso   1.000  H
  Zn5      1.0000 0.00000  0.00000  0.50000  Biso   1.000  Zn
  Zn6      1.0000 0.50000  0.50000  0.00000  Biso   1.000  Zn
