data_image0
_cell_length_a       17.2576
_cell_length_b       17.2576
_cell_length_c       20.8493
_cell_angle_alpha    90
_cell_angle_beta     90
_cell_angle_gamma    120

_symmetry_space_group_name_H-M    "P 1"
_symmetry_int_tables_number       1

loop_
  _symmetry_equiv_pos_as_xyz
  'x, y, z'

loop_
  _atom_site_label
  _atom_site_occupancy
  _atom_site_fract_x
  _atom_site_fract_y
  _atom_site_fract_z
  _atom_site_thermal_displace_type
  _atom_site_B_iso_or_equiv
  _atom_site_type_symbol
  N1       1.0000 0.80200  0.24070  0.03290  Biso   1.000  N
  N2       1.0000 0.74240  0.16920  0.06580  Biso   1.000  N
  N3       1.0000 0.68890  0.18270  0.10262  Biso   1.000  N
  N4       1.0000 0.71370  0.26840  0.09369  Biso   1.000  N
  C1       1.0000 0.78080  0.30180  0.05080  Biso   1.000  C
  H1       1.0000 0.80940  0.36150  0.03510  Biso   1.000  H
  N5       1.0000 0.95560  0.18350  0.21250  Biso   1.000  N
  N6       1.0000 0.88030  0.10470  0.20850  Biso   1.000  N
  N7       1.0000 0.88380  0.03830  0.23730  Biso   1.000  N
  N8       1.0000 0.96530  0.07490  0.26181  Biso   1.000  N
  C2       1.0000 0.00750  0.16250  0.24620  Biso   1.000  C
  H2       1.0000 0.06740  0.20420  0.25810  Biso   1.000  H
  N9       1.0000 0.55750  0.79620  0.60060  Biso   1.000  N
  N10      1.0000 0.57170  0.74000  0.56570  Biso   1.000  N
  N11      1.0000 0.50520  0.68870  0.52710  Biso   1.000  N
  N12      1.0000 0.44370  0.71220  0.53772  Biso   1.000  N
  C3       1.0000 0.47690  0.77710  0.58230  Biso   1.000  C
  H3       1.0000 0.44600  0.80560  0.59860  Biso   1.000  H
  N13      1.0000 0.78390  0.97600  0.42480  Biso   1.000  N
  N14      1.0000 0.77430  0.89540  0.42560  Biso   1.000  N
  N15      1.0000 0.83620  0.88710  0.39440  Biso   1.000  N
  N16      1.0000 0.89060  0.96770  0.37240  Biso   1.000  N
  C4       1.0000 0.85820  0.02110  0.39090  Biso   1.000  C
  H4       1.0000 0.88530  0.08290  0.38100  Biso   1.000  H
  C5       1.0000 0.73750  0.08180  0.06210  Biso   1.000  C
  H5       1.0000 0.74120  0.06690  0.01670  Biso   1.000  H
  H6       1.0000 0.67980  0.03480  0.07990  Biso   1.000  H
  C6       1.0000 0.81540  0.08590  0.10050  Biso   1.000  C
  H7       1.0000 0.81970  0.03190  0.09130  Biso   1.000  H
  H8       1.0000 0.87220  0.13890  0.08690  Biso   1.000  H
  C7       1.0000 0.80280  0.09140  0.17200  Biso   1.000  C
  H9       1.0000 0.79190  0.14160  0.18050  Biso   1.000  H
  H10      1.0000 0.74940  0.03550  0.18630  Biso   1.000  H
  C8       1.0000 0.65690  0.73970  0.56620  Biso   1.000  C
  H11      1.0000 0.64790  0.68360  0.54650  Biso   1.000  H
  H12      1.0000 0.67650  0.74150  0.61110  Biso   1.000  H
  C9       1.0000 0.72900  0.81870  0.53000  Biso   1.000  C
  H13      1.0000 0.78500  0.81610  0.53100  Biso   1.000  H
  H14      1.0000 0.74070  0.87470  0.55140  Biso   1.000  H
  C10      1.0000 0.70230  0.82010  0.46050  Biso   1.000  C
  H15      1.0000 0.68870  0.76330  0.43930  Biso   1.000  H
  H16      1.0000 0.64760  0.82510  0.45930  Biso   1.000  H
  N17      1.0000 0.46867  0.57403  0.36623  Biso   1.000  N
  N18      1.0000 0.40907  0.50253  0.39913  Biso   1.000  N
  N19      1.0000 0.35557  0.51603  0.43595  Biso   1.000  N
  N20      1.0000 0.38037  0.60173  0.42702  Biso   1.000  N
  C11      1.0000 0.44747  0.63513  0.38413  Biso   1.000  C
  H17      1.0000 0.47607  0.69483  0.36843  Biso   1.000  H
  N21      1.0000 0.62227  0.51683  0.54583  Biso   1.000  N
  N22      1.0000 0.54697  0.43803  0.54183  Biso   1.000  N
  N23      1.0000 0.55047  0.37163  0.57063  Biso   1.000  N
  N24      1.0000 0.63197  0.40823  0.59514  Biso   1.000  N
  C12      1.0000 0.67417  0.49583  0.57953  Biso   1.000  C
  H18      1.0000 0.73407  0.53753  0.59143  Biso   1.000  H
  N25      1.0000 0.22417  0.12953  0.93393  Biso   1.000  N
  N26      1.0000 0.23837  0.07333  0.89903  Biso   1.000  N
  N27      1.0000 0.17187  0.02203  0.86043  Biso   1.000  N
  N28      1.0000 0.11037  0.04553  0.87105  Biso   1.000  N
  C13      1.0000 0.14357  0.11043  0.91563  Biso   1.000  C
  H19      1.0000 0.11267  0.13893  0.93193  Biso   1.000  H
  N29      1.0000 0.45057  0.30933  0.75813  Biso   1.000  N
  N30      1.0000 0.44097  0.22873  0.75893  Biso   1.000  N
  N31      1.0000 0.50287  0.22043  0.72773  Biso   1.000  N
  N32      1.0000 0.55727  0.30103  0.70573  Biso   1.000  N
  C14      1.0000 0.52487  0.35443  0.72423  Biso   1.000  C
  H20      1.0000 0.55197  0.41623  0.71433  Biso   1.000  H
  C15      1.0000 0.40417  0.41513  0.39543  Biso   1.000  C
  H21      1.0000 0.40787  0.40023  0.35003  Biso   1.000  H
  H22      1.0000 0.34647  0.36813  0.41323  Biso   1.000  H
  C16      1.0000 0.48207  0.41923  0.43383  Biso   1.000  C
  H23      1.0000 0.48637  0.36523  0.42463  Biso   1.000  H
  H24      1.0000 0.53887  0.47223  0.42023  Biso   1.000  H
  C17      1.0000 0.46947  0.42473  0.50533  Biso   1.000  C
  H25      1.0000 0.45857  0.47493  0.51383  Biso   1.000  H
  H26      1.0000 0.41607  0.36883  0.51963  Biso   1.000  H
  C18      1.0000 0.32357  0.07303  0.89953  Biso   1.000  C
  H27      1.0000 0.31457  0.01693  0.87983  Biso   1.000  H
  H28      1.0000 0.34317  0.07483  0.94443  Biso   1.000  H
  C19      1.0000 0.39567  0.15203  0.86333  Biso   1.000  C
  H29      1.0000 0.45167  0.14943  0.86433  Biso   1.000  H
  H30      1.0000 0.40737  0.20803  0.88473  Biso   1.000  H
  C20      1.0000 0.36897  0.15343  0.79383  Biso   1.000  C
  H31      1.0000 0.35537  0.09663  0.77263  Biso   1.000  H
  H32      1.0000 0.31427  0.15843  0.79263  Biso   1.000  H
  N33      1.0000 0.13533  0.90737  0.69957  Biso   1.000  N
  N34      1.0000 0.07573  0.83587  0.73247  Biso   1.000  N
  N35      1.0000 0.02223  0.84937  0.76929  Biso   1.000  N
  N36      1.0000 0.04703  0.93507  0.76036  Biso   1.000  N
  C21      1.0000 0.11413  0.96847  0.71747  Biso   1.000  C
  H33      1.0000 0.14273  0.02817  0.70177  Biso   1.000  H
  N37      1.0000 0.28893  0.85017  0.87917  Biso   1.000  N
  N38      1.0000 0.21363  0.77137  0.87517  Biso   1.000  N
  N39      1.0000 0.21713  0.70497  0.90397  Biso   1.000  N
  N40      1.0000 0.29863  0.74157  0.92848  Biso   1.000  N
  C22      1.0000 0.34083  0.82917  0.91287  Biso   1.000  C
  H34      1.0000 0.40073  0.87087  0.92477  Biso   1.000  H
  N41      1.0000 0.89083  0.46287  0.26727  Biso   1.000  N
  N42      1.0000 0.90503  0.40667  0.23237  Biso   1.000  N
  N43      1.0000 0.83853  0.35537  0.19377  Biso   1.000  N
  N44      1.0000 0.77703  0.37887  0.20439  Biso   1.000  N
  C23      1.0000 0.81023  0.44377  0.24897  Biso   1.000  C
  H35      1.0000 0.77933  0.47227  0.26527  Biso   1.000  H
  N45      1.0000 0.11723  0.64267  0.09147  Biso   1.000  N
  N46      1.0000 0.10763  0.56207  0.09227  Biso   1.000  N
  N47      1.0000 0.16953  0.55377  0.06107  Biso   1.000  N
  N48      1.0000 0.22393  0.63437  0.03907  Biso   1.000  N
  C24      1.0000 0.19153  0.68777  0.05757  Biso   1.000  C
  H36      1.0000 0.21863  0.74957  0.04767  Biso   1.000  H
  C25      1.0000 0.07083  0.74847  0.72877  Biso   1.000  C
  H37      1.0000 0.07453  0.73357  0.68337  Biso   1.000  H
  H38      1.0000 0.01313  0.70147  0.74657  Biso   1.000  H
  C26      1.0000 0.14873  0.75257  0.76717  Biso   1.000  C
  H39      1.0000 0.15303  0.69857  0.75797  Biso   1.000  H
  H40      1.0000 0.20553  0.80557  0.75357  Biso   1.000  H
  C27      1.0000 0.13613  0.75807  0.83867  Biso   1.000  C
  H41      1.0000 0.12523  0.80827  0.84717  Biso   1.000  H
  H42      1.0000 0.08273  0.70217  0.85297  Biso   1.000  H
  C28      1.0000 0.99023  0.40637  0.23287  Biso   1.000  C
  H43      1.0000 0.98123  0.35027  0.21317  Biso   1.000  H
  H44      1.0000 0.00983  0.40817  0.27777  Biso   1.000  H
  C29      1.0000 0.06233  0.48537  0.19667  Biso   1.000  C
  H45      1.0000 0.11833  0.48277  0.19767  Biso   1.000  H
  H46      1.0000 0.07403  0.54137  0.21807  Biso   1.000  H
  C30      1.0000 0.03563  0.48677  0.12717  Biso   1.000  C
  H47      1.0000 0.02203  0.42997  0.10597  Biso   1.000  H
  H48      1.0000 0.98093  0.49177  0.12597  Biso   1.000  H
  N49      1.0000 0.75930  0.56130  0.03290  Biso   1.000  N
  N50      1.0000 0.83080  0.57320  0.06580  Biso   1.000  N
  N51      1.0000 0.81730  0.50620  0.10262  Biso   1.000  N
  N52      1.0000 0.73160  0.44530  0.09369  Biso   1.000  N
  C31      1.0000 0.69820  0.47900  0.05080  Biso   1.000  C
  H49      1.0000 0.63850  0.44790  0.03510  Biso   1.000  H
  N53      1.0000 0.81650  0.77210  0.21250  Biso   1.000  N
  N54      1.0000 0.89530  0.77560  0.20850  Biso   1.000  N
  N55      1.0000 0.96170  0.84550  0.23730  Biso   1.000  N
  N56      1.0000 0.92510  0.89040  0.26181  Biso   1.000  N
  C32      1.0000 0.83750  0.84500  0.24620  Biso   1.000  C
  H50      1.0000 0.79580  0.86320  0.25810  Biso   1.000  H
  N57      1.0000 0.20380  0.76130  0.60060  Biso   1.000  N
  N58      1.0000 0.26000  0.83170  0.56570  Biso   1.000  N
  N59      1.0000 0.31130  0.81650  0.52710  Biso   1.000  N
  N60      1.0000 0.28780  0.73150  0.53772  Biso   1.000  N
  C33      1.0000 0.22290  0.69980  0.58230  Biso   1.000  C
  H51      1.0000 0.19440  0.64040  0.59860  Biso   1.000  H
  N61      1.0000 0.02400  0.80790  0.42480  Biso   1.000  N
  N62      1.0000 0.10460  0.87890  0.42560  Biso   1.000  N
  N63      1.0000 0.11290  0.94910  0.39440  Biso   1.000  N
  N64      1.0000 0.03230  0.92290  0.37240  Biso   1.000  N
  C34      1.0000 0.97890  0.83710  0.39090  Biso   1.000  C
  H52      1.0000 0.91710  0.80240  0.38100  Biso   1.000  H
  C35      1.0000 0.91820  0.65570  0.06210  Biso   1.000  C
  H53      1.0000 0.93310  0.67430  0.01670  Biso   1.000  H
  H54      1.0000 0.96520  0.64500  0.07990  Biso   1.000  H
  C36      1.0000 0.91410  0.72950  0.10050  Biso   1.000  C
  H55      1.0000 0.96810  0.78780  0.09130  Biso   1.000  H
  H56      1.0000 0.86110  0.73330  0.08690  Biso   1.000  H
  C37      1.0000 0.90860  0.71140  0.17200  Biso   1.000  C
  H57      1.0000 0.85840  0.65030  0.18050  Biso   1.000  H
  H58      1.0000 0.96450  0.71390  0.18630  Biso   1.000  H
  C38      1.0000 0.26030  0.91720  0.56620  Biso   1.000  C
  H59      1.0000 0.31640  0.96430  0.54650  Biso   1.000  H
  H60      1.0000 0.25850  0.93500  0.61110  Biso   1.000  H
  C39      1.0000 0.18130  0.91030  0.53000  Biso   1.000  C
  H61      1.0000 0.18390  0.96890  0.53100  Biso   1.000  H
  H62      1.0000 0.12530  0.86600  0.55140  Biso   1.000  H
  C40      1.0000 0.17990  0.88220  0.46050  Biso   1.000  C
  H63      1.0000 0.23670  0.92540  0.43930  Biso   1.000  H
  H64      1.0000 0.17490  0.82250  0.45930  Biso   1.000  H
  N65      1.0000 0.42597  0.89463  0.36623  Biso   1.000  N
  N66      1.0000 0.49747  0.90653  0.39913  Biso   1.000  N
  N67      1.0000 0.48397  0.83953  0.43595  Biso   1.000  N
  N68      1.0000 0.39827  0.77863  0.42702  Biso   1.000  N
  C41      1.0000 0.36487  0.81233  0.38413  Biso   1.000  C
  H65      1.0000 0.30517  0.78123  0.36843  Biso   1.000  H
  N69      1.0000 0.48317  0.10543  0.54583  Biso   1.000  N
  N70      1.0000 0.56197  0.10893  0.54183  Biso   1.000  N
  N71      1.0000 0.62837  0.17883  0.57063  Biso   1.000  N
  N72      1.0000 0.59177  0.22373  0.59514  Biso   1.000  N
  C42      1.0000 0.50417  0.17833  0.57953  Biso   1.000  C
  H66      1.0000 0.46247  0.19653  0.59143  Biso   1.000  H
  N73      1.0000 0.87047  0.09463  0.93393  Biso   1.000  N
  N74      1.0000 0.92667  0.16503  0.89903  Biso   1.000  N
  N75      1.0000 0.97797  0.14983  0.86043  Biso   1.000  N
  N76      1.0000 0.95447  0.06483  0.87105  Biso   1.000  N
  C43      1.0000 0.88957  0.03313  0.91563  Biso   1.000  C
  H67      1.0000 0.86107  0.97373  0.93193  Biso   1.000  H
  N77      1.0000 0.69067  0.14123  0.75813  Biso   1.000  N
  N78      1.0000 0.77127  0.21223  0.75893  Biso   1.000  N
  N79      1.0000 0.77957  0.28243  0.72773  Biso   1.000  N
  N80      1.0000 0.69897  0.25623  0.70573  Biso   1.000  N
  C44      1.0000 0.64557  0.17043  0.72423  Biso   1.000  C
  H68      1.0000 0.58377  0.13573  0.71433  Biso   1.000  H
  C45      1.0000 0.58487  0.98903  0.39543  Biso   1.000  C
  H69      1.0000 0.59977  0.00763  0.35003  Biso   1.000  H
  H70      1.0000 0.63187  0.97833  0.41323  Biso   1.000  H
  C46      1.0000 0.58077  0.06283  0.43383  Biso   1.000  C
  H71      1.0000 0.63477  0.12113  0.42463  Biso   1.000  H
  H72      1.0000 0.52777  0.06663  0.42023  Biso   1.000  H
  C47      1.0000 0.57527  0.04473  0.50533  Biso   1.000  C
  H73      1.0000 0.52507  0.98363  0.51383  Biso   1.000  H
  H74      1.0000 0.63117  0.04723  0.51963  Biso   1.000  H
  C48      1.0000 0.92697  0.25053  0.89953  Biso   1.000  C
  H75      1.0000 0.98307  0.29763  0.87983  Biso   1.000  H
  H76      1.0000 0.92517  0.26833  0.94443  Biso   1.000  H
  C49      1.0000 0.84797  0.24363  0.86333  Biso   1.000  C
  H77      1.0000 0.85057  0.30223  0.86433  Biso   1.000  H
  H78      1.0000 0.79197  0.19933  0.88473  Biso   1.000  H
  C50      1.0000 0.84657  0.21553  0.79383  Biso   1.000  C
  H79      1.0000 0.90337  0.25873  0.77263  Biso   1.000  H
  H80      1.0000 0.84157  0.15583  0.79263  Biso   1.000  H
  N81      1.0000 0.09263  0.22797  0.69957  Biso   1.000  N
  N82      1.0000 0.16413  0.23987  0.73247  Biso   1.000  N
  N83      1.0000 0.15063  0.17287  0.76929  Biso   1.000  N
  N84      1.0000 0.06493  0.11197  0.76036  Biso   1.000  N
  C51      1.0000 0.03153  0.14567  0.71747  Biso   1.000  C
  H81      1.0000 0.97183  0.11457  0.70177  Biso   1.000  H
  N85      1.0000 0.14983  0.43877  0.87917  Biso   1.000  N
  N86      1.0000 0.22863  0.44227  0.87517  Biso   1.000  N
  N87      1.0000 0.29503  0.51217  0.90397  Biso   1.000  N
  N88      1.0000 0.25843  0.55707  0.92848  Biso   1.000  N
  C52      1.0000 0.17083  0.51167  0.91287  Biso   1.000  C
  H82      1.0000 0.12913  0.52987  0.92477  Biso   1.000  H
  N89      1.0000 0.53713  0.42797  0.26727  Biso   1.000  N
  N90      1.0000 0.59333  0.49837  0.23237  Biso   1.000  N
  N91      1.0000 0.64463  0.48317  0.19377  Biso   1.000  N
  N92      1.0000 0.62113  0.39817  0.20439  Biso   1.000  N
  C53      1.0000 0.55623  0.36647  0.24897  Biso   1.000  C
  H83      1.0000 0.52773  0.30707  0.26527  Biso   1.000  H
  N93      1.0000 0.35733  0.47457  0.09147  Biso   1.000  N
  N94      1.0000 0.43793  0.54557  0.09227  Biso   1.000  N
  N95      1.0000 0.44623  0.61577  0.06107  Biso   1.000  N
  N96      1.0000 0.36563  0.58957  0.03907  Biso   1.000  N
  C54      1.0000 0.31223  0.50377  0.05757  Biso   1.000  C
  H84      1.0000 0.25043  0.46907  0.04767  Biso   1.000  H
  C55      1.0000 0.25153  0.32237  0.72877  Biso   1.000  C
  H85      1.0000 0.26643  0.34097  0.68337  Biso   1.000  H
  H86      1.0000 0.29853  0.31167  0.74657  Biso   1.000  H
  C56      1.0000 0.24743  0.39617  0.76717  Biso   1.000  C
  H87      1.0000 0.30143  0.45447  0.75797  Biso   1.000  H
  H88      1.0000 0.19443  0.39997  0.75357  Biso   1.000  H
  C57      1.0000 0.24193  0.37807  0.83867  Biso   1.000  C
  H89      1.0000 0.19173  0.31697  0.84717  Biso   1.000  H
  H90      1.0000 0.29783  0.38057  0.85297  Biso   1.000  H
  C58      1.0000 0.59363  0.58387  0.23287  Biso   1.000  C
  H91      1.0000 0.64973  0.63097  0.21317  Biso   1.000  H
  H92      1.0000 0.59183  0.60167  0.27777  Biso   1.000  H
  C59      1.0000 0.51463  0.57697  0.19667  Biso   1.000  C
  H93      1.0000 0.51723  0.63557  0.19767  Biso   1.000  H
  H94      1.0000 0.45863  0.53267  0.21807  Biso   1.000  H
  C60      1.0000 0.51323  0.54887  0.12717  Biso   1.000  C
  H95      1.0000 0.57003  0.59207  0.10597  Biso   1.000  H
  H96      1.0000 0.50823  0.48917  0.12597  Biso   1.000  H
  N97      1.0000 0.43870  0.19800  0.03290  Biso   1.000  N
  N98      1.0000 0.42680  0.25760  0.06580  Biso   1.000  N
  N99      1.0000 0.49380  0.31110  0.10262  Biso   1.000  N
  N100     1.0000 0.55470  0.28630  0.09369  Biso   1.000  N
  C61      1.0000 0.52100  0.21920  0.05080  Biso   1.000  C
  H97      1.0000 0.55210  0.19060  0.03510  Biso   1.000  H
  N101     1.0000 0.22790  0.04440  0.21250  Biso   1.000  N
  N102     1.0000 0.22440  0.11970  0.20850  Biso   1.000  N
  N103     1.0000 0.15450  0.11620  0.23730  Biso   1.000  N
  N104     1.0000 0.10960  0.03470  0.26181  Biso   1.000  N
  C62      1.0000 0.15500  0.99250  0.24620  Biso   1.000  C
  H98      1.0000 0.13680  0.93260  0.25810  Biso   1.000  H
  N105     1.0000 0.23870  0.44250  0.60060  Biso   1.000  N
  N106     1.0000 0.16830  0.42830  0.56570  Biso   1.000  N
  N107     1.0000 0.18350  0.49480  0.52710  Biso   1.000  N
  N108     1.0000 0.26850  0.55630  0.53772  Biso   1.000  N
  C63      1.0000 0.30020  0.52310  0.58230  Biso   1.000  C
  H99      1.0000 0.35960  0.55400  0.59860  Biso   1.000  H
  N109     1.0000 0.19210  0.21610  0.42480  Biso   1.000  N
  N110     1.0000 0.12110  0.22570  0.42560  Biso   1.000  N
  N111     1.0000 0.05090  0.16380  0.39440  Biso   1.000  N
  N112     1.0000 0.07710  0.10940  0.37240  Biso   1.000  N
  C64      1.0000 0.16290  0.14180  0.39090  Biso   1.000  C
  H100     1.0000 0.19760  0.11470  0.38100  Biso   1.000  H
  C65      1.0000 0.34430  0.26250  0.06210  Biso   1.000  C
  H101     1.0000 0.32570  0.25880  0.01670  Biso   1.000  H
  H102     1.0000 0.35500  0.32020  0.07990  Biso   1.000  H
  C66      1.0000 0.27050  0.18460  0.10050  Biso   1.000  C
  H103     1.0000 0.21220  0.18030  0.09130  Biso   1.000  H
  H104     1.0000 0.26670  0.12780  0.08690  Biso   1.000  H
  C67      1.0000 0.28860  0.19720  0.17200  Biso   1.000  C
  H105     1.0000 0.34970  0.20810  0.18050  Biso   1.000  H
  H106     1.0000 0.28610  0.25060  0.18630  Biso   1.000  H
  C68      1.0000 0.08280  0.34310  0.56620  Biso   1.000  C
  H107     1.0000 0.03570  0.35210  0.54650  Biso   1.000  H
  H108     1.0000 0.06500  0.32350  0.61110  Biso   1.000  H
  C69      1.0000 0.08970  0.27100  0.53000  Biso   1.000  C
  H109     1.0000 0.03110  0.21500  0.53100  Biso   1.000  H
  H110     1.0000 0.13400  0.25930  0.55140  Biso   1.000  H
  C70      1.0000 0.11780  0.29770  0.46050  Biso   1.000  C
  H111     1.0000 0.07460  0.31130  0.43930  Biso   1.000  H
  H112     1.0000 0.17750  0.35240  0.45930  Biso   1.000  H
  N113     1.0000 0.10537  0.53133  0.36623  Biso   1.000  N
  N114     1.0000 0.09347  0.59093  0.39913  Biso   1.000  N
  N115     1.0000 0.16047  0.64443  0.43595  Biso   1.000  N
  N116     1.0000 0.22137  0.61963  0.42702  Biso   1.000  N
  C71      1.0000 0.18767  0.55253  0.38413  Biso   1.000  C
  H113     1.0000 0.21877  0.52393  0.36843  Biso   1.000  H
  N117     1.0000 0.89457  0.37773  0.54583  Biso   1.000  N
  N118     1.0000 0.89107  0.45303  0.54183  Biso   1.000  N
  N119     1.0000 0.82117  0.44953  0.57063  Biso   1.000  N
  N120     1.0000 0.77627  0.36803  0.59514  Biso   1.000  N
  C72      1.0000 0.82167  0.32583  0.57953  Biso   1.000  C
  H114     1.0000 0.80347  0.26593  0.59143  Biso   1.000  H
  N121     1.0000 0.90537  0.77583  0.93393  Biso   1.000  N
  N122     1.0000 0.83497  0.76163  0.89903  Biso   1.000  N
  N123     1.0000 0.85017  0.82813  0.86043  Biso   1.000  N
  N124     1.0000 0.93517  0.88963  0.87105  Biso   1.000  N
  C73      1.0000 0.96687  0.85643  0.91563  Biso   1.000  C
  H115     1.0000 0.02627  0.88733  0.93193  Biso   1.000  H
  N125     1.0000 0.85877  0.54943  0.75813  Biso   1.000  N
  N126     1.0000 0.78777  0.55903  0.75893  Biso   1.000  N
  N127     1.0000 0.71757  0.49713  0.72773  Biso   1.000  N
  N128     1.0000 0.74377  0.44273  0.70573  Biso   1.000  N
  C74      1.0000 0.82957  0.47513  0.72423  Biso   1.000  C
  H116     1.0000 0.86427  0.44803  0.71433  Biso   1.000  H
  C75      1.0000 0.01097  0.59583  0.39543  Biso   1.000  C
  H117     1.0000 0.99237  0.59213  0.35003  Biso   1.000  H
  H118     1.0000 0.02167  0.65353  0.41323  Biso   1.000  H
  C76      1.0000 0.93717  0.51793  0.43383  Biso   1.000  C
  H119     1.0000 0.87887  0.51363  0.42463  Biso   1.000  H
  H120     1.0000 0.93337  0.46113  0.42023  Biso   1.000  H
  C77      1.0000 0.95527  0.53053  0.50533  Biso   1.000  C
  H121     1.0000 0.01637  0.54143  0.51383  Biso   1.000  H
  H122     1.0000 0.95277  0.58393  0.51963  Biso   1.000  H
  C78      1.0000 0.74947  0.67643  0.89953  Biso   1.000  C
  H123     1.0000 0.70237  0.68543  0.87983  Biso   1.000  H
  H124     1.0000 0.73167  0.65683  0.94443  Biso   1.000  H
  C79      1.0000 0.75637  0.60433  0.86333  Biso   1.000  C
  H125     1.0000 0.69777  0.54833  0.86433  Biso   1.000  H
  H126     1.0000 0.80067  0.59263  0.88473  Biso   1.000  H
  C80      1.0000 0.78447  0.63103  0.79383  Biso   1.000  C
  H127     1.0000 0.74127  0.64463  0.77263  Biso   1.000  H
  H128     1.0000 0.84417  0.68573  0.79263  Biso   1.000  H
  N129     1.0000 0.77203  0.86467  0.69957  Biso   1.000  N
  N130     1.0000 0.76013  0.92427  0.73247  Biso   1.000  N
  N131     1.0000 0.82713  0.97777  0.76929  Biso   1.000  N
  N132     1.0000 0.88803  0.95297  0.76036  Biso   1.000  N
  C81      1.0000 0.85433  0.88587  0.71747  Biso   1.000  C
  H129     1.0000 0.88543  0.85727  0.70177  Biso   1.000  H
  N133     1.0000 0.56123  0.71107  0.87917  Biso   1.000  N
  N134     1.0000 0.55773  0.78637  0.87517  Biso   1.000  N
  N135     1.0000 0.48783  0.78287  0.90397  Biso   1.000  N
  N136     1.0000 0.44293  0.70137  0.92848  Biso   1.000  N
  C82      1.0000 0.48833  0.65917  0.91287  Biso   1.000  C
  H130     1.0000 0.47013  0.59927  0.92477  Biso   1.000  H
  N137     1.0000 0.57203  0.10917  0.26727  Biso   1.000  N
  N138     1.0000 0.50163  0.09497  0.23237  Biso   1.000  N
  N139     1.0000 0.51683  0.16147  0.19377  Biso   1.000  N
  N140     1.0000 0.60183  0.22297  0.20439  Biso   1.000  N
  C83      1.0000 0.63353  0.18977  0.24897  Biso   1.000  C
  H131     1.0000 0.69293  0.22067  0.26527  Biso   1.000  H
  N141     1.0000 0.52543  0.88277  0.09147  Biso   1.000  N
  N142     1.0000 0.45443  0.89237  0.09227  Biso   1.000  N
  N143     1.0000 0.38423  0.83047  0.06107  Biso   1.000  N
  N144     1.0000 0.41043  0.77607  0.03907  Biso   1.000  N
  C84      1.0000 0.49623  0.80847  0.05757  Biso   1.000  C
  H132     1.0000 0.53093  0.78137  0.04767  Biso   1.000  H
  C85      1.0000 0.67763  0.92917  0.72877  Biso   1.000  C
  H133     1.0000 0.65903  0.92547  0.68337  Biso   1.000  H
  H134     1.0000 0.68833  0.98687  0.74657  Biso   1.000  H
  C86      1.0000 0.60383  0.85127  0.76717  Biso   1.000  C
  H135     1.0000 0.54553  0.84697  0.75797  Biso   1.000  H
  H136     1.0000 0.60003  0.79447  0.75357  Biso   1.000  H
  C87      1.0000 0.62193  0.86387  0.83867  Biso   1.000  C
  H137     1.0000 0.68303  0.87477  0.84717  Biso   1.000  H
  H138     1.0000 0.61943  0.91727  0.85297  Biso   1.000  H
  C88      1.0000 0.41613  0.00977  0.23287  Biso   1.000  C
  H139     1.0000 0.36903  0.01877  0.21317  Biso   1.000  H
  H140     1.0000 0.39833  0.99017  0.27777  Biso   1.000  H
  C89      1.0000 0.42303  0.93767  0.19667  Biso   1.000  C
  H141     1.0000 0.36443  0.88167  0.19767  Biso   1.000  H
  H142     1.0000 0.46733  0.92597  0.21807  Biso   1.000  H
  C90      1.0000 0.45113  0.96437  0.12717  Biso   1.000  C
  H143     1.0000 0.40793  0.97797  0.10597  Biso   1.000  H
  H144     1.0000 0.51083  0.01907  0.12597  Biso   1.000  H
  Fe1      1.0000 0.00000  0.00000  0.31756  Biso   1.000  Fe
  Fe2      1.0000 0.66667  0.33333  0.65089  Biso   1.000  Fe
  Fe3      1.0000 0.33333  0.66667  0.98423  Biso   1.000  Fe
  Fe4      1.0000 0.66667  0.33333  0.14955  Biso   1.000  Fe
  Fe5      1.0000 0.33333  0.66667  0.48288  Biso   1.000  Fe
  Fe6      1.0000 0.00000  0.00000  0.81622  Biso   1.000  Fe
