data_image0
_cell_length_a       15.661
_cell_length_b       15.661
_cell_length_c       15.661
_cell_angle_alpha    90
_cell_angle_beta     90
_cell_angle_gamma    90

_symmetry_space_group_name_H-M    "P 1"
_symmetry_int_tables_number       1

loop_
  _symmetry_equiv_pos_as_xyz
  'x, y, z'

loop_
  _atom_site_label
  _atom_site_occupancy
  _atom_site_fract_x
  _atom_site_fract_y
  _atom_site_fract_z
  _atom_site_thermal_displace_type
  _atom_site_B_iso_or_equiv
  _atom_site_type_symbol
  N1       1.0000 0.24010  0.37840  0.08440  Biso   1.000  N
  C1       1.0000 0.23170  0.32330  0.12370  Biso   1.000  C
  N2       1.0000 0.75990  0.62160  0.08440  Biso   1.000  N
  C2       1.0000 0.76830  0.67670  0.12370  Biso   1.000  C
  N3       1.0000 0.75990  0.37840  0.91560  Biso   1.000  N
  C3       1.0000 0.76830  0.32330  0.87630  Biso   1.000  C
  N4       1.0000 0.24010  0.62160  0.91560  Biso   1.000  N
  C4       1.0000 0.23170  0.67670  0.87630  Biso   1.000  C
  N5       1.0000 0.08440  0.24010  0.37840  Biso   1.000  N
  C5       1.0000 0.12370  0.23170  0.32330  Biso   1.000  C
  N6       1.0000 0.08440  0.75990  0.62160  Biso   1.000  N
  C6       1.0000 0.12370  0.76830  0.67670  Biso   1.000  C
  N7       1.0000 0.91560  0.75990  0.37840  Biso   1.000  N
  C7       1.0000 0.87630  0.76830  0.32330  Biso   1.000  C
  N8       1.0000 0.91560  0.24010  0.62160  Biso   1.000  N
  C8       1.0000 0.87630  0.23170  0.67670  Biso   1.000  C
  N9       1.0000 0.37840  0.08440  0.24010  Biso   1.000  N
  C9       1.0000 0.32330  0.12370  0.23170  Biso   1.000  C
  N10      1.0000 0.62160  0.08440  0.75990  Biso   1.000  N
  C10      1.0000 0.67670  0.12370  0.76830  Biso   1.000  C
  N11      1.0000 0.37840  0.91560  0.75990  Biso   1.000  N
  C11      1.0000 0.32330  0.87630  0.76830  Biso   1.000  C
  N12      1.0000 0.62160  0.91560  0.24010  Biso   1.000  N
  C12      1.0000 0.67670  0.87630  0.23170  Biso   1.000  C
  N13      1.0000 0.87840  0.74010  0.58440  Biso   1.000  N
  C13      1.0000 0.82330  0.73170  0.62370  Biso   1.000  C
  N14      1.0000 0.12160  0.25990  0.58440  Biso   1.000  N
  C14      1.0000 0.17670  0.26830  0.62370  Biso   1.000  C
  N15      1.0000 0.87840  0.25990  0.41560  Biso   1.000  N
  C15      1.0000 0.82330  0.26830  0.37630  Biso   1.000  C
  N16      1.0000 0.12160  0.74010  0.41560  Biso   1.000  N
  C16      1.0000 0.17670  0.73170  0.37630  Biso   1.000  C
  N17      1.0000 0.74010  0.58440  0.87840  Biso   1.000  N
  C17      1.0000 0.73170  0.62370  0.82330  Biso   1.000  C
  N18      1.0000 0.25990  0.58440  0.12160  Biso   1.000  N
  C18      1.0000 0.26830  0.62370  0.17670  Biso   1.000  C
  N19      1.0000 0.25990  0.41560  0.87840  Biso   1.000  N
  C19      1.0000 0.26830  0.37630  0.82330  Biso   1.000  C
  N20      1.0000 0.74010  0.41560  0.12160  Biso   1.000  N
  C20      1.0000 0.73170  0.37630  0.17670  Biso   1.000  C
  N21      1.0000 0.58440  0.87840  0.74010  Biso   1.000  N
  C21      1.0000 0.62370  0.82330  0.73170  Biso   1.000  C
  N22      1.0000 0.58440  0.12160  0.25990  Biso   1.000  N
  C22      1.0000 0.62370  0.17670  0.26830  Biso   1.000  C
  N23      1.0000 0.41560  0.87840  0.25990  Biso   1.000  N
  C23      1.0000 0.37630  0.82330  0.26830  Biso   1.000  C
  N24      1.0000 0.41560  0.12160  0.74010  Biso   1.000  N
  C24      1.0000 0.37630  0.17670  0.73170  Biso   1.000  C
  Cd1      1.0000 0.25000  0.50000  0.00000  Biso   1.000  Cd
  Cd2      1.0000 0.75000  0.50000  0.00000  Biso   1.000  Cd
  Cd3      1.0000 0.00000  0.25000  0.50000  Biso   1.000  Cd
  Cd4      1.0000 0.00000  0.75000  0.50000  Biso   1.000  Cd
  Cd5      1.0000 0.50000  0.00000  0.25000  Biso   1.000  Cd
  Cd6      1.0000 0.50000  0.00000  0.75000  Biso   1.000  Cd
  Cd7      1.0000 0.00000  0.00000  0.00000  Biso   1.000  Cd
  Cd8      1.0000 0.50000  0.50000  0.50000  Biso   1.000  Cd
  Cd9      1.0000 0.20754  0.20754  0.20754  Biso   1.000  Cd
  C25      1.0000 0.08127  0.08127  0.08127  Biso   1.000  C
  C26      1.0000 0.12520  0.12520  0.12520  Biso   1.000  C
  Cd10     1.0000 0.79246  0.79246  0.20754  Biso   1.000  Cd
  C27      1.0000 0.91873  0.91873  0.08127  Biso   1.000  C
  C28      1.0000 0.87480  0.87480  0.12520  Biso   1.000  C
  Cd11     1.0000 0.79246  0.20754  0.79246  Biso   1.000  Cd
  C29      1.0000 0.91873  0.08127  0.91873  Biso   1.000  C
  C30      1.0000 0.87480  0.12520  0.87480  Biso   1.000  C
  Cd12     1.0000 0.20754  0.79246  0.79246  Biso   1.000  Cd
  C31      1.0000 0.08127  0.91873  0.91873  Biso   1.000  C
  C32      1.0000 0.12520  0.87480  0.87480  Biso   1.000  C
  Cd13     1.0000 0.70754  0.70754  0.70754  Biso   1.000  Cd
  C33      1.0000 0.58127  0.58127  0.58127  Biso   1.000  C
  C34      1.0000 0.62520  0.62520  0.62520  Biso   1.000  C
  Cd14     1.0000 0.29246  0.29246  0.70754  Biso   1.000  Cd
  C35      1.0000 0.41873  0.41873  0.58127  Biso   1.000  C
  C36      1.0000 0.37480  0.37480  0.62520  Biso   1.000  C
  Cd15     1.0000 0.70754  0.29246  0.29246  Biso   1.000  Cd
  C37      1.0000 0.58127  0.41873  0.41873  Biso   1.000  C
  C38      1.0000 0.62520  0.37480  0.37480  Biso   1.000  C
  Cd16     1.0000 0.29246  0.70754  0.29246  Biso   1.000  Cd
  C39      1.0000 0.41873  0.58127  0.41873  Biso   1.000  C
  C40      1.0000 0.37480  0.62520  0.37480  Biso   1.000  C
