data_image0
_cell_length_a       15.762
_cell_length_b       15.762
_cell_length_c       15.762
_cell_angle_alpha    90
_cell_angle_beta     90
_cell_angle_gamma    90

_symmetry_space_group_name_H-M    "P 1"
_symmetry_int_tables_number       1

loop_
  _symmetry_equiv_pos_as_xyz
  'x, y, z'

loop_
  _atom_site_label
  _atom_site_occupancy
  _atom_site_fract_x
  _atom_site_fract_y
  _atom_site_fract_z
  _atom_site_thermal_displace_type
  _atom_site_B_iso_or_equiv
  _atom_site_type_symbol
  N1       1.0000 0.23850  0.37580  0.08260  Biso   1.000  N
  C1       1.0000 0.23010  0.31900  0.12380  Biso   1.000  C
  N2       1.0000 0.76150  0.62420  0.08260  Biso   1.000  N
  C2       1.0000 0.76990  0.68100  0.12380  Biso   1.000  C
  N3       1.0000 0.76150  0.37580  0.91740  Biso   1.000  N
  C3       1.0000 0.76990  0.31900  0.87620  Biso   1.000  C
  N4       1.0000 0.23850  0.62420  0.91740  Biso   1.000  N
  C4       1.0000 0.23010  0.68100  0.87620  Biso   1.000  C
  N5       1.0000 0.08260  0.23850  0.37580  Biso   1.000  N
  C5       1.0000 0.12380  0.23010  0.31900  Biso   1.000  C
  N6       1.0000 0.08260  0.76150  0.62420  Biso   1.000  N
  C6       1.0000 0.12380  0.76990  0.68100  Biso   1.000  C
  N7       1.0000 0.91740  0.76150  0.37580  Biso   1.000  N
  C7       1.0000 0.87620  0.76990  0.31900  Biso   1.000  C
  N8       1.0000 0.91740  0.23850  0.62420  Biso   1.000  N
  C8       1.0000 0.87620  0.23010  0.68100  Biso   1.000  C
  N9       1.0000 0.37580  0.08260  0.23850  Biso   1.000  N
  C9       1.0000 0.31900  0.12380  0.23010  Biso   1.000  C
  N10      1.0000 0.62420  0.08260  0.76150  Biso   1.000  N
  C10      1.0000 0.68100  0.12380  0.76990  Biso   1.000  C
  N11      1.0000 0.37580  0.91740  0.76150  Biso   1.000  N
  C11      1.0000 0.31900  0.87620  0.76990  Biso   1.000  C
  N12      1.0000 0.62420  0.91740  0.23850  Biso   1.000  N
  C12      1.0000 0.68100  0.87620  0.23010  Biso   1.000  C
  N13      1.0000 0.87580  0.73850  0.58260  Biso   1.000  N
  C13      1.0000 0.81900  0.73010  0.62380  Biso   1.000  C
  N14      1.0000 0.12420  0.26150  0.58260  Biso   1.000  N
  C14      1.0000 0.18100  0.26990  0.62380  Biso   1.000  C
  N15      1.0000 0.87580  0.26150  0.41740  Biso   1.000  N
  C15      1.0000 0.81900  0.26990  0.37620  Biso   1.000  C
  N16      1.0000 0.12420  0.73850  0.41740  Biso   1.000  N
  C16      1.0000 0.18100  0.73010  0.37620  Biso   1.000  C
  N17      1.0000 0.73850  0.58260  0.87580  Biso   1.000  N
  C17      1.0000 0.73010  0.62380  0.81900  Biso   1.000  C
  N18      1.0000 0.26150  0.58260  0.12420  Biso   1.000  N
  C18      1.0000 0.26990  0.62380  0.18100  Biso   1.000  C
  N19      1.0000 0.26150  0.41740  0.87580  Biso   1.000  N
  C19      1.0000 0.26990  0.37620  0.81900  Biso   1.000  C
  N20      1.0000 0.73850  0.41740  0.12420  Biso   1.000  N
  C20      1.0000 0.73010  0.37620  0.18100  Biso   1.000  C
  N21      1.0000 0.58260  0.87580  0.73850  Biso   1.000  N
  C21      1.0000 0.62380  0.81900  0.73010  Biso   1.000  C
  N22      1.0000 0.58260  0.12420  0.26150  Biso   1.000  N
  C22      1.0000 0.62380  0.18100  0.26990  Biso   1.000  C
  N23      1.0000 0.41740  0.87580  0.26150  Biso   1.000  N
  C23      1.0000 0.37620  0.81900  0.26990  Biso   1.000  C
  N24      1.0000 0.41740  0.12420  0.73850  Biso   1.000  N
  C24      1.0000 0.37620  0.18100  0.73010  Biso   1.000  C
  Cd1      1.0000 0.25000  0.50000  0.00000  Biso   1.000  Cd
  Cd2      1.0000 0.75000  0.50000  0.00000  Biso   1.000  Cd
  Cd3      1.0000 0.00000  0.25000  0.50000  Biso   1.000  Cd
  Cd4      1.0000 0.00000  0.75000  0.50000  Biso   1.000  Cd
  Cd5      1.0000 0.50000  0.00000  0.25000  Biso   1.000  Cd
  Cd6      1.0000 0.50000  0.00000  0.75000  Biso   1.000  Cd
  Cd7      1.0000 0.00000  0.00000  0.00000  Biso   1.000  Cd
  Cd8      1.0000 0.50000  0.50000  0.50000  Biso   1.000  Cd
  Cd9      1.0000 0.20687  0.20687  0.20687  Biso   1.000  Cd
  C25      1.0000 0.08250  0.08250  0.08250  Biso   1.000  C
  C26      1.0000 0.12380  0.12380  0.12380  Biso   1.000  C
  Cd10     1.0000 0.79313  0.79313  0.20687  Biso   1.000  Cd
  C27      1.0000 0.91750  0.91750  0.08250  Biso   1.000  C
  C28      1.0000 0.87620  0.87620  0.12380  Biso   1.000  C
  Cd11     1.0000 0.79313  0.20687  0.79313  Biso   1.000  Cd
  C29      1.0000 0.91750  0.08250  0.91750  Biso   1.000  C
  C30      1.0000 0.87620  0.12380  0.87620  Biso   1.000  C
  Cd12     1.0000 0.20687  0.79313  0.79313  Biso   1.000  Cd
  C31      1.0000 0.08250  0.91750  0.91750  Biso   1.000  C
  C32      1.0000 0.12380  0.87620  0.87620  Biso   1.000  C
  Cd13     1.0000 0.70687  0.70687  0.70687  Biso   1.000  Cd
  C33      1.0000 0.58250  0.58250  0.58250  Biso   1.000  C
  C34      1.0000 0.62380  0.62380  0.62380  Biso   1.000  C
  Cd14     1.0000 0.29313  0.29313  0.70687  Biso   1.000  Cd
  C35      1.0000 0.41750  0.41750  0.58250  Biso   1.000  C
  C36      1.0000 0.37620  0.37620  0.62380  Biso   1.000  C
  Cd15     1.0000 0.70687  0.29313  0.29313  Biso   1.000  Cd
  C37      1.0000 0.58250  0.41750  0.41750  Biso   1.000  C
  C38      1.0000 0.62380  0.37620  0.37620  Biso   1.000  C
  Cd16     1.0000 0.29313  0.70687  0.29313  Biso   1.000  Cd
  C39      1.0000 0.41750  0.58250  0.41750  Biso   1.000  C
  C40      1.0000 0.37620  0.62380  0.37620  Biso   1.000  C
