data_image0
_cell_length_a       14.044
_cell_length_b       18.034
_cell_length_c       12.931
_cell_angle_alpha    90
_cell_angle_beta     111.47
_cell_angle_gamma    90

_symmetry_space_group_name_H-M    "P 1"
_symmetry_int_tables_number       1

loop_
  _symmetry_equiv_pos_as_xyz
  'x, y, z'

loop_
  _atom_site_label
  _atom_site_occupancy
  _atom_site_fract_x
  _atom_site_fract_y
  _atom_site_fract_z
  _atom_site_thermal_displace_type
  _atom_site_B_iso_or_equiv
  _atom_site_type_symbol
  Cd1      1.0000 0.42565  0.36008  0.42064  Biso   1.000  Cd
  N1       1.0000 0.17210  0.36880  0.31090  Biso   1.000  N
  C1       1.0000 0.25870  0.36810  0.34470  Biso   1.000  C
  N2       1.0000 0.00860  0.26900  0.38460  Biso   1.000  N
  C2       1.0000 0.47370  0.27430  0.54880  Biso   1.000  C
  C3       1.0000 0.48480  0.47010  0.48460  Biso   1.000  C
  C4       1.0000 0.48790  0.34470  0.28710  Biso   1.000  C
  Cd2      1.0000 0.92565  0.86008  0.42064  Biso   1.000  Cd
  N3       1.0000 0.67210  0.86880  0.31090  Biso   1.000  N
  C5       1.0000 0.75870  0.86810  0.34470  Biso   1.000  C
  N4       1.0000 0.50860  0.76900  0.38460  Biso   1.000  N
  C6       1.0000 0.97370  0.77430  0.54880  Biso   1.000  C
  C7       1.0000 0.98480  0.97010  0.48460  Biso   1.000  C
  C8       1.0000 0.98790  0.84470  0.28710  Biso   1.000  C
  Cd3      1.0000 0.57435  0.36008  0.07936  Biso   1.000  Cd
  N5       1.0000 0.82790  0.36880  0.18910  Biso   1.000  N
  C9       1.0000 0.74130  0.36810  0.15530  Biso   1.000  C
  N6       1.0000 0.99140  0.26900  0.11540  Biso   1.000  N
  C10      1.0000 0.52630  0.27430  0.95120  Biso   1.000  C
  C11      1.0000 0.51520  0.47010  0.01540  Biso   1.000  C
  C12      1.0000 0.51210  0.34470  0.21290  Biso   1.000  C
  Cd4      1.0000 0.07435  0.86008  0.07936  Biso   1.000  Cd
  N7       1.0000 0.32790  0.86880  0.18910  Biso   1.000  N
  C13      1.0000 0.24130  0.86810  0.15530  Biso   1.000  C
  N8       1.0000 0.49140  0.76900  0.11540  Biso   1.000  N
  C14      1.0000 0.02630  0.77430  0.95120  Biso   1.000  C
  C15      1.0000 0.01520  0.97010  0.01540  Biso   1.000  C
  C16      1.0000 0.01210  0.84470  0.21290  Biso   1.000  C
  Cd5      1.0000 0.57435  0.63992  0.57936  Biso   1.000  Cd
  N9       1.0000 0.82790  0.63120  0.68910  Biso   1.000  N
  C17      1.0000 0.74130  0.63190  0.65530  Biso   1.000  C
  N10      1.0000 0.99140  0.73100  0.61540  Biso   1.000  N
  C18      1.0000 0.52630  0.72570  0.45120  Biso   1.000  C
  C19      1.0000 0.51520  0.52990  0.51540  Biso   1.000  C
  C20      1.0000 0.51210  0.65530  0.71290  Biso   1.000  C
  Cd6      1.0000 0.07435  0.13992  0.57936  Biso   1.000  Cd
  N11      1.0000 0.32790  0.13120  0.68910  Biso   1.000  N
  C21      1.0000 0.24130  0.13190  0.65530  Biso   1.000  C
  N12      1.0000 0.49140  0.23100  0.61540  Biso   1.000  N
  C22      1.0000 0.02630  0.22570  0.45120  Biso   1.000  C
  C23      1.0000 0.01520  0.02990  0.51540  Biso   1.000  C
  C24      1.0000 0.01210  0.15530  0.71290  Biso   1.000  C
  Cd7      1.0000 0.42565  0.63992  0.92064  Biso   1.000  Cd
  N13      1.0000 0.17210  0.63120  0.81090  Biso   1.000  N
  C25      1.0000 0.25870  0.63190  0.84470  Biso   1.000  C
  N14      1.0000 0.00860  0.73100  0.88460  Biso   1.000  N
  C26      1.0000 0.47370  0.72570  0.04880  Biso   1.000  C
  C27      1.0000 0.48480  0.52990  0.98460  Biso   1.000  C
  C28      1.0000 0.48790  0.65530  0.78710  Biso   1.000  C
  Cd8      1.0000 0.92565  0.13992  0.92064  Biso   1.000  Cd
  N15      1.0000 0.67210  0.13120  0.81090  Biso   1.000  N
  C29      1.0000 0.75870  0.13190  0.84470  Biso   1.000  C
  N16      1.0000 0.50860  0.23100  0.88460  Biso   1.000  N
  C30      1.0000 0.97370  0.22570  0.04880  Biso   1.000  C
  C31      1.0000 0.98480  0.02990  0.98460  Biso   1.000  C
  C32      1.0000 0.98790  0.15530  0.78710  Biso   1.000  C
  Cd9      1.0000 0.00000  0.35448  0.25000  Biso   1.000  Cd
  Cd10     1.0000 0.50000  0.85448  0.25000  Biso   1.000  Cd
  Cd11     1.0000 0.00000  0.64552  0.75000  Biso   1.000  Cd
  Cd12     1.0000 0.50000  0.14552  0.75000  Biso   1.000  Cd
