data_image0
_cell_length_a       14.085
_cell_length_b       14.019
_cell_length_c       24.13
_cell_angle_alpha    90
_cell_angle_beta     90
_cell_angle_gamma    90

_symmetry_space_group_name_H-M    "P 1"
_symmetry_int_tables_number       1

loop_
  _symmetry_equiv_pos_as_xyz
  'x, y, z'

loop_
  _atom_site_label
  _atom_site_occupancy
  _atom_site_fract_x
  _atom_site_fract_y
  _atom_site_fract_z
  _atom_site_thermal_displace_type
  _atom_site_B_iso_or_equiv
  _atom_site_type_symbol
  Zn1      1.0000 0.43961  0.09067  0.37345  Biso   1.000  Zn
  O1       1.0000 0.54910  0.16400  0.39410  Biso   1.000  O
  O2       1.0000 0.59100  0.11330  0.47780  Biso   1.000  O
  O3       1.0000 0.80700  0.32520  0.59170  Biso   1.000  O
  O4       1.0000 0.87890  0.44160  0.55040  Biso   1.000  O
  O5       1.0000 0.47980  0.95830  0.35570  Biso   1.000  O
  O6       1.0000 0.53600  0.91400  0.43830  Biso   1.000  O
  O7       1.0000 0.59330  0.61330  0.20370  Biso   1.000  O
  O8       1.0000 0.56330  0.76830  0.19310  Biso   1.000  O
  C1       1.0000 0.65060  0.25940  0.44600  Biso   1.000  C
  C2       1.0000 0.70220  0.27860  0.49370  Biso   1.000  C
  H1       1.0000 0.70030  0.23520  0.52290  Biso   1.000  H
  C3       1.0000 0.75660  0.36110  0.49920  Biso   1.000  C
  C4       1.0000 0.75590  0.42640  0.45720  Biso   1.000  C
  H2       1.0000 0.78930  0.48320  0.46100  Biso   1.000  H
  C5       1.0000 0.70610  0.40860  0.40910  Biso   1.000  C
  H3       1.0000 0.70730  0.45300  0.38040  Biso   1.000  H
  C6       1.0000 0.65470  0.32630  0.40320  Biso   1.000  C
  H4       1.0000 0.62220  0.31480  0.37030  Biso   1.000  H
  C7       1.0000 0.59200  0.17160  0.43900  Biso   1.000  C
  C8       1.0000 0.81720  0.37620  0.55080  Biso   1.000  C
  C9       1.0000 0.55540  0.80910  0.36380  Biso   1.000  C
  C10      1.0000 0.55220  0.79380  0.30690  Biso   1.000  C
  H5       1.0000 0.52740  0.84110  0.28400  Biso   1.000  H
  C11      1.0000 0.58480  0.71030  0.28360  Biso   1.000  C
  C12      1.0000 0.62090  0.64150  0.31770  Biso   1.000  C
  H6       1.0000 0.64210  0.58420  0.30280  Biso   1.000  H
  C13      1.0000 0.62620  0.65640  0.37400  Biso   1.000  C
  H7       1.0000 0.65380  0.61040  0.39660  Biso   1.000  H
  C14      1.0000 0.59080  0.73920  0.39710  Biso   1.000  C
  H8       1.0000 0.59110  0.74720  0.43540  Biso   1.000  H
  C15      1.0000 0.52080  0.90080  0.38800  Biso   1.000  C
  C16      1.0000 0.58040  0.69790  0.22250  Biso   1.000  C
  Zn2      1.0000 0.06039  0.90933  0.87345  Biso   1.000  Zn
  O9       1.0000 0.95090  0.83600  0.89410  Biso   1.000  O
  O10      1.0000 0.90900  0.88670  0.97780  Biso   1.000  O
  O11      1.0000 0.69300  0.67480  0.09170  Biso   1.000  O
  O12      1.0000 0.62110  0.55840  0.05040  Biso   1.000  O
  O13      1.0000 0.02020  0.04170  0.85570  Biso   1.000  O
  O14      1.0000 0.96400  0.08600  0.93830  Biso   1.000  O
  O15      1.0000 0.90670  0.38670  0.70370  Biso   1.000  O
  O16      1.0000 0.93670  0.23170  0.69310  Biso   1.000  O
  C17      1.0000 0.84940  0.74060  0.94600  Biso   1.000  C
  C18      1.0000 0.79780  0.72140  0.99370  Biso   1.000  C
  H9       1.0000 0.79970  0.76480  0.02290  Biso   1.000  H
  C19      1.0000 0.74340  0.63890  0.99920  Biso   1.000  C
  C20      1.0000 0.74410  0.57360  0.95720  Biso   1.000  C
  H10      1.0000 0.71070  0.51680  0.96100  Biso   1.000  H
  C21      1.0000 0.79390  0.59140  0.90910  Biso   1.000  C
  H11      1.0000 0.79270  0.54700  0.88040  Biso   1.000  H
  C22      1.0000 0.84530  0.67370  0.90320  Biso   1.000  C
  H12      1.0000 0.87780  0.68520  0.87030  Biso   1.000  H
  C23      1.0000 0.90800  0.82840  0.93900  Biso   1.000  C
  C24      1.0000 0.68280  0.62380  0.05080  Biso   1.000  C
  C25      1.0000 0.94460  0.19090  0.86380  Biso   1.000  C
  C26      1.0000 0.94780  0.20620  0.80690  Biso   1.000  C
  H13      1.0000 0.97260  0.15890  0.78400  Biso   1.000  H
  C27      1.0000 0.91520  0.28970  0.78360  Biso   1.000  C
  C28      1.0000 0.87910  0.35850  0.81770  Biso   1.000  C
  H14      1.0000 0.85790  0.41580  0.80280  Biso   1.000  H
  C29      1.0000 0.87380  0.34360  0.87400  Biso   1.000  C
  H15      1.0000 0.84620  0.38960  0.89660  Biso   1.000  H
  C30      1.0000 0.90920  0.26080  0.89710  Biso   1.000  C
  H16      1.0000 0.90890  0.25280  0.93540  Biso   1.000  H
  C31      1.0000 0.97920  0.09920  0.88800  Biso   1.000  C
  C32      1.0000 0.91960  0.30210  0.72250  Biso   1.000  C
  Zn3      1.0000 0.56039  0.59067  0.12655  Biso   1.000  Zn
  O17      1.0000 0.45090  0.66400  0.10590  Biso   1.000  O
  O18      1.0000 0.40900  0.61330  0.02220  Biso   1.000  O
  O19      1.0000 0.19300  0.82520  0.90830  Biso   1.000  O
  O20      1.0000 0.12110  0.94160  0.94960  Biso   1.000  O
  O21      1.0000 0.52020  0.45830  0.14430  Biso   1.000  O
  O22      1.0000 0.46400  0.41400  0.06170  Biso   1.000  O
  O23      1.0000 0.40670  0.11330  0.29630  Biso   1.000  O
  O24      1.0000 0.43670  0.26830  0.30690  Biso   1.000  O
  C33      1.0000 0.34940  0.75940  0.05400  Biso   1.000  C
  C34      1.0000 0.29780  0.77860  0.00630  Biso   1.000  C
  H17      1.0000 0.29970  0.73520  0.97710  Biso   1.000  H
  C35      1.0000 0.24340  0.86110  0.00080  Biso   1.000  C
  C36      1.0000 0.24410  0.92640  0.04280  Biso   1.000  C
  H18      1.0000 0.21070  0.98320  0.03900  Biso   1.000  H
  C37      1.0000 0.29390  0.90860  0.09090  Biso   1.000  C
  H19      1.0000 0.29270  0.95300  0.11960  Biso   1.000  H
  C38      1.0000 0.34530  0.82630  0.09680  Biso   1.000  C
  H20      1.0000 0.37780  0.81480  0.12970  Biso   1.000  H
  C39      1.0000 0.40800  0.67160  0.06100  Biso   1.000  C
  C40      1.0000 0.18280  0.87620  0.94920  Biso   1.000  C
  C41      1.0000 0.44460  0.30910  0.13620  Biso   1.000  C
  C42      1.0000 0.44780  0.29380  0.19310  Biso   1.000  C
  H21      1.0000 0.47260  0.34110  0.21600  Biso   1.000  H
  C43      1.0000 0.41520  0.21030  0.21640  Biso   1.000  C
  C44      1.0000 0.37910  0.14150  0.18230  Biso   1.000  C
  H22      1.0000 0.35790  0.08420  0.19720  Biso   1.000  H
  C45      1.0000 0.37380  0.15640  0.12600  Biso   1.000  C
  H23      1.0000 0.34620  0.11040  0.10340  Biso   1.000  H
  C46      1.0000 0.40920  0.23920  0.10290  Biso   1.000  C
  H24      1.0000 0.40890  0.24720  0.06460  Biso   1.000  H
  C47      1.0000 0.47920  0.40080  0.11200  Biso   1.000  C
  C48      1.0000 0.41960  0.19790  0.27750  Biso   1.000  C
  Zn4      1.0000 0.93961  0.40933  0.62655  Biso   1.000  Zn
  O25      1.0000 0.04910  0.33600  0.60590  Biso   1.000  O
  O26      1.0000 0.09100  0.38670  0.52220  Biso   1.000  O
  O27      1.0000 0.30700  0.17480  0.40830  Biso   1.000  O
  O28      1.0000 0.37890  0.05840  0.44960  Biso   1.000  O
  O29      1.0000 0.97980  0.54170  0.64430  Biso   1.000  O
  O30      1.0000 0.03600  0.58600  0.56170  Biso   1.000  O
  O31      1.0000 0.09330  0.88670  0.79630  Biso   1.000  O
  O32      1.0000 0.06330  0.73170  0.80690  Biso   1.000  O
  C49      1.0000 0.15060  0.24060  0.55400  Biso   1.000  C
  C50      1.0000 0.20220  0.22140  0.50630  Biso   1.000  C
  H25      1.0000 0.20030  0.26480  0.47710  Biso   1.000  H
  C51      1.0000 0.25660  0.13890  0.50080  Biso   1.000  C
  C52      1.0000 0.25590  0.07360  0.54280  Biso   1.000  C
  H26      1.0000 0.28930  0.01680  0.53900  Biso   1.000  H
  C53      1.0000 0.20610  0.09140  0.59090  Biso   1.000  C
  H27      1.0000 0.20730  0.04700  0.61960  Biso   1.000  H
  C54      1.0000 0.15470  0.17370  0.59680  Biso   1.000  C
  H28      1.0000 0.12220  0.18520  0.62970  Biso   1.000  H
  C55      1.0000 0.09200  0.32840  0.56100  Biso   1.000  C
  C56      1.0000 0.31720  0.12380  0.44920  Biso   1.000  C
  C57      1.0000 0.05540  0.69090  0.63620  Biso   1.000  C
  C58      1.0000 0.05220  0.70620  0.69310  Biso   1.000  C
  H29      1.0000 0.02740  0.65890  0.71600  Biso   1.000  H
  C59      1.0000 0.08480  0.78970  0.71640  Biso   1.000  C
  C60      1.0000 0.12090  0.85850  0.68230  Biso   1.000  C
  H30      1.0000 0.14210  0.91580  0.69720  Biso   1.000  H
  C61      1.0000 0.12620  0.84360  0.62600  Biso   1.000  C
  H31      1.0000 0.15380  0.88960  0.60340  Biso   1.000  H
  C62      1.0000 0.09080  0.76080  0.60290  Biso   1.000  C
  H32      1.0000 0.09110  0.75280  0.56460  Biso   1.000  H
  C63      1.0000 0.02080  0.59920  0.61200  Biso   1.000  C
  C64      1.0000 0.08040  0.80210  0.77750  Biso   1.000  C
  Zn5      1.0000 0.56039  0.90933  0.62655  Biso   1.000  Zn
  O33      1.0000 0.45090  0.83600  0.60590  Biso   1.000  O
  O34      1.0000 0.40900  0.88670  0.52220  Biso   1.000  O
  O35      1.0000 0.19300  0.67480  0.40830  Biso   1.000  O
  O36      1.0000 0.12110  0.55840  0.44960  Biso   1.000  O
  O37      1.0000 0.52020  0.04170  0.64430  Biso   1.000  O
  O38      1.0000 0.46400  0.08600  0.56170  Biso   1.000  O
  O39      1.0000 0.40670  0.38670  0.79630  Biso   1.000  O
  O40      1.0000 0.43670  0.23170  0.80690  Biso   1.000  O
  C65      1.0000 0.34940  0.74060  0.55400  Biso   1.000  C
  C66      1.0000 0.29780  0.72140  0.50630  Biso   1.000  C
  H33      1.0000 0.29970  0.76480  0.47710  Biso   1.000  H
  C67      1.0000 0.24340  0.63890  0.50080  Biso   1.000  C
  C68      1.0000 0.24410  0.57360  0.54280  Biso   1.000  C
  H34      1.0000 0.21070  0.51680  0.53900  Biso   1.000  H
  C69      1.0000 0.29390  0.59140  0.59090  Biso   1.000  C
  H35      1.0000 0.29270  0.54700  0.61960  Biso   1.000  H
  C70      1.0000 0.34530  0.67370  0.59680  Biso   1.000  C
  H36      1.0000 0.37780  0.68520  0.62970  Biso   1.000  H
  C71      1.0000 0.40800  0.82840  0.56100  Biso   1.000  C
  C72      1.0000 0.18280  0.62380  0.44920  Biso   1.000  C
  C73      1.0000 0.44460  0.19090  0.63620  Biso   1.000  C
  C74      1.0000 0.44780  0.20620  0.69310  Biso   1.000  C
  H37      1.0000 0.47260  0.15890  0.71600  Biso   1.000  H
  C75      1.0000 0.41520  0.28970  0.71640  Biso   1.000  C
  C76      1.0000 0.37910  0.35850  0.68230  Biso   1.000  C
  H38      1.0000 0.35790  0.41580  0.69720  Biso   1.000  H
  C77      1.0000 0.37380  0.34360  0.62600  Biso   1.000  C
  H39      1.0000 0.34620  0.38960  0.60340  Biso   1.000  H
  C78      1.0000 0.40920  0.26080  0.60290  Biso   1.000  C
  H40      1.0000 0.40890  0.25280  0.56460  Biso   1.000  H
  C79      1.0000 0.47920  0.09920  0.61200  Biso   1.000  C
  C80      1.0000 0.41960  0.30210  0.77750  Biso   1.000  C
  Zn6      1.0000 0.93961  0.09067  0.12655  Biso   1.000  Zn
  O41      1.0000 0.04910  0.16400  0.10590  Biso   1.000  O
  O42      1.0000 0.09100  0.11330  0.02220  Biso   1.000  O
  O43      1.0000 0.30700  0.32520  0.90830  Biso   1.000  O
  O44      1.0000 0.37890  0.44160  0.94960  Biso   1.000  O
  O45      1.0000 0.97980  0.95830  0.14430  Biso   1.000  O
  O46      1.0000 0.03600  0.91400  0.06170  Biso   1.000  O
  O47      1.0000 0.09330  0.61330  0.29630  Biso   1.000  O
  O48      1.0000 0.06330  0.76830  0.30690  Biso   1.000  O
  C81      1.0000 0.15060  0.25940  0.05400  Biso   1.000  C
  C82      1.0000 0.20220  0.27860  0.00630  Biso   1.000  C
  H41      1.0000 0.20030  0.23520  0.97710  Biso   1.000  H
  C83      1.0000 0.25660  0.36110  0.00080  Biso   1.000  C
  C84      1.0000 0.25590  0.42640  0.04280  Biso   1.000  C
  H42      1.0000 0.28930  0.48320  0.03900  Biso   1.000  H
  C85      1.0000 0.20610  0.40860  0.09090  Biso   1.000  C
  H43      1.0000 0.20730  0.45300  0.11960  Biso   1.000  H
  C86      1.0000 0.15470  0.32630  0.09680  Biso   1.000  C
  H44      1.0000 0.12220  0.31480  0.12970  Biso   1.000  H
  C87      1.0000 0.09200  0.17160  0.06100  Biso   1.000  C
  C88      1.0000 0.31720  0.37620  0.94920  Biso   1.000  C
  C89      1.0000 0.05540  0.80910  0.13620  Biso   1.000  C
  C90      1.0000 0.05220  0.79380  0.19310  Biso   1.000  C
  H45      1.0000 0.02740  0.84110  0.21600  Biso   1.000  H
  C91      1.0000 0.08480  0.71030  0.21640  Biso   1.000  C
  C92      1.0000 0.12090  0.64150  0.18230  Biso   1.000  C
  H46      1.0000 0.14210  0.58420  0.19720  Biso   1.000  H
  C93      1.0000 0.12620  0.65640  0.12600  Biso   1.000  C
  H47      1.0000 0.15380  0.61040  0.10340  Biso   1.000  H
  C94      1.0000 0.09080  0.73920  0.10290  Biso   1.000  C
  H48      1.0000 0.09110  0.74720  0.06460  Biso   1.000  H
  C95      1.0000 0.02080  0.90080  0.11200  Biso   1.000  C
  C96      1.0000 0.08040  0.69790  0.27750  Biso   1.000  C
  Zn7      1.0000 0.43961  0.40933  0.87345  Biso   1.000  Zn
  O49      1.0000 0.54910  0.33600  0.89410  Biso   1.000  O
  O50      1.0000 0.59100  0.38670  0.97780  Biso   1.000  O
  O51      1.0000 0.80700  0.17480  0.09170  Biso   1.000  O
  O52      1.0000 0.87890  0.05840  0.05040  Biso   1.000  O
  O53      1.0000 0.47980  0.54170  0.85570  Biso   1.000  O
  O54      1.0000 0.53600  0.58600  0.93830  Biso   1.000  O
  O55      1.0000 0.59330  0.88670  0.70370  Biso   1.000  O
  O56      1.0000 0.56330  0.73170  0.69310  Biso   1.000  O
  C97      1.0000 0.65060  0.24060  0.94600  Biso   1.000  C
  C98      1.0000 0.70220  0.22140  0.99370  Biso   1.000  C
  H49      1.0000 0.70030  0.26480  0.02290  Biso   1.000  H
  C99      1.0000 0.75660  0.13890  0.99920  Biso   1.000  C
  C100     1.0000 0.75590  0.07360  0.95720  Biso   1.000  C
  H50      1.0000 0.78930  0.01680  0.96100  Biso   1.000  H
  C101     1.0000 0.70610  0.09140  0.90910  Biso   1.000  C
  H51      1.0000 0.70730  0.04700  0.88040  Biso   1.000  H
  C102     1.0000 0.65470  0.17370  0.90320  Biso   1.000  C
  H52      1.0000 0.62220  0.18520  0.87030  Biso   1.000  H
  C103     1.0000 0.59200  0.32840  0.93900  Biso   1.000  C
  C104     1.0000 0.81720  0.12380  0.05080  Biso   1.000  C
  C105     1.0000 0.55540  0.69090  0.86380  Biso   1.000  C
  C106     1.0000 0.55220  0.70620  0.80690  Biso   1.000  C
  H53      1.0000 0.52740  0.65890  0.78400  Biso   1.000  H
  C107     1.0000 0.58480  0.78970  0.78360  Biso   1.000  C
  C108     1.0000 0.62090  0.85850  0.81770  Biso   1.000  C
  H54      1.0000 0.64210  0.91580  0.80280  Biso   1.000  H
  C109     1.0000 0.62620  0.84360  0.87400  Biso   1.000  C
  H55      1.0000 0.65380  0.88960  0.89660  Biso   1.000  H
  C110     1.0000 0.59080  0.76080  0.89710  Biso   1.000  C
  H56      1.0000 0.59110  0.75280  0.93540  Biso   1.000  H
  C111     1.0000 0.52080  0.59920  0.88800  Biso   1.000  C
  C112     1.0000 0.58040  0.80210  0.72250  Biso   1.000  C
  Zn8      1.0000 0.06039  0.59067  0.37345  Biso   1.000  Zn
  O57      1.0000 0.95090  0.66400  0.39410  Biso   1.000  O
  O58      1.0000 0.90900  0.61330  0.47780  Biso   1.000  O
  O59      1.0000 0.69300  0.82520  0.59170  Biso   1.000  O
  O60      1.0000 0.62110  0.94160  0.55040  Biso   1.000  O
  O61      1.0000 0.02020  0.45830  0.35570  Biso   1.000  O
  O62      1.0000 0.96400  0.41400  0.43830  Biso   1.000  O
  O63      1.0000 0.90670  0.11330  0.20370  Biso   1.000  O
  O64      1.0000 0.93670  0.26830  0.19310  Biso   1.000  O
  C113     1.0000 0.84940  0.75940  0.44600  Biso   1.000  C
  C114     1.0000 0.79780  0.77860  0.49370  Biso   1.000  C
  H57      1.0000 0.79970  0.73520  0.52290  Biso   1.000  H
  C115     1.0000 0.74340  0.86110  0.49920  Biso   1.000  C
  C116     1.0000 0.74410  0.92640  0.45720  Biso   1.000  C
  H58      1.0000 0.71070  0.98320  0.46100  Biso   1.000  H
  C117     1.0000 0.79390  0.90860  0.40910  Biso   1.000  C
  H59      1.0000 0.79270  0.95300  0.38040  Biso   1.000  H
  C118     1.0000 0.84530  0.82630  0.40320  Biso   1.000  C
  H60      1.0000 0.87780  0.81480  0.37030  Biso   1.000  H
  C119     1.0000 0.90800  0.67160  0.43900  Biso   1.000  C
  C120     1.0000 0.68280  0.87620  0.55080  Biso   1.000  C
  C121     1.0000 0.94460  0.30910  0.36380  Biso   1.000  C
  C122     1.0000 0.94780  0.29380  0.30690  Biso   1.000  C
  H61      1.0000 0.97260  0.34110  0.28400  Biso   1.000  H
  C123     1.0000 0.91520  0.21030  0.28360  Biso   1.000  C
  C124     1.0000 0.87910  0.14150  0.31770  Biso   1.000  C
  H62      1.0000 0.85790  0.08420  0.30280  Biso   1.000  H
  C125     1.0000 0.87380  0.15640  0.37400  Biso   1.000  C
  H63      1.0000 0.84620  0.11040  0.39660  Biso   1.000  H
  C126     1.0000 0.90920  0.23920  0.39710  Biso   1.000  C
  H64      1.0000 0.90890  0.24720  0.43540  Biso   1.000  H
  C127     1.0000 0.97920  0.40080  0.38800  Biso   1.000  C
  C128     1.0000 0.91960  0.19790  0.22250  Biso   1.000  C
  Zn9      1.0000 0.50000  0.00000  0.50000  Biso   1.000  Zn
  Zn10     1.0000 0.00000  0.00000  0.00000  Biso   1.000  Zn
  Zn11     1.0000 0.50000  0.50000  0.00000  Biso   1.000  Zn
  Zn12     1.0000 0.00000  0.50000  0.50000  Biso   1.000  Zn
