data_image0
_cell_length_a       13.9335
_cell_length_b       14.102
_cell_length_c       24.5722
_cell_angle_alpha    90
_cell_angle_beta     90
_cell_angle_gamma    90

_symmetry_space_group_name_H-M    "P 1"
_symmetry_int_tables_number       1

loop_
  _symmetry_equiv_pos_as_xyz
  'x, y, z'

loop_
  _atom_site_label
  _atom_site_occupancy
  _atom_site_fract_x
  _atom_site_fract_y
  _atom_site_fract_z
  _atom_site_thermal_displace_type
  _atom_site_B_iso_or_equiv
  _atom_site_type_symbol
  Co1      1.0000 0.43012  0.09594  0.62672  Biso   1.000  Co
  O1       1.0000 0.30390  0.15730  0.59249  Biso   1.000  O
  O2       1.0000 0.38110  0.05380  0.54455  Biso   1.000  O
  O3       1.0000 0.08600  0.38210  0.48295  Biso   1.000  O
  O4       1.0000 0.03840  0.33150  0.40122  Biso   1.000  O
  O5       1.0000 0.46750  0.96310  0.64380  Biso   1.000  O
  O6       1.0000 0.54110  0.92550  0.56599  Biso   1.000  O
  O7       1.0000 0.55890  0.77550  0.80657  Biso   1.000  O
  O8       1.0000 0.58540  0.62210  0.79436  Biso   1.000  O
  C1       1.0000 0.25070  0.13250  0.50050  Biso   1.000  C
  C2       1.0000 0.19690  0.21530  0.49686  Biso   1.000  C
  H1       1.0000 0.19680  0.25820  0.52560  Biso   1.000  H
  C3       1.0000 0.14340  0.23440  0.45045  Biso   1.000  C
  C4       1.0000 0.14290  0.16880  0.40796  Biso   1.000  C
  H2       1.0000 0.10750  0.18120  0.37660  Biso   1.000  H
  C5       1.0000 0.19460  0.08600  0.41220  Biso   1.000  C
  H3       1.0000 0.19260  0.04210  0.38400  Biso   1.000  H
  C6       1.0000 0.24940  0.06730  0.45792  Biso   1.000  C
  H4       1.0000 0.28510  0.01170  0.46020  Biso   1.000  H
  C7       1.0000 0.31510  0.11460  0.54806  Biso   1.000  C
  C8       1.0000 0.08470  0.32420  0.44506  Biso   1.000  C
  C9       1.0000 0.55290  0.81860  0.63812  Biso   1.000  C
  C10      1.0000 0.54670  0.80280  0.69384  Biso   1.000  C
  H5       1.0000 0.51900  0.84850  0.71610  Biso   1.000  H
  C11      1.0000 0.58150  0.71980  0.71656  Biso   1.000  C
  C12      1.0000 0.62220  0.65160  0.68330  Biso   1.000  C
  H6       1.0000 0.64530  0.59550  0.69820  Biso   1.000  H
  C13      1.0000 0.62870  0.66730  0.62750  Biso   1.000  C
  H7       1.0000 0.65550  0.62110  0.60520  Biso   1.000  H
  C14      1.0000 0.59550  0.75110  0.60490  Biso   1.000  C
  H8       1.0000 0.60170  0.76210  0.56780  Biso   1.000  H
  C15      1.0000 0.51730  0.90940  0.61367  Biso   1.000  C
  C16      1.0000 0.57480  0.70600  0.77724  Biso   1.000  C
  Co2      1.0000 0.06988  0.90406  0.12672  Biso   1.000  Co
  O9       1.0000 0.19610  0.84270  0.09249  Biso   1.000  O
  O10      1.0000 0.11890  0.94620  0.04455  Biso   1.000  O
  O11      1.0000 0.41400  0.61790  0.98295  Biso   1.000  O
  O12      1.0000 0.46160  0.66850  0.90122  Biso   1.000  O
  O13      1.0000 0.03250  0.03690  0.14380  Biso   1.000  O
  O14      1.0000 0.95890  0.07450  0.06599  Biso   1.000  O
  O15      1.0000 0.94110  0.22450  0.30657  Biso   1.000  O
  O16      1.0000 0.91460  0.37790  0.29436  Biso   1.000  O
  C17      1.0000 0.24930  0.86750  0.00050  Biso   1.000  C
  C18      1.0000 0.30310  0.78470  0.99686  Biso   1.000  C
  H9       1.0000 0.30320  0.74180  0.02560  Biso   1.000  H
  C19      1.0000 0.35660  0.76560  0.95045  Biso   1.000  C
  C20      1.0000 0.35710  0.83120  0.90796  Biso   1.000  C
  H10      1.0000 0.39250  0.81880  0.87660  Biso   1.000  H
  C21      1.0000 0.30540  0.91400  0.91220  Biso   1.000  C
  H11      1.0000 0.30740  0.95790  0.88400  Biso   1.000  H
  C22      1.0000 0.25060  0.93270  0.95792  Biso   1.000  C
  H12      1.0000 0.21490  0.98830  0.96020  Biso   1.000  H
  C23      1.0000 0.18490  0.88540  0.04806  Biso   1.000  C
  C24      1.0000 0.41530  0.67580  0.94506  Biso   1.000  C
  C25      1.0000 0.94710  0.18140  0.13812  Biso   1.000  C
  C26      1.0000 0.95330  0.19720  0.19384  Biso   1.000  C
  H13      1.0000 0.98100  0.15150  0.21610  Biso   1.000  H
  C27      1.0000 0.91850  0.28020  0.21656  Biso   1.000  C
  C28      1.0000 0.87780  0.34840  0.18330  Biso   1.000  C
  H14      1.0000 0.85470  0.40450  0.19820  Biso   1.000  H
  C29      1.0000 0.87130  0.33270  0.12750  Biso   1.000  C
  H15      1.0000 0.84450  0.37890  0.10520  Biso   1.000  H
  C30      1.0000 0.90450  0.24890  0.10490  Biso   1.000  C
  H16      1.0000 0.89830  0.23790  0.06780  Biso   1.000  H
  C31      1.0000 0.98270  0.09060  0.11367  Biso   1.000  C
  C32      1.0000 0.92520  0.29400  0.27724  Biso   1.000  C
  Co3      1.0000 0.56988  0.59594  0.87328  Biso   1.000  Co
  O17      1.0000 0.69610  0.65730  0.90751  Biso   1.000  O
  O18      1.0000 0.61890  0.55380  0.95545  Biso   1.000  O
  O19      1.0000 0.91400  0.88210  0.01705  Biso   1.000  O
  O20      1.0000 0.96160  0.83150  0.09878  Biso   1.000  O
  O21      1.0000 0.53250  0.46310  0.85620  Biso   1.000  O
  O22      1.0000 0.45890  0.42550  0.93401  Biso   1.000  O
  O23      1.0000 0.44110  0.27550  0.69343  Biso   1.000  O
  O24      1.0000 0.41460  0.12210  0.70564  Biso   1.000  O
  C33      1.0000 0.74930  0.63250  0.99950  Biso   1.000  C
  C34      1.0000 0.80310  0.71530  0.00314  Biso   1.000  C
  H17      1.0000 0.80320  0.75820  0.97440  Biso   1.000  H
  C35      1.0000 0.85660  0.73440  0.04955  Biso   1.000  C
  C36      1.0000 0.85710  0.66880  0.09204  Biso   1.000  C
  H18      1.0000 0.89250  0.68120  0.12340  Biso   1.000  H
  C37      1.0000 0.80540  0.58600  0.08780  Biso   1.000  C
  H19      1.0000 0.80740  0.54210  0.11600  Biso   1.000  H
  C38      1.0000 0.75060  0.56730  0.04208  Biso   1.000  C
  H20      1.0000 0.71490  0.51170  0.03980  Biso   1.000  H
  C39      1.0000 0.68490  0.61460  0.95194  Biso   1.000  C
  C40      1.0000 0.91530  0.82420  0.05494  Biso   1.000  C
  C41      1.0000 0.44710  0.31860  0.86188  Biso   1.000  C
  C42      1.0000 0.45330  0.30280  0.80616  Biso   1.000  C
  H21      1.0000 0.48100  0.34850  0.78390  Biso   1.000  H
  C43      1.0000 0.41850  0.21980  0.78344  Biso   1.000  C
  C44      1.0000 0.37780  0.15160  0.81670  Biso   1.000  C
  H22      1.0000 0.35470  0.09550  0.80180  Biso   1.000  H
  C45      1.0000 0.37130  0.16730  0.87250  Biso   1.000  C
  H23      1.0000 0.34450  0.12110  0.89480  Biso   1.000  H
  C46      1.0000 0.40450  0.25110  0.89510  Biso   1.000  C
  H24      1.0000 0.39830  0.26210  0.93220  Biso   1.000  H
  C47      1.0000 0.48270  0.40940  0.88633  Biso   1.000  C
  C48      1.0000 0.42520  0.20600  0.72276  Biso   1.000  C
  Co4      1.0000 0.93012  0.40406  0.37328  Biso   1.000  Co
  O25      1.0000 0.80390  0.34270  0.40751  Biso   1.000  O
  O26      1.0000 0.88110  0.44620  0.45545  Biso   1.000  O
  O27      1.0000 0.58600  0.11790  0.51705  Biso   1.000  O
  O28      1.0000 0.53840  0.16850  0.59878  Biso   1.000  O
  O29      1.0000 0.96750  0.53690  0.35620  Biso   1.000  O
  O30      1.0000 0.04110  0.57450  0.43401  Biso   1.000  O
  O31      1.0000 0.05890  0.72450  0.19343  Biso   1.000  O
  O32      1.0000 0.08540  0.87790  0.20564  Biso   1.000  O
  C49      1.0000 0.75070  0.36750  0.49950  Biso   1.000  C
  C50      1.0000 0.69690  0.28470  0.50314  Biso   1.000  C
  H25      1.0000 0.69680  0.24180  0.47440  Biso   1.000  H
  C51      1.0000 0.64340  0.26560  0.54955  Biso   1.000  C
  C52      1.0000 0.64290  0.33120  0.59204  Biso   1.000  C
  H26      1.0000 0.60750  0.31880  0.62340  Biso   1.000  H
  C53      1.0000 0.69460  0.41400  0.58780  Biso   1.000  C
  H27      1.0000 0.69260  0.45790  0.61600  Biso   1.000  H
  C54      1.0000 0.74940  0.43270  0.54208  Biso   1.000  C
  H28      1.0000 0.78510  0.48830  0.53980  Biso   1.000  H
  C55      1.0000 0.81510  0.38540  0.45194  Biso   1.000  C
  C56      1.0000 0.58470  0.17580  0.55494  Biso   1.000  C
  C57      1.0000 0.05290  0.68140  0.36188  Biso   1.000  C
  C58      1.0000 0.04670  0.69720  0.30616  Biso   1.000  C
  H29      1.0000 0.01900  0.65150  0.28390  Biso   1.000  H
  C59      1.0000 0.08150  0.78020  0.28344  Biso   1.000  C
  C60      1.0000 0.12220  0.84840  0.31670  Biso   1.000  C
  H30      1.0000 0.14530  0.90450  0.30180  Biso   1.000  H
  C61      1.0000 0.12870  0.83270  0.37250  Biso   1.000  C
  H31      1.0000 0.15550  0.87890  0.39480  Biso   1.000  H
  C62      1.0000 0.09550  0.74890  0.39510  Biso   1.000  C
  H32      1.0000 0.10170  0.73790  0.43220  Biso   1.000  H
  C63      1.0000 0.01730  0.59060  0.38633  Biso   1.000  C
  C64      1.0000 0.07480  0.79400  0.22276  Biso   1.000  C
  Co5      1.0000 0.56988  0.90406  0.37328  Biso   1.000  Co
  O33      1.0000 0.69610  0.84270  0.40751  Biso   1.000  O
  O34      1.0000 0.61890  0.94620  0.45545  Biso   1.000  O
  O35      1.0000 0.91400  0.61790  0.51705  Biso   1.000  O
  O36      1.0000 0.96160  0.66850  0.59878  Biso   1.000  O
  O37      1.0000 0.53250  0.03690  0.35620  Biso   1.000  O
  O38      1.0000 0.45890  0.07450  0.43401  Biso   1.000  O
  O39      1.0000 0.44110  0.22450  0.19343  Biso   1.000  O
  O40      1.0000 0.41460  0.37790  0.20564  Biso   1.000  O
  C65      1.0000 0.74930  0.86750  0.49950  Biso   1.000  C
  C66      1.0000 0.80310  0.78470  0.50314  Biso   1.000  C
  H33      1.0000 0.80320  0.74180  0.47440  Biso   1.000  H
  C67      1.0000 0.85660  0.76560  0.54955  Biso   1.000  C
  C68      1.0000 0.85710  0.83120  0.59204  Biso   1.000  C
  H34      1.0000 0.89250  0.81880  0.62340  Biso   1.000  H
  C69      1.0000 0.80540  0.91400  0.58780  Biso   1.000  C
  H35      1.0000 0.80740  0.95790  0.61600  Biso   1.000  H
  C70      1.0000 0.75060  0.93270  0.54208  Biso   1.000  C
  H36      1.0000 0.71490  0.98830  0.53980  Biso   1.000  H
  C71      1.0000 0.68490  0.88540  0.45194  Biso   1.000  C
  C72      1.0000 0.91530  0.67580  0.55494  Biso   1.000  C
  C73      1.0000 0.44710  0.18140  0.36188  Biso   1.000  C
  C74      1.0000 0.45330  0.19720  0.30616  Biso   1.000  C
  H37      1.0000 0.48100  0.15150  0.28390  Biso   1.000  H
  C75      1.0000 0.41850  0.28020  0.28344  Biso   1.000  C
  C76      1.0000 0.37780  0.34840  0.31670  Biso   1.000  C
  H38      1.0000 0.35470  0.40450  0.30180  Biso   1.000  H
  C77      1.0000 0.37130  0.33270  0.37250  Biso   1.000  C
  H39      1.0000 0.34450  0.37890  0.39480  Biso   1.000  H
  C78      1.0000 0.40450  0.24890  0.39510  Biso   1.000  C
  H40      1.0000 0.39830  0.23790  0.43220  Biso   1.000  H
  C79      1.0000 0.48270  0.09060  0.38633  Biso   1.000  C
  C80      1.0000 0.42520  0.29400  0.22276  Biso   1.000  C
  Co6      1.0000 0.93012  0.09594  0.87328  Biso   1.000  Co
  O41      1.0000 0.80390  0.15730  0.90751  Biso   1.000  O
  O42      1.0000 0.88110  0.05380  0.95545  Biso   1.000  O
  O43      1.0000 0.58600  0.38210  0.01705  Biso   1.000  O
  O44      1.0000 0.53840  0.33150  0.09878  Biso   1.000  O
  O45      1.0000 0.96750  0.96310  0.85620  Biso   1.000  O
  O46      1.0000 0.04110  0.92550  0.93401  Biso   1.000  O
  O47      1.0000 0.05890  0.77550  0.69343  Biso   1.000  O
  O48      1.0000 0.08540  0.62210  0.70564  Biso   1.000  O
  C81      1.0000 0.75070  0.13250  0.99950  Biso   1.000  C
  C82      1.0000 0.69690  0.21530  0.00314  Biso   1.000  C
  H41      1.0000 0.69680  0.25820  0.97440  Biso   1.000  H
  C83      1.0000 0.64340  0.23440  0.04955  Biso   1.000  C
  C84      1.0000 0.64290  0.16880  0.09204  Biso   1.000  C
  H42      1.0000 0.60750  0.18120  0.12340  Biso   1.000  H
  C85      1.0000 0.69460  0.08600  0.08780  Biso   1.000  C
  H43      1.0000 0.69260  0.04210  0.11600  Biso   1.000  H
  C86      1.0000 0.74940  0.06730  0.04208  Biso   1.000  C
  H44      1.0000 0.78510  0.01170  0.03980  Biso   1.000  H
  C87      1.0000 0.81510  0.11460  0.95194  Biso   1.000  C
  C88      1.0000 0.58470  0.32420  0.05494  Biso   1.000  C
  C89      1.0000 0.05290  0.81860  0.86188  Biso   1.000  C
  C90      1.0000 0.04670  0.80280  0.80616  Biso   1.000  C
  H45      1.0000 0.01900  0.84850  0.78390  Biso   1.000  H
  C91      1.0000 0.08150  0.71980  0.78344  Biso   1.000  C
  C92      1.0000 0.12220  0.65160  0.81670  Biso   1.000  C
  H46      1.0000 0.14530  0.59550  0.80180  Biso   1.000  H
  C93      1.0000 0.12870  0.66730  0.87250  Biso   1.000  C
  H47      1.0000 0.15550  0.62110  0.89480  Biso   1.000  H
  C94      1.0000 0.09550  0.75110  0.89510  Biso   1.000  C
  H48      1.0000 0.10170  0.76210  0.93220  Biso   1.000  H
  C95      1.0000 0.01730  0.90940  0.88633  Biso   1.000  C
  C96      1.0000 0.07480  0.70600  0.72276  Biso   1.000  C
  Co7      1.0000 0.43012  0.40406  0.12672  Biso   1.000  Co
  O49      1.0000 0.30390  0.34270  0.09249  Biso   1.000  O
  O50      1.0000 0.38110  0.44620  0.04455  Biso   1.000  O
  O51      1.0000 0.08600  0.11790  0.98295  Biso   1.000  O
  O52      1.0000 0.03840  0.16850  0.90122  Biso   1.000  O
  O53      1.0000 0.46750  0.53690  0.14380  Biso   1.000  O
  O54      1.0000 0.54110  0.57450  0.06599  Biso   1.000  O
  O55      1.0000 0.55890  0.72450  0.30657  Biso   1.000  O
  O56      1.0000 0.58540  0.87790  0.29436  Biso   1.000  O
  C97      1.0000 0.25070  0.36750  0.00050  Biso   1.000  C
  C98      1.0000 0.19690  0.28470  0.99686  Biso   1.000  C
  H49      1.0000 0.19680  0.24180  0.02560  Biso   1.000  H
  C99      1.0000 0.14340  0.26560  0.95045  Biso   1.000  C
  C100     1.0000 0.14290  0.33120  0.90796  Biso   1.000  C
  H50      1.0000 0.10750  0.31880  0.87660  Biso   1.000  H
  C101     1.0000 0.19460  0.41400  0.91220  Biso   1.000  C
  H51      1.0000 0.19260  0.45790  0.88400  Biso   1.000  H
  C102     1.0000 0.24940  0.43270  0.95792  Biso   1.000  C
  H52      1.0000 0.28510  0.48830  0.96020  Biso   1.000  H
  C103     1.0000 0.31510  0.38540  0.04806  Biso   1.000  C
  C104     1.0000 0.08470  0.17580  0.94506  Biso   1.000  C
  C105     1.0000 0.55290  0.68140  0.13812  Biso   1.000  C
  C106     1.0000 0.54670  0.69720  0.19384  Biso   1.000  C
  H53      1.0000 0.51900  0.65150  0.21610  Biso   1.000  H
  C107     1.0000 0.58150  0.78020  0.21656  Biso   1.000  C
  C108     1.0000 0.62220  0.84840  0.18330  Biso   1.000  C
  H54      1.0000 0.64530  0.90450  0.19820  Biso   1.000  H
  C109     1.0000 0.62870  0.83270  0.12750  Biso   1.000  C
  H55      1.0000 0.65550  0.87890  0.10520  Biso   1.000  H
  C110     1.0000 0.59550  0.74890  0.10490  Biso   1.000  C
  H56      1.0000 0.60170  0.73790  0.06780  Biso   1.000  H
  C111     1.0000 0.51730  0.59060  0.11367  Biso   1.000  C
  C112     1.0000 0.57480  0.79400  0.27724  Biso   1.000  C
  Co8      1.0000 0.06988  0.59594  0.62672  Biso   1.000  Co
  O57      1.0000 0.19610  0.65730  0.59249  Biso   1.000  O
  O58      1.0000 0.11890  0.55380  0.54455  Biso   1.000  O
  O59      1.0000 0.41400  0.88210  0.48295  Biso   1.000  O
  O60      1.0000 0.46160  0.83150  0.40122  Biso   1.000  O
  O61      1.0000 0.03250  0.46310  0.64380  Biso   1.000  O
  O62      1.0000 0.95890  0.42550  0.56599  Biso   1.000  O
  O63      1.0000 0.94110  0.27550  0.80657  Biso   1.000  O
  O64      1.0000 0.91460  0.12210  0.79436  Biso   1.000  O
  C113     1.0000 0.24930  0.63250  0.50050  Biso   1.000  C
  C114     1.0000 0.30310  0.71530  0.49686  Biso   1.000  C
  H57      1.0000 0.30320  0.75820  0.52560  Biso   1.000  H
  C115     1.0000 0.35660  0.73440  0.45045  Biso   1.000  C
  C116     1.0000 0.35710  0.66880  0.40796  Biso   1.000  C
  H58      1.0000 0.39250  0.68120  0.37660  Biso   1.000  H
  C117     1.0000 0.30540  0.58600  0.41220  Biso   1.000  C
  H59      1.0000 0.30740  0.54210  0.38400  Biso   1.000  H
  C118     1.0000 0.25060  0.56730  0.45792  Biso   1.000  C
  H60      1.0000 0.21490  0.51170  0.46020  Biso   1.000  H
  C119     1.0000 0.18490  0.61460  0.54806  Biso   1.000  C
  C120     1.0000 0.41530  0.82420  0.44506  Biso   1.000  C
  C121     1.0000 0.94710  0.31860  0.63812  Biso   1.000  C
  C122     1.0000 0.95330  0.30280  0.69384  Biso   1.000  C
  H61      1.0000 0.98100  0.34850  0.71610  Biso   1.000  H
  C123     1.0000 0.91850  0.21980  0.71656  Biso   1.000  C
  C124     1.0000 0.87780  0.15160  0.68330  Biso   1.000  C
  H62      1.0000 0.85470  0.09550  0.69820  Biso   1.000  H
  C125     1.0000 0.87130  0.16730  0.62750  Biso   1.000  C
  H63      1.0000 0.84450  0.12110  0.60520  Biso   1.000  H
  C126     1.0000 0.90450  0.25110  0.60490  Biso   1.000  C
  H64      1.0000 0.89830  0.26210  0.56780  Biso   1.000  H
  C127     1.0000 0.98270  0.40940  0.61367  Biso   1.000  C
  C128     1.0000 0.92520  0.20600  0.77724  Biso   1.000  C
  Co9      1.0000 0.50000  0.00000  0.50000  Biso   1.000  Co
  Co10     1.0000 0.00000  0.00000  0.00000  Biso   1.000  Co
  Co11     1.0000 0.50000  0.50000  0.00000  Biso   1.000  Co
  Co12     1.0000 0.00000  0.50000  0.50000  Biso   1.000  Co
