data_image0
_cell_length_a       16.4011
_cell_length_b       7.1786
_cell_length_c       14.2586
_cell_angle_alpha    90
_cell_angle_beta     90
_cell_angle_gamma    90

_symmetry_space_group_name_H-M    "P 1"
_symmetry_int_tables_number       1

loop_
  _symmetry_equiv_pos_as_xyz
  'x, y, z'

loop_
  _atom_site_label
  _atom_site_occupancy
  _atom_site_fract_x
  _atom_site_fract_y
  _atom_site_fract_z
  _atom_site_thermal_displace_type
  _atom_site_B_iso_or_equiv
  _atom_site_type_symbol
  O1       1.0000 0.59187  0.56111  0.73336  Biso   1.000  O
  O2       1.0000 0.54019  0.80989  0.65830  Biso   1.000  O
  O3       1.0000 0.56026  0.63816  0.46344  Biso   1.000  O
  O4       1.0000 0.58410  0.94104  0.43363  Biso   1.000  O
  C1       1.0000 0.67589  0.71908  0.62452  Biso   1.000  C
  C2       1.0000 0.67626  0.77558  0.53074  Biso   1.000  C
  C3       1.0000 0.59580  0.69471  0.67606  Biso   1.000  C
  C4       1.0000 0.59980  0.78639  0.47228  Biso   1.000  C
  O5       1.0000 0.09187  0.06111  0.23336  Biso   1.000  O
  O6       1.0000 0.04019  0.30989  0.15830  Biso   1.000  O
  O7       1.0000 0.06026  0.13816  0.96344  Biso   1.000  O
  O8       1.0000 0.08410  0.44104  0.93363  Biso   1.000  O
  C5       1.0000 0.17589  0.21908  0.12452  Biso   1.000  C
  C6       1.0000 0.17626  0.27558  0.03074  Biso   1.000  C
  C7       1.0000 0.09580  0.19471  0.17606  Biso   1.000  C
  C8       1.0000 0.09980  0.28639  0.97228  Biso   1.000  C
  O9       1.0000 0.40813  0.43889  0.73336  Biso   1.000  O
  O10      1.0000 0.45981  0.19011  0.65830  Biso   1.000  O
  O11      1.0000 0.43974  0.36184  0.46344  Biso   1.000  O
  O12      1.0000 0.41590  0.05896  0.43363  Biso   1.000  O
  C9       1.0000 0.32411  0.28092  0.62452  Biso   1.000  C
  C10      1.0000 0.32374  0.22442  0.53074  Biso   1.000  C
  C11      1.0000 0.40420  0.30529  0.67606  Biso   1.000  C
  C12      1.0000 0.40020  0.21361  0.47228  Biso   1.000  C
  O13      1.0000 0.90813  0.93889  0.23336  Biso   1.000  O
  O14      1.0000 0.95981  0.69011  0.15830  Biso   1.000  O
  O15      1.0000 0.93974  0.86184  0.96344  Biso   1.000  O
  O16      1.0000 0.91590  0.55896  0.93363  Biso   1.000  O
  C13      1.0000 0.82411  0.78092  0.12452  Biso   1.000  C
  C14      1.0000 0.82374  0.72442  0.03074  Biso   1.000  C
  C15      1.0000 0.90420  0.80529  0.17606  Biso   1.000  C
  C16      1.0000 0.90020  0.71361  0.97228  Biso   1.000  C
  O17      1.0000 0.09187  0.43889  0.73336  Biso   1.000  O
  O18      1.0000 0.04019  0.19011  0.65830  Biso   1.000  O
  O19      1.0000 0.06026  0.36184  0.46344  Biso   1.000  O
  O20      1.0000 0.08410  0.05896  0.43363  Biso   1.000  O
  C17      1.0000 0.17589  0.28092  0.62452  Biso   1.000  C
  C18      1.0000 0.17626  0.22442  0.53074  Biso   1.000  C
  C19      1.0000 0.09580  0.30529  0.67606  Biso   1.000  C
  C20      1.0000 0.09980  0.21361  0.47228  Biso   1.000  C
  O21      1.0000 0.59187  0.93889  0.23336  Biso   1.000  O
  O22      1.0000 0.54019  0.69011  0.15830  Biso   1.000  O
  O23      1.0000 0.56026  0.86184  0.96344  Biso   1.000  O
  O24      1.0000 0.58410  0.55896  0.93363  Biso   1.000  O
  C21      1.0000 0.67589  0.78092  0.12452  Biso   1.000  C
  C22      1.0000 0.67626  0.72442  0.03074  Biso   1.000  C
  C23      1.0000 0.59580  0.80529  0.17606  Biso   1.000  C
  C24      1.0000 0.59980  0.71361  0.97228  Biso   1.000  C
  O25      1.0000 0.90813  0.56111  0.73336  Biso   1.000  O
  O26      1.0000 0.95981  0.80989  0.65830  Biso   1.000  O
  O27      1.0000 0.93974  0.63816  0.46344  Biso   1.000  O
  O28      1.0000 0.91590  0.94104  0.43363  Biso   1.000  O
  C25      1.0000 0.82411  0.71908  0.62452  Biso   1.000  C
  C26      1.0000 0.82374  0.77558  0.53074  Biso   1.000  C
  C27      1.0000 0.90420  0.69471  0.67606  Biso   1.000  C
  C28      1.0000 0.90020  0.78639  0.47228  Biso   1.000  C
  O29      1.0000 0.40813  0.06111  0.23336  Biso   1.000  O
  O30      1.0000 0.45981  0.30989  0.15830  Biso   1.000  O
  O31      1.0000 0.43974  0.13816  0.96344  Biso   1.000  O
  O32      1.0000 0.41590  0.44104  0.93363  Biso   1.000  O
  C29      1.0000 0.32411  0.21908  0.12452  Biso   1.000  C
  C30      1.0000 0.32374  0.27558  0.03074  Biso   1.000  C
  C31      1.0000 0.40420  0.19471  0.17606  Biso   1.000  C
  C32      1.0000 0.40020  0.28639  0.97228  Biso   1.000  C
  Co1      1.0000 0.50000  0.50000  0.82749  Biso   1.000  Co
  Co2      1.0000 0.00000  0.00000  0.32749  Biso   1.000  Co
  Co3      1.0000 0.00000  0.50000  0.82749  Biso   1.000  Co
  Co4      1.0000 0.50000  0.00000  0.32749  Biso   1.000  Co
  C33      1.0000 0.75000  0.69080  0.67061  Biso   1.000  C
  H1       1.0000 0.75000  0.65170  0.73430  Biso   1.000  H
  C34      1.0000 0.75000  0.80560  0.48435  Biso   1.000  C
  H2       1.0000 0.75000  0.84650  0.42100  Biso   1.000  H
  C35      1.0000 0.25000  0.19080  0.17061  Biso   1.000  C
  H3       1.0000 0.25000  0.15170  0.23430  Biso   1.000  H
  C36      1.0000 0.25000  0.30560  0.98435  Biso   1.000  C
  H4       1.0000 0.25000  0.34650  0.92100  Biso   1.000  H
  C37      1.0000 0.25000  0.30920  0.67061  Biso   1.000  C
  H5       1.0000 0.25000  0.34830  0.73430  Biso   1.000  H
  C38      1.0000 0.25000  0.19440  0.48435  Biso   1.000  C
  H6       1.0000 0.25000  0.15350  0.42100  Biso   1.000  H
  C39      1.0000 0.75000  0.80920  0.17061  Biso   1.000  C
  H7       1.0000 0.75000  0.84830  0.23430  Biso   1.000  H
  C40      1.0000 0.75000  0.69440  0.98435  Biso   1.000  C
  H8       1.0000 0.75000  0.65350  0.92100  Biso   1.000  H
