data_image0
_cell_length_a       16.7667
_cell_length_b       16.7667
_cell_length_c       16.7667
_cell_angle_alpha    90
_cell_angle_beta     90
_cell_angle_gamma    90

_symmetry_space_group_name_H-M    "P 1"
_symmetry_int_tables_number       1

loop_
  _symmetry_equiv_pos_as_xyz
  'x, y, z'

loop_
  _atom_site_label
  _atom_site_occupancy
  _atom_site_fract_x
  _atom_site_fract_y
  _atom_site_fract_z
  _atom_site_thermal_displace_type
  _atom_site_B_iso_or_equiv
  _atom_site_type_symbol
  O1       1.0000 0.09225  0.52284  0.19480  Biso   1.000  O
  O2       1.0000 0.59225  0.02284  0.69480  Biso   1.000  O
  O3       1.0000 0.90775  0.47716  0.19480  Biso   1.000  O
  O4       1.0000 0.40775  0.97716  0.69480  Biso   1.000  O
  O5       1.0000 0.90775  0.52284  0.80520  Biso   1.000  O
  O6       1.0000 0.40775  0.02284  0.30520  Biso   1.000  O
  O7       1.0000 0.09225  0.47716  0.80520  Biso   1.000  O
  O8       1.0000 0.59225  0.97716  0.30520  Biso   1.000  O
  O9       1.0000 0.19480  0.09225  0.52284  Biso   1.000  O
  O10      1.0000 0.69480  0.59225  0.02284  Biso   1.000  O
  O11      1.0000 0.19480  0.90775  0.47716  Biso   1.000  O
  O12      1.0000 0.69480  0.40775  0.97716  Biso   1.000  O
  O13      1.0000 0.80520  0.90775  0.52284  Biso   1.000  O
  O14      1.0000 0.30520  0.40775  0.02284  Biso   1.000  O
  O15      1.0000 0.80520  0.09225  0.47716  Biso   1.000  O
  O16      1.0000 0.30520  0.59225  0.97716  Biso   1.000  O
  O17      1.0000 0.52284  0.19480  0.09225  Biso   1.000  O
  O18      1.0000 0.02284  0.69480  0.59225  Biso   1.000  O
  O19      1.0000 0.47716  0.19480  0.90775  Biso   1.000  O
  O20      1.0000 0.97716  0.69480  0.40775  Biso   1.000  O
  O21      1.0000 0.52284  0.80520  0.90775  Biso   1.000  O
  O22      1.0000 0.02284  0.30520  0.40775  Biso   1.000  O
  O23      1.0000 0.47716  0.80520  0.09225  Biso   1.000  O
  O24      1.0000 0.97716  0.30520  0.59225  Biso   1.000  O
  O25      1.0000 0.52284  0.09225  0.19480  Biso   1.000  O
  O26      1.0000 0.02284  0.59225  0.69480  Biso   1.000  O
  O27      1.0000 0.47716  0.90775  0.19480  Biso   1.000  O
  O28      1.0000 0.97716  0.40775  0.69480  Biso   1.000  O
  O29      1.0000 0.52284  0.90775  0.80520  Biso   1.000  O
  O30      1.0000 0.02284  0.40775  0.30520  Biso   1.000  O
  O31      1.0000 0.47716  0.09225  0.80520  Biso   1.000  O
  O32      1.0000 0.97716  0.59225  0.30520  Biso   1.000  O
  O33      1.0000 0.09225  0.19480  0.52284  Biso   1.000  O
  O34      1.0000 0.59225  0.69480  0.02284  Biso   1.000  O
  O35      1.0000 0.90775  0.19480  0.47716  Biso   1.000  O
  O36      1.0000 0.40775  0.69480  0.97716  Biso   1.000  O
  O37      1.0000 0.90775  0.80520  0.52284  Biso   1.000  O
  O38      1.0000 0.40775  0.30520  0.02284  Biso   1.000  O
  O39      1.0000 0.09225  0.80520  0.47716  Biso   1.000  O
  O40      1.0000 0.59225  0.30520  0.97716  Biso   1.000  O
  O41      1.0000 0.19480  0.52284  0.09225  Biso   1.000  O
  O42      1.0000 0.69480  0.02284  0.59225  Biso   1.000  O
  O43      1.0000 0.19480  0.47716  0.90775  Biso   1.000  O
  O44      1.0000 0.69480  0.97716  0.40775  Biso   1.000  O
  O45      1.0000 0.80520  0.52284  0.90775  Biso   1.000  O
  O46      1.0000 0.30520  0.02284  0.40775  Biso   1.000  O
  O47      1.0000 0.80520  0.47716  0.09225  Biso   1.000  O
  O48      1.0000 0.30520  0.97716  0.59225  Biso   1.000  O
  Mg1      1.0000 0.00000  0.50000  0.25000  Biso   1.000  Mg
  Mg2      1.0000 0.00000  0.50000  0.75000  Biso   1.000  Mg
  Mg3      1.0000 0.50000  0.00000  0.25000  Biso   1.000  Mg
  Mg4      1.0000 0.25000  0.00000  0.50000  Biso   1.000  Mg
  Mg5      1.0000 0.75000  0.00000  0.50000  Biso   1.000  Mg
  Mg6      1.0000 0.25000  0.50000  0.00000  Biso   1.000  Mg
  Mg7      1.0000 0.50000  0.25000  0.00000  Biso   1.000  Mg
  Mg8      1.0000 0.50000  0.75000  0.00000  Biso   1.000  Mg
  Mg9      1.0000 0.00000  0.25000  0.50000  Biso   1.000  Mg
  Mg10     1.0000 0.50000  0.00000  0.75000  Biso   1.000  Mg
  Mg11     1.0000 0.00000  0.75000  0.50000  Biso   1.000  Mg
  Mg12     1.0000 0.75000  0.50000  0.00000  Biso   1.000  Mg
  Mg13     1.0000 0.00000  0.50000  0.00000  Biso   1.000  Mg
  Mg14     1.0000 0.50000  0.00000  0.50000  Biso   1.000  Mg
  Mg15     1.0000 0.00000  0.00000  0.50000  Biso   1.000  Mg
  Mg16     1.0000 0.50000  0.50000  0.00000  Biso   1.000  Mg
  Mg17     1.0000 0.50000  0.00000  0.00000  Biso   1.000  Mg
  Mg18     1.0000 0.00000  0.50000  0.50000  Biso   1.000  Mg
  P1       1.0000 0.12193  0.56890  0.12193  Biso   1.000  P
  O49      1.0000 0.14294  0.65380  0.14294  Biso   1.000  O
  O50      1.0000 0.05710  0.56580  0.05710  Biso   1.000  O
  P2       1.0000 0.62193  0.06890  0.62193  Biso   1.000  P
  O51      1.0000 0.64294  0.15380  0.64294  Biso   1.000  O
  O52      1.0000 0.55710  0.06580  0.55710  Biso   1.000  O
  P3       1.0000 0.87807  0.43110  0.12193  Biso   1.000  P
  O53      1.0000 0.85706  0.34620  0.14294  Biso   1.000  O
  O54      1.0000 0.94290  0.43420  0.05710  Biso   1.000  O
  P4       1.0000 0.37807  0.93110  0.62193  Biso   1.000  P
  O55      1.0000 0.35706  0.84620  0.64294  Biso   1.000  O
  O56      1.0000 0.44290  0.93420  0.55710  Biso   1.000  O
  P5       1.0000 0.87807  0.56890  0.87807  Biso   1.000  P
  O57      1.0000 0.85706  0.65380  0.85706  Biso   1.000  O
  O58      1.0000 0.94290  0.56580  0.94290  Biso   1.000  O
  P6       1.0000 0.37807  0.06890  0.37807  Biso   1.000  P
  O59      1.0000 0.35706  0.15380  0.35706  Biso   1.000  O
  O60      1.0000 0.44290  0.06580  0.44290  Biso   1.000  O
  P7       1.0000 0.12193  0.43110  0.87807  Biso   1.000  P
  O61      1.0000 0.14294  0.34620  0.85706  Biso   1.000  O
  O62      1.0000 0.05710  0.43420  0.94290  Biso   1.000  O
  P8       1.0000 0.62193  0.93110  0.37807  Biso   1.000  P
  O63      1.0000 0.64294  0.84620  0.35706  Biso   1.000  O
  O64      1.0000 0.55710  0.93420  0.44290  Biso   1.000  O
  P9       1.0000 0.12193  0.12193  0.56890  Biso   1.000  P
  O65      1.0000 0.14294  0.14294  0.65380  Biso   1.000  O
  O66      1.0000 0.05710  0.05710  0.56580  Biso   1.000  O
  P10      1.0000 0.62193  0.62193  0.06890  Biso   1.000  P
  O67      1.0000 0.64294  0.64294  0.15380  Biso   1.000  O
  O68      1.0000 0.55710  0.55710  0.06580  Biso   1.000  O
  P11      1.0000 0.12193  0.87807  0.43110  Biso   1.000  P
  O69      1.0000 0.14294  0.85706  0.34620  Biso   1.000  O
  O70      1.0000 0.05710  0.94290  0.43420  Biso   1.000  O
  P12      1.0000 0.62193  0.37807  0.93110  Biso   1.000  P
  O71      1.0000 0.64294  0.35706  0.84620  Biso   1.000  O
  O72      1.0000 0.55710  0.44290  0.93420  Biso   1.000  O
  P13      1.0000 0.87807  0.87807  0.56890  Biso   1.000  P
  O73      1.0000 0.85706  0.85706  0.65380  Biso   1.000  O
  O74      1.0000 0.94290  0.94290  0.56580  Biso   1.000  O
  P14      1.0000 0.37807  0.37807  0.06890  Biso   1.000  P
  O75      1.0000 0.35706  0.35706  0.15380  Biso   1.000  O
  O76      1.0000 0.44290  0.44290  0.06580  Biso   1.000  O
  P15      1.0000 0.87807  0.12193  0.43110  Biso   1.000  P
  O77      1.0000 0.85706  0.14294  0.34620  Biso   1.000  O
  O78      1.0000 0.94290  0.05710  0.43420  Biso   1.000  O
  P16      1.0000 0.37807  0.62193  0.93110  Biso   1.000  P
  O79      1.0000 0.35706  0.64294  0.84620  Biso   1.000  O
  O80      1.0000 0.44290  0.55710  0.93420  Biso   1.000  O
  P17      1.0000 0.56890  0.12193  0.12193  Biso   1.000  P
  O81      1.0000 0.65380  0.14294  0.14294  Biso   1.000  O
  O82      1.0000 0.56580  0.05710  0.05710  Biso   1.000  O
  P18      1.0000 0.06890  0.62193  0.62193  Biso   1.000  P
  O83      1.0000 0.15380  0.64294  0.64294  Biso   1.000  O
  O84      1.0000 0.06580  0.55710  0.55710  Biso   1.000  O
  P19      1.0000 0.43110  0.12193  0.87807  Biso   1.000  P
  O85      1.0000 0.34620  0.14294  0.85706  Biso   1.000  O
  O86      1.0000 0.43420  0.05710  0.94290  Biso   1.000  O
  P20      1.0000 0.93110  0.62193  0.37807  Biso   1.000  P
  O87      1.0000 0.84620  0.64294  0.35706  Biso   1.000  O
  O88      1.0000 0.93420  0.55710  0.44290  Biso   1.000  O
  P21      1.0000 0.56890  0.87807  0.87807  Biso   1.000  P
  O89      1.0000 0.65380  0.85706  0.85706  Biso   1.000  O
  O90      1.0000 0.56580  0.94290  0.94290  Biso   1.000  O
  P22      1.0000 0.06890  0.37807  0.37807  Biso   1.000  P
  O91      1.0000 0.15380  0.35706  0.35706  Biso   1.000  O
  O92      1.0000 0.06580  0.44290  0.44290  Biso   1.000  O
  P23      1.0000 0.43110  0.87807  0.12193  Biso   1.000  P
  O93      1.0000 0.34620  0.85706  0.14294  Biso   1.000  O
  O94      1.0000 0.43420  0.94290  0.05710  Biso   1.000  O
  P24      1.0000 0.93110  0.37807  0.62193  Biso   1.000  P
  O95      1.0000 0.84620  0.35706  0.64294  Biso   1.000  O
  O96      1.0000 0.93420  0.44290  0.55710  Biso   1.000  O
