data_image0
_cell_length_a       10.984
_cell_length_b       16.101
_cell_length_c       19.692
_cell_angle_alpha    74.149
_cell_angle_beta     74.035
_cell_angle_gamma    72.054

_symmetry_space_group_name_H-M    "P 1"
_symmetry_int_tables_number       1

loop_
  _symmetry_equiv_pos_as_xyz
  'x, y, z'

loop_
  _atom_site_label
  _atom_site_occupancy
  _atom_site_fract_x
  _atom_site_fract_y
  _atom_site_fract_z
  _atom_site_thermal_displace_type
  _atom_site_B_iso_or_equiv
  _atom_site_type_symbol
  Eu1      1.0000 0.39854  0.90186  0.23900  Biso   1.000  Eu
  Eu2      1.0000 0.94380  0.17628  0.22658  Biso   1.000  Eu
  O1       1.0000 0.33210  0.76520  0.32000  Biso   1.000  O
  O2       1.0000 0.31950  0.87410  0.37150  Biso   1.000  O
  O3       1.0000 0.13620  0.83830  0.64120  Biso   1.000  O
  O4       1.0000 0.08830  0.71030  0.70110  Biso   1.000  O
  O5       1.0000 0.98930  0.02370  0.24300  Biso   1.000  O
  O6       1.0000 0.59610  0.93580  0.25060  Biso   1.000  O
  O7       1.0000 0.59640  0.79460  0.27970  Biso   1.000  O
  O8       1.0000 0.13340  0.14070  0.27780  Biso   1.000  O
  O9       1.0000 0.32660  0.04260  0.27330  Biso   1.000  O
  O10      1.0000 0.72790  0.13700  0.25170  Biso   1.000  O
  O11      1.0000 0.71950  0.27910  0.22660  Biso   1.000  O
  O12      1.0000 0.05430  0.28940  0.13940  Biso   1.000  O
  O13      1.0000 0.14340  0.15060  0.12690  Biso   1.000  O
  O14      1.0000 0.41700  0.13110  0.87210  Biso   1.000  O
  O15      1.0000 0.57580  0.20110  0.83850  Biso   1.000  O
  C1       1.0000 0.29760  0.79800  0.37480  Biso   1.000  C
  C2       1.0000 0.22770  0.75170  0.44460  Biso   1.000  C
  C3       1.0000 0.20690  0.77930  0.50900  Biso   1.000  C
  H1       1.0000 0.23610  0.82770  0.50930  Biso   1.000  H
  C4       1.0000 0.14300  0.73470  0.57230  Biso   1.000  C
  C5       1.0000 0.09430  0.66510  0.57030  Biso   1.000  C
  H2       1.0000 0.04930  0.63600  0.61280  Biso   1.000  H
  C6       1.0000 0.11130  0.63820  0.50630  Biso   1.000  C
  C7       1.0000 0.17990  0.68090  0.44360  Biso   1.000  C
  H3       1.0000 0.19430  0.66260  0.40050  Biso   1.000  H
  C8       1.0000 0.12240  0.76220  0.64240  Biso   1.000  C
  C9       1.0000 0.05520  0.56690  0.50360  Biso   1.000  C
  C10      1.0000 0.00970  0.57050  0.44450  Biso   1.000  C
  H4       1.0000 0.01310  0.61920  0.40620  Biso   1.000  H
  C11      1.0000 0.04040  0.49490  0.56020  Biso   1.000  C
  H5       1.0000 0.06540  0.49110  0.60260  Biso   1.000  H
  C12      1.0000 0.05920  0.94650  0.24400  Biso   1.000  C
  C13      1.0000 0.99450  0.87410  0.24900  Biso   1.000  C
  C14      1.0000 0.85950  0.89580  0.25470  Biso   1.000  C
  H6       1.0000 0.81050  0.95430  0.25460  Biso   1.000  H
  C15      1.0000 0.79860  0.82970  0.26050  Biso   1.000  C
  C16      1.0000 0.87280  0.74250  0.26000  Biso   1.000  C
  H7       1.0000 0.83050  0.69850  0.26550  Biso   1.000  H
  C17      1.0000 0.01160  0.71840  0.25140  Biso   1.000  C
  C18      1.0000 0.06980  0.78590  0.24700  Biso   1.000  C
  H8       1.0000 0.15990  0.77250  0.24260  Biso   1.000  H
  C19      1.0000 0.65510  0.85480  0.26420  Biso   1.000  C
  C20      1.0000 0.08790  0.62480  0.24960  Biso   1.000  C
  C21      1.0000 0.03780  0.56350  0.23530  Biso   1.000  C
  H9       1.0000 0.95530  0.58170  0.22430  Biso   1.000  H
  C22      1.0000 0.10930  0.47550  0.23740  Biso   1.000  C
  H10      1.0000 0.07180  0.43590  0.22880  Biso   1.000  H
  C23      1.0000 0.23310  0.44440  0.25150  Biso   1.000  C
  C24      1.0000 0.28480  0.50700  0.26340  Biso   1.000  C
  H11      1.0000 0.36880  0.48870  0.27250  Biso   1.000  H
  C25      1.0000 0.21680  0.59530  0.26200  Biso   1.000  C
  H12      1.0000 0.25560  0.63510  0.26930  Biso   1.000  H
  C26      1.0000 0.30980  0.34930  0.25450  Biso   1.000  C
  C27      1.0000 0.44440  0.32690  0.24610  Biso   1.000  C
  H13      1.0000 0.48680  0.37160  0.23820  Biso   1.000  H
  C28      1.0000 0.51810  0.23850  0.24930  Biso   1.000  C
  C29      1.0000 0.45650  0.17170  0.25880  Biso   1.000  C
  H14      1.0000 0.50510  0.11280  0.26170  Biso   1.000  H
  C30      1.0000 0.32310  0.19240  0.26400  Biso   1.000  C
  C31      1.0000 0.25200  0.28110  0.26310  Biso   1.000  C
  H15      1.0000 0.16160  0.29480  0.26860  Biso   1.000  H
  C32      1.0000 0.66380  0.21700  0.24140  Biso   1.000  C
  C33      1.0000 0.25640  0.11920  0.27110  Biso   1.000  C
  C34      1.0000 0.14370  0.23160  0.10860  Biso   1.000  C
  C35      1.0000 0.25080  0.25890  0.04910  Biso   1.000  C
  C36      1.0000 0.30700  0.21250  0.99440  Biso   1.000  C
  H16      1.0000 0.27700  0.16470  0.99380  Biso   1.000  H
  C37      1.0000 0.40960  0.23710  0.93950  Biso   1.000  C
  C38      1.0000 0.45250  0.30770  0.94140  Biso   1.000  C
  H17      1.0000 0.51990  0.32420  0.90460  Biso   1.000  H
  C39      1.0000 0.39890  0.35510  0.99600  Biso   1.000  C
  C40      1.0000 0.29480  0.33040  0.04910  Biso   1.000  C
  H18      1.0000 0.25430  0.36300  0.08520  Biso   1.000  H
  C41      1.0000 0.46910  0.18750  0.88040  Biso   1.000  C
  C42      1.0000 0.46140  0.44270  0.06270  Biso   1.000  C
  H19      1.0000 0.43680  0.40390  0.10540  Biso   1.000  H
  C43      1.0000 0.45000  0.42960  0.99700  Biso   1.000  C
  C44      1.0000 0.49110  0.48680  0.93520  Biso   1.000  C
  H20      1.0000 0.48730  0.47880  0.89090  Biso   1.000  H
  O16      1.0000 0.17910  0.92620  0.23910  Biso   1.000  O
  Eu3      1.0000 0.60146  0.09814  0.76100  Biso   1.000  Eu
  Eu4      1.0000 0.05620  0.82372  0.77342  Biso   1.000  Eu
  O17      1.0000 0.66790  0.23480  0.68000  Biso   1.000  O
  O18      1.0000 0.68050  0.12590  0.62850  Biso   1.000  O
  O19      1.0000 0.86380  0.16170  0.35880  Biso   1.000  O
  O20      1.0000 0.91170  0.28970  0.29890  Biso   1.000  O
  O21      1.0000 0.01070  0.97630  0.75700  Biso   1.000  O
  O22      1.0000 0.40390  0.06420  0.74940  Biso   1.000  O
  O23      1.0000 0.40360  0.20540  0.72030  Biso   1.000  O
  O24      1.0000 0.86660  0.85930  0.72220  Biso   1.000  O
  O25      1.0000 0.67340  0.95740  0.72670  Biso   1.000  O
  O26      1.0000 0.27210  0.86300  0.74830  Biso   1.000  O
  O27      1.0000 0.28050  0.72090  0.77340  Biso   1.000  O
  O28      1.0000 0.94570  0.71060  0.86060  Biso   1.000  O
  O29      1.0000 0.85660  0.84940  0.87310  Biso   1.000  O
  O30      1.0000 0.58300  0.86890  0.12790  Biso   1.000  O
  O31      1.0000 0.42420  0.79890  0.16150  Biso   1.000  O
  C45      1.0000 0.70240  0.20200  0.62520  Biso   1.000  C
  C46      1.0000 0.77230  0.24830  0.55540  Biso   1.000  C
  C47      1.0000 0.79310  0.22070  0.49100  Biso   1.000  C
  H21      1.0000 0.76390  0.17230  0.49070  Biso   1.000  H
  C48      1.0000 0.85700  0.26530  0.42770  Biso   1.000  C
  C49      1.0000 0.90570  0.33490  0.42970  Biso   1.000  C
  H22      1.0000 0.95070  0.36400  0.38720  Biso   1.000  H
  C50      1.0000 0.88870  0.36180  0.49370  Biso   1.000  C
  C51      1.0000 0.82010  0.31910  0.55640  Biso   1.000  C
  H23      1.0000 0.80570  0.33740  0.59950  Biso   1.000  H
  C52      1.0000 0.87760  0.23780  0.35760  Biso   1.000  C
  C53      1.0000 0.94480  0.43310  0.49640  Biso   1.000  C
  C54      1.0000 0.99030  0.42950  0.55550  Biso   1.000  C
  H24      1.0000 0.98690  0.38080  0.59380  Biso   1.000  H
  C55      1.0000 0.95960  0.50510  0.43980  Biso   1.000  C
  H25      1.0000 0.93460  0.50890  0.39740  Biso   1.000  H
  C56      1.0000 0.94080  0.05350  0.75600  Biso   1.000  C
  C57      1.0000 0.00550  0.12590  0.75100  Biso   1.000  C
  C58      1.0000 0.14050  0.10420  0.74530  Biso   1.000  C
  H26      1.0000 0.18950  0.04570  0.74540  Biso   1.000  H
  C59      1.0000 0.20140  0.17030  0.73950  Biso   1.000  C
  C60      1.0000 0.12720  0.25750  0.74000  Biso   1.000  C
  H27      1.0000 0.16950  0.30150  0.73450  Biso   1.000  H
  C61      1.0000 0.98840  0.28160  0.74860  Biso   1.000  C
  C62      1.0000 0.93020  0.21410  0.75300  Biso   1.000  C
  H28      1.0000 0.84010  0.22750  0.75740  Biso   1.000  H
  C63      1.0000 0.34490  0.14520  0.73580  Biso   1.000  C
  C64      1.0000 0.91210  0.37520  0.75040  Biso   1.000  C
  C65      1.0000 0.96220  0.43650  0.76470  Biso   1.000  C
  H29      1.0000 0.04470  0.41830  0.77570  Biso   1.000  H
  C66      1.0000 0.89070  0.52450  0.76260  Biso   1.000  C
  H30      1.0000 0.92820  0.56410  0.77120  Biso   1.000  H
  C67      1.0000 0.76690  0.55560  0.74850  Biso   1.000  C
  C68      1.0000 0.71520  0.49300  0.73660  Biso   1.000  C
  H31      1.0000 0.63120  0.51130  0.72750  Biso   1.000  H
  C69      1.0000 0.78320  0.40470  0.73800  Biso   1.000  C
  H32      1.0000 0.74440  0.36490  0.73070  Biso   1.000  H
  C70      1.0000 0.69020  0.65070  0.74550  Biso   1.000  C
  C71      1.0000 0.55560  0.67310  0.75390  Biso   1.000  C
  H33      1.0000 0.51320  0.62840  0.76180  Biso   1.000  H
  C72      1.0000 0.48190  0.76150  0.75070  Biso   1.000  C
  C73      1.0000 0.54350  0.82830  0.74120  Biso   1.000  C
  H34      1.0000 0.49490  0.88720  0.73830  Biso   1.000  H
  C74      1.0000 0.67690  0.80760  0.73600  Biso   1.000  C
  C75      1.0000 0.74800  0.71890  0.73690  Biso   1.000  C
  H35      1.0000 0.83840  0.70520  0.73140  Biso   1.000  H
  C76      1.0000 0.33620  0.78300  0.75860  Biso   1.000  C
  C77      1.0000 0.74360  0.88080  0.72890  Biso   1.000  C
  C78      1.0000 0.85630  0.76840  0.89140  Biso   1.000  C
  C79      1.0000 0.74920  0.74110  0.95090  Biso   1.000  C
  C80      1.0000 0.69300  0.78750  0.00560  Biso   1.000  C
  H36      1.0000 0.72300  0.83530  0.00620  Biso   1.000  H
  C81      1.0000 0.59040  0.76290  0.06050  Biso   1.000  C
  C82      1.0000 0.54750  0.69230  0.05860  Biso   1.000  C
  H37      1.0000 0.48010  0.67580  0.09540  Biso   1.000  H
  C83      1.0000 0.60110  0.64490  0.00400  Biso   1.000  C
  C84      1.0000 0.70520  0.66960  0.95090  Biso   1.000  C
  H38      1.0000 0.74570  0.63700  0.91480  Biso   1.000  H
  C85      1.0000 0.53090  0.81250  0.11960  Biso   1.000  C
  C86      1.0000 0.53860  0.55730  0.93730  Biso   1.000  C
  H39      1.0000 0.56320  0.59610  0.89460  Biso   1.000  H
  C87      1.0000 0.55000  0.57040  0.00300  Biso   1.000  C
  C88      1.0000 0.50890  0.51320  0.06480  Biso   1.000  C
  H40      1.0000 0.51270  0.52120  0.10910  Biso   1.000  H
  O32      1.0000 0.82090  0.07380  0.76090  Biso   1.000  O
