data_image0
_cell_length_a       29.1148
_cell_length_b       16.012
_cell_length_c       16.7097
_cell_angle_alpha    90
_cell_angle_beta     90
_cell_angle_gamma    90

_symmetry_space_group_name_H-M    "P 1"
_symmetry_int_tables_number       1

loop_
  _symmetry_equiv_pos_as_xyz
  'x, y, z'

loop_
  _atom_site_label
  _atom_site_occupancy
  _atom_site_fract_x
  _atom_site_fract_y
  _atom_site_fract_z
  _atom_site_thermal_displace_type
  _atom_site_B_iso_or_equiv
  _atom_site_type_symbol
  Cd1      1.0000 0.45574  0.79545  0.16173  Biso   1.000  Cd
  C1       1.0000 0.63430  0.78260  0.14280  Biso   1.000  C
  H1       1.0000 0.62980  0.79300  0.19760  Biso   1.000  H
  N1       1.0000 0.45672  0.64850  0.16690  Biso   1.000  N
  O1       1.0000 0.54076  0.79560  0.19600  Biso   1.000  O
  C2       1.0000 0.54901  0.78960  0.12260  Biso   1.000  C
  N2       1.0000 0.45506  0.94000  0.16700  Biso   1.000  N
  O2       1.0000 0.87564  0.70860  0.83580  Biso   1.000  O
  O3       1.0000 0.51724  0.79250  0.07220  Biso   1.000  O
  C3       1.0000 0.45380  0.47510  0.17000  Biso   1.000  C
  C4       1.0000 0.45260  0.11380  0.17100  Biso   1.000  C
  O4       1.0000 0.90465  0.71210  0.95340  Biso   1.000  O
  C5       1.0000 0.87150  0.71300  0.90910  Biso   1.000  C
  C6       1.0000 0.68690  0.75730  0.03620  Biso   1.000  C
  C7       1.0000 0.43870  0.60780  0.22870  Biso   1.000  C
  H2       1.0000 0.42740  0.63950  0.27170  Biso   1.000  H
  C8       1.0000 0.45200  0.38410  0.17200  Biso   1.000  C
  C9       1.0000 0.45210  0.20770  0.17210  Biso   1.000  C
  C10      1.0000 0.43990  0.98190  0.23110  Biso   1.000  C
  H3       1.0000 0.43000  0.95140  0.27590  Biso   1.000  H
  C11      1.0000 0.41500  0.33840  0.20350  Biso   1.000  C
  C12      1.0000 0.73470  0.74530  0.00390  Biso   1.000  C
  C13      1.0000 0.82360  0.72450  0.94340  Biso   1.000  C
  C14      1.0000 0.41470  0.25130  0.20240  Biso   1.000  C
  C15      1.0000 0.47020  0.98630  0.10630  Biso   1.000  C
  H4       1.0000 0.48300  0.95880  0.06190  Biso   1.000  H
  C16      1.0000 0.59748  0.77810  0.09380  Biso   1.000  C
  C17      1.0000 0.43550  0.52220  0.23360  Biso   1.000  C
  H5       1.0000 0.42170  0.49620  0.27790  Biso   1.000  H
  C18      1.0000 0.47290  0.51780  0.10690  Biso   1.000  C
  H6       1.0000 0.48540  0.48890  0.06300  Biso   1.000  H
  C19      1.0000 0.47320  0.60560  0.10910  Biso   1.000  C
  H7       1.0000 0.48640  0.63440  0.06570  Biso   1.000  H
  C20      1.0000 0.43830  0.06620  0.23400  Biso   1.000  C
  H8       1.0000 0.42710  0.09260  0.28030  Biso   1.000  H
  C21      1.0000 0.46830  0.07120  0.10510  Biso   1.000  C
  H9       1.0000 0.47780  0.10060  0.05930  Biso   1.000  H
  C22      1.0000 0.78670  0.73060  0.89290  Biso   1.000  C
  H10      1.0000 0.79130  0.72800  0.83730  Biso   1.000  H
  C23      1.0000 0.48960  0.25160  0.14090  Biso   1.000  C
  H11      1.0000 0.51490  0.22250  0.11980  Biso   1.000  H
  C24      1.0000 0.67880  0.77220  0.11440  Biso   1.000  C
  H12      1.0000 0.70370  0.77570  0.15020  Biso   1.000  H
  C25      1.0000 0.48940  0.33730  0.14130  Biso   1.000  C
  H13      1.0000 0.51490  0.36600  0.12050  Biso   1.000  H
  C26      1.0000 0.81560  0.72780  0.02240  Biso   1.000  C
  H14      1.0000 0.84040  0.72190  0.05790  Biso   1.000  H
  C27      1.0000 0.64960  0.74990  0.98640  Biso   1.000  C
  H15      1.0000 0.65430  0.73750  0.93210  Biso   1.000  H
  C28      1.0000 0.74280  0.74060  0.92300  Biso   1.000  C
  H16      1.0000 0.71800  0.74430  0.88720  Biso   1.000  H
  C29      1.0000 0.60500  0.76020  0.01460  Biso   1.000  C
  H17      1.0000 0.58010  0.75490  0.97930  Biso   1.000  H
  C30      1.0000 0.77150  0.73960  0.05360  Biso   1.000  C
  H18      1.0000 0.76730  0.74360  0.10930  Biso   1.000  H
  O5       1.0000 0.33660  0.25160  0.25870  Biso   1.000  O
  C31      1.0000 0.36980  0.21260  0.22960  Biso   1.000  C
  H19      1.0000 0.36670  0.15450  0.22410  Biso   1.000  H
  C32      1.0000 0.36910  0.36950  0.23060  Biso   1.000  C
  H20      1.0000 0.36500  0.42720  0.22300  Biso   1.000  H
  O6       1.0000 0.33600  0.33560  0.26000  Biso   1.000  O
  Cd2      1.0000 0.04426  0.70455  0.66173  Biso   1.000  Cd
  C33      1.0000 0.86570  0.71740  0.64280  Biso   1.000  C
  H21      1.0000 0.87020  0.70700  0.69760  Biso   1.000  H
  N3       1.0000 0.04328  0.85150  0.66690  Biso   1.000  N
  O7       1.0000 0.95924  0.70440  0.69600  Biso   1.000  O
  C34      1.0000 0.95099  0.71040  0.62260  Biso   1.000  C
  N4       1.0000 0.04494  0.56000  0.66700  Biso   1.000  N
  O8       1.0000 0.62436  0.79140  0.33580  Biso   1.000  O
  O9       1.0000 0.98276  0.70750  0.57220  Biso   1.000  O
  C35      1.0000 0.04620  0.02490  0.67000  Biso   1.000  C
  C36      1.0000 0.04740  0.38620  0.67100  Biso   1.000  C
  O10      1.0000 0.59535  0.78790  0.45340  Biso   1.000  O
  C37      1.0000 0.62850  0.78700  0.40910  Biso   1.000  C
  C38      1.0000 0.81310  0.74270  0.53620  Biso   1.000  C
  C39      1.0000 0.06130  0.89220  0.72870  Biso   1.000  C
  H22      1.0000 0.07260  0.86050  0.77170  Biso   1.000  H
  C40      1.0000 0.04800  0.11590  0.67200  Biso   1.000  C
  C41      1.0000 0.04790  0.29230  0.67210  Biso   1.000  C
  C42      1.0000 0.06010  0.51810  0.73110  Biso   1.000  C
  H23      1.0000 0.07000  0.54860  0.77590  Biso   1.000  H
  C43      1.0000 0.08500  0.16160  0.70350  Biso   1.000  C
  C44      1.0000 0.76530  0.75470  0.50390  Biso   1.000  C
  C45      1.0000 0.67640  0.77550  0.44340  Biso   1.000  C
  C46      1.0000 0.08530  0.24870  0.70240  Biso   1.000  C
  C47      1.0000 0.02980  0.51370  0.60630  Biso   1.000  C
  H24      1.0000 0.01700  0.54120  0.56190  Biso   1.000  H
  C48      1.0000 0.90252  0.72190  0.59380  Biso   1.000  C
  C49      1.0000 0.06450  0.97780  0.73360  Biso   1.000  C
  H25      1.0000 0.07830  0.00380  0.77790  Biso   1.000  H
  C50      1.0000 0.02710  0.98220  0.60690  Biso   1.000  C
  H26      1.0000 0.01460  0.01110  0.56300  Biso   1.000  H
  C51      1.0000 0.02680  0.89440  0.60910  Biso   1.000  C
  H27      1.0000 0.01360  0.86560  0.56570  Biso   1.000  H
  C52      1.0000 0.06170  0.43380  0.73400  Biso   1.000  C
  H28      1.0000 0.07290  0.40740  0.78030  Biso   1.000  H
  C53      1.0000 0.03170  0.42880  0.60510  Biso   1.000  C
  H29      1.0000 0.02220  0.39940  0.55930  Biso   1.000  H
  C54      1.0000 0.71330  0.76940  0.39290  Biso   1.000  C
  H30      1.0000 0.70870  0.77200  0.33730  Biso   1.000  H
  C55      1.0000 0.01040  0.24840  0.64090  Biso   1.000  C
  H31      1.0000 0.98510  0.27750  0.61980  Biso   1.000  H
  C56      1.0000 0.82120  0.72780  0.61440  Biso   1.000  C
  H32      1.0000 0.79630  0.72430  0.65020  Biso   1.000  H
  C57      1.0000 0.01060  0.16270  0.64130  Biso   1.000  C
  H33      1.0000 0.98510  0.13400  0.62050  Biso   1.000  H
  C58      1.0000 0.68440  0.77220  0.52240  Biso   1.000  C
  H34      1.0000 0.65960  0.77810  0.55790  Biso   1.000  H
  C59      1.0000 0.85040  0.75010  0.48640  Biso   1.000  C
  H35      1.0000 0.84570  0.76250  0.43210  Biso   1.000  H
  C60      1.0000 0.75720  0.75940  0.42300  Biso   1.000  C
  H36      1.0000 0.78200  0.75570  0.38720  Biso   1.000  H
  C61      1.0000 0.89500  0.73980  0.51460  Biso   1.000  C
  H37      1.0000 0.91990  0.74510  0.47930  Biso   1.000  H
  C62      1.0000 0.72850  0.76040  0.55360  Biso   1.000  C
  H38      1.0000 0.73270  0.75640  0.60930  Biso   1.000  H
  O11      1.0000 0.16340  0.24840  0.75870  Biso   1.000  O
  C63      1.0000 0.13020  0.28740  0.72960  Biso   1.000  C
  H39      1.0000 0.13330  0.34550  0.72410  Biso   1.000  H
  C64      1.0000 0.13090  0.13050  0.73060  Biso   1.000  C
  H40      1.0000 0.13500  0.07280  0.72300  Biso   1.000  H
  O12      1.0000 0.16400  0.16440  0.76000  Biso   1.000  O
  Cd3      1.0000 0.54426  0.79545  0.33827  Biso   1.000  Cd
  C65      1.0000 0.36570  0.78260  0.35720  Biso   1.000  C
  H41      1.0000 0.37020  0.79300  0.30240  Biso   1.000  H
  N5       1.0000 0.54328  0.64850  0.33310  Biso   1.000  N
  O13      1.0000 0.45924  0.79560  0.30400  Biso   1.000  O
  C66      1.0000 0.45099  0.78960  0.37740  Biso   1.000  C
  N6       1.0000 0.54494  0.94000  0.33300  Biso   1.000  N
  O14      1.0000 0.12436  0.70860  0.66420  Biso   1.000  O
  O15      1.0000 0.48276  0.79250  0.42780  Biso   1.000  O
  C67      1.0000 0.54620  0.47510  0.33000  Biso   1.000  C
  C68      1.0000 0.54740  0.11380  0.32900  Biso   1.000  C
  O16      1.0000 0.09535  0.71210  0.54660  Biso   1.000  O
  C69      1.0000 0.12850  0.71300  0.59090  Biso   1.000  C
  C70      1.0000 0.31310  0.75730  0.46380  Biso   1.000  C
  C71      1.0000 0.56130  0.60780  0.27130  Biso   1.000  C
  H42      1.0000 0.57260  0.63950  0.22830  Biso   1.000  H
  C72      1.0000 0.54800  0.38410  0.32800  Biso   1.000  C
  C73      1.0000 0.54790  0.20770  0.32790  Biso   1.000  C
  C74      1.0000 0.56010  0.98190  0.26890  Biso   1.000  C
  H43      1.0000 0.57000  0.95140  0.22410  Biso   1.000  H
  C75      1.0000 0.58500  0.33840  0.29650  Biso   1.000  C
  C76      1.0000 0.26530  0.74530  0.49610  Biso   1.000  C
  C77      1.0000 0.17640  0.72450  0.55660  Biso   1.000  C
  C78      1.0000 0.58530  0.25130  0.29760  Biso   1.000  C
  C79      1.0000 0.52980  0.98630  0.39370  Biso   1.000  C
  H44      1.0000 0.51700  0.95880  0.43810  Biso   1.000  H
  C80      1.0000 0.40252  0.77810  0.40620  Biso   1.000  C
  C81      1.0000 0.56450  0.52220  0.26640  Biso   1.000  C
  H45      1.0000 0.57830  0.49620  0.22210  Biso   1.000  H
  C82      1.0000 0.52710  0.51780  0.39310  Biso   1.000  C
  H46      1.0000 0.51460  0.48890  0.43700  Biso   1.000  H
  C83      1.0000 0.52680  0.60560  0.39090  Biso   1.000  C
  H47      1.0000 0.51360  0.63440  0.43430  Biso   1.000  H
  C84      1.0000 0.56170  0.06620  0.26600  Biso   1.000  C
  H48      1.0000 0.57290  0.09260  0.21970  Biso   1.000  H
  C85      1.0000 0.53170  0.07120  0.39490  Biso   1.000  C
  H49      1.0000 0.52220  0.10060  0.44070  Biso   1.000  H
  C86      1.0000 0.21330  0.73060  0.60710  Biso   1.000  C
  H50      1.0000 0.20870  0.72800  0.66270  Biso   1.000  H
  C87      1.0000 0.51040  0.25160  0.35910  Biso   1.000  C
  H51      1.0000 0.48510  0.22250  0.38020  Biso   1.000  H
  C88      1.0000 0.32120  0.77220  0.38560  Biso   1.000  C
  H52      1.0000 0.29630  0.77570  0.34980  Biso   1.000  H
  C89      1.0000 0.51060  0.33730  0.35870  Biso   1.000  C
  H53      1.0000 0.48510  0.36600  0.37950  Biso   1.000  H
  C90      1.0000 0.18440  0.72780  0.47760  Biso   1.000  C
  H54      1.0000 0.15960  0.72190  0.44210  Biso   1.000  H
  C91      1.0000 0.35040  0.74990  0.51360  Biso   1.000  C
  H55      1.0000 0.34570  0.73750  0.56790  Biso   1.000  H
  C92      1.0000 0.25720  0.74060  0.57700  Biso   1.000  C
  H56      1.0000 0.28200  0.74430  0.61280  Biso   1.000  H
  C93      1.0000 0.39500  0.76020  0.48540  Biso   1.000  C
  H57      1.0000 0.41990  0.75490  0.52070  Biso   1.000  H
  C94      1.0000 0.22850  0.73960  0.44640  Biso   1.000  C
  H58      1.0000 0.23270  0.74360  0.39070  Biso   1.000  H
  O17      1.0000 0.66340  0.25160  0.24130  Biso   1.000  O
  C95      1.0000 0.63020  0.21260  0.27040  Biso   1.000  C
  H59      1.0000 0.63330  0.15450  0.27590  Biso   1.000  H
  C96      1.0000 0.63090  0.36950  0.26940  Biso   1.000  C
  H60      1.0000 0.63500  0.42720  0.27700  Biso   1.000  H
  O18      1.0000 0.66400  0.33560  0.24000  Biso   1.000  O
  Cd4      1.0000 0.95574  0.70455  0.83827  Biso   1.000  Cd
  C97      1.0000 0.13430  0.71740  0.85720  Biso   1.000  C
  H61      1.0000 0.12980  0.70700  0.80240  Biso   1.000  H
  N7       1.0000 0.95672  0.85150  0.83310  Biso   1.000  N
  O19      1.0000 0.04076  0.70440  0.80400  Biso   1.000  O
  C98      1.0000 0.04901  0.71040  0.87740  Biso   1.000  C
  N8       1.0000 0.95506  0.56000  0.83300  Biso   1.000  N
  O20      1.0000 0.37564  0.79140  0.16420  Biso   1.000  O
  O21      1.0000 0.01724  0.70750  0.92780  Biso   1.000  O
  C99      1.0000 0.95380  0.02490  0.83000  Biso   1.000  C
  C100     1.0000 0.95260  0.38620  0.82900  Biso   1.000  C
  O22      1.0000 0.40465  0.78790  0.04660  Biso   1.000  O
  C101     1.0000 0.37150  0.78700  0.09090  Biso   1.000  C
  C102     1.0000 0.18690  0.74270  0.96380  Biso   1.000  C
  C103     1.0000 0.93870  0.89220  0.77130  Biso   1.000  C
  H62      1.0000 0.92740  0.86050  0.72830  Biso   1.000  H
  C104     1.0000 0.95200  0.11590  0.82800  Biso   1.000  C
  C105     1.0000 0.95210  0.29230  0.82790  Biso   1.000  C
  C106     1.0000 0.93990  0.51810  0.76890  Biso   1.000  C
  H63      1.0000 0.93000  0.54860  0.72410  Biso   1.000  H
  C107     1.0000 0.91500  0.16160  0.79650  Biso   1.000  C
  C108     1.0000 0.23470  0.75470  0.99610  Biso   1.000  C
  C109     1.0000 0.32360  0.77550  0.05660  Biso   1.000  C
  C110     1.0000 0.91470  0.24870  0.79760  Biso   1.000  C
  C111     1.0000 0.97020  0.51370  0.89370  Biso   1.000  C
  H64      1.0000 0.98300  0.54120  0.93810  Biso   1.000  H
  C112     1.0000 0.09748  0.72190  0.90620  Biso   1.000  C
  C113     1.0000 0.93550  0.97780  0.76640  Biso   1.000  C
  H65      1.0000 0.92170  0.00380  0.72210  Biso   1.000  H
  C114     1.0000 0.97290  0.98220  0.89310  Biso   1.000  C
  H66      1.0000 0.98540  0.01110  0.93700  Biso   1.000  H
  C115     1.0000 0.97320  0.89440  0.89090  Biso   1.000  C
  H67      1.0000 0.98640  0.86560  0.93430  Biso   1.000  H
  C116     1.0000 0.93830  0.43380  0.76600  Biso   1.000  C
  H68      1.0000 0.92710  0.40740  0.71970  Biso   1.000  H
  C117     1.0000 0.96830  0.42880  0.89490  Biso   1.000  C
  H69      1.0000 0.97780  0.39940  0.94070  Biso   1.000  H
  C118     1.0000 0.28670  0.76940  0.10710  Biso   1.000  C
  H70      1.0000 0.29130  0.77200  0.16270  Biso   1.000  H
  C119     1.0000 0.98960  0.24840  0.85910  Biso   1.000  C
  H71      1.0000 0.01490  0.27750  0.88020  Biso   1.000  H
  C120     1.0000 0.17880  0.72780  0.88560  Biso   1.000  C
  H72      1.0000 0.20370  0.72430  0.84980  Biso   1.000  H
  C121     1.0000 0.98940  0.16270  0.85870  Biso   1.000  C
  H73      1.0000 0.01490  0.13400  0.87950  Biso   1.000  H
  C122     1.0000 0.31560  0.77220  0.97760  Biso   1.000  C
  H74      1.0000 0.34040  0.77810  0.94210  Biso   1.000  H
  C123     1.0000 0.14960  0.75010  0.01360  Biso   1.000  C
  H75      1.0000 0.15430  0.76250  0.06790  Biso   1.000  H
  C124     1.0000 0.24280  0.75940  0.07700  Biso   1.000  C
  H76      1.0000 0.21800  0.75570  0.11280  Biso   1.000  H
  C125     1.0000 0.10500  0.73980  0.98540  Biso   1.000  C
  H77      1.0000 0.08010  0.74510  0.02070  Biso   1.000  H
  C126     1.0000 0.27150  0.76040  0.94640  Biso   1.000  C
  H78      1.0000 0.26730  0.75640  0.89070  Biso   1.000  H
  O23      1.0000 0.83660  0.24840  0.74130  Biso   1.000  O
  C127     1.0000 0.86980  0.28740  0.77040  Biso   1.000  C
  H79      1.0000 0.86670  0.34550  0.77590  Biso   1.000  H
  C128     1.0000 0.86910  0.13050  0.76940  Biso   1.000  C
  H80      1.0000 0.86500  0.07280  0.77700  Biso   1.000  H
  O24      1.0000 0.83600  0.16440  0.74000  Biso   1.000  O
  Cd5      1.0000 0.54426  0.20455  0.83827  Biso   1.000  Cd
  C129     1.0000 0.36570  0.21740  0.85720  Biso   1.000  C
  H81      1.0000 0.37020  0.20700  0.80240  Biso   1.000  H
  N9       1.0000 0.54328  0.35150  0.83310  Biso   1.000  N
  O25      1.0000 0.45924  0.20440  0.80400  Biso   1.000  O
  C130     1.0000 0.45099  0.21040  0.87740  Biso   1.000  C
  N10      1.0000 0.54494  0.06000  0.83300  Biso   1.000  N
  O26      1.0000 0.12436  0.29140  0.16420  Biso   1.000  O
  O27      1.0000 0.48276  0.20750  0.92780  Biso   1.000  O
  C131     1.0000 0.54620  0.52490  0.83000  Biso   1.000  C
  C132     1.0000 0.54740  0.88620  0.82900  Biso   1.000  C
  O28      1.0000 0.09535  0.28790  0.04660  Biso   1.000  O
  C133     1.0000 0.12850  0.28700  0.09090  Biso   1.000  C
  C134     1.0000 0.31310  0.24270  0.96380  Biso   1.000  C
  C135     1.0000 0.56130  0.39220  0.77130  Biso   1.000  C
  H82      1.0000 0.57260  0.36050  0.72830  Biso   1.000  H
  C136     1.0000 0.54800  0.61590  0.82800  Biso   1.000  C
  C137     1.0000 0.54790  0.79230  0.82790  Biso   1.000  C
  C138     1.0000 0.56010  0.01810  0.76890  Biso   1.000  C
  H83      1.0000 0.57000  0.04860  0.72410  Biso   1.000  H
  C139     1.0000 0.58500  0.66160  0.79650  Biso   1.000  C
  C140     1.0000 0.26530  0.25470  0.99610  Biso   1.000  C
  C141     1.0000 0.17640  0.27550  0.05660  Biso   1.000  C
  C142     1.0000 0.58530  0.74870  0.79760  Biso   1.000  C
  C143     1.0000 0.52980  0.01370  0.89370  Biso   1.000  C
  H84      1.0000 0.51700  0.04120  0.93810  Biso   1.000  H
  C144     1.0000 0.40252  0.22190  0.90620  Biso   1.000  C
  C145     1.0000 0.56450  0.47780  0.76640  Biso   1.000  C
  H85      1.0000 0.57830  0.50380  0.72210  Biso   1.000  H
  C146     1.0000 0.52710  0.48220  0.89310  Biso   1.000  C
  H86      1.0000 0.51460  0.51110  0.93700  Biso   1.000  H
  C147     1.0000 0.52680  0.39440  0.89090  Biso   1.000  C
  H87      1.0000 0.51360  0.36560  0.93430  Biso   1.000  H
  C148     1.0000 0.56170  0.93380  0.76600  Biso   1.000  C
  H88      1.0000 0.57290  0.90740  0.71970  Biso   1.000  H
  C149     1.0000 0.53170  0.92880  0.89490  Biso   1.000  C
  H89      1.0000 0.52220  0.89940  0.94070  Biso   1.000  H
  C150     1.0000 0.21330  0.26940  0.10710  Biso   1.000  C
  H90      1.0000 0.20870  0.27200  0.16270  Biso   1.000  H
  C151     1.0000 0.51040  0.74840  0.85910  Biso   1.000  C
  H91      1.0000 0.48510  0.77750  0.88020  Biso   1.000  H
  C152     1.0000 0.32120  0.22780  0.88560  Biso   1.000  C
  H92      1.0000 0.29630  0.22430  0.84980  Biso   1.000  H
  C153     1.0000 0.51060  0.66270  0.85870  Biso   1.000  C
  H93      1.0000 0.48510  0.63400  0.87950  Biso   1.000  H
  C154     1.0000 0.18440  0.27220  0.97760  Biso   1.000  C
  H94      1.0000 0.15960  0.27810  0.94210  Biso   1.000  H
  C155     1.0000 0.35040  0.25010  0.01360  Biso   1.000  C
  H95      1.0000 0.34570  0.26250  0.06790  Biso   1.000  H
  C156     1.0000 0.25720  0.25940  0.07700  Biso   1.000  C
  H96      1.0000 0.28200  0.25570  0.11280  Biso   1.000  H
  C157     1.0000 0.39500  0.23980  0.98540  Biso   1.000  C
  H97      1.0000 0.41990  0.24510  0.02070  Biso   1.000  H
  C158     1.0000 0.22850  0.26040  0.94640  Biso   1.000  C
  H98      1.0000 0.23270  0.25640  0.89070  Biso   1.000  H
  O29      1.0000 0.66340  0.74840  0.74130  Biso   1.000  O
  C159     1.0000 0.63020  0.78740  0.77040  Biso   1.000  C
  H99      1.0000 0.63330  0.84550  0.77590  Biso   1.000  H
  C160     1.0000 0.63090  0.63050  0.76940  Biso   1.000  C
  H100     1.0000 0.63500  0.57280  0.77700  Biso   1.000  H
  O30      1.0000 0.66400  0.66440  0.74000  Biso   1.000  O
  Cd6      1.0000 0.95574  0.29545  0.33827  Biso   1.000  Cd
  C161     1.0000 0.13430  0.28260  0.35720  Biso   1.000  C
  H101     1.0000 0.12980  0.29300  0.30240  Biso   1.000  H
  N11      1.0000 0.95672  0.14850  0.33310  Biso   1.000  N
  O31      1.0000 0.04076  0.29560  0.30400  Biso   1.000  O
  C162     1.0000 0.04901  0.28960  0.37740  Biso   1.000  C
  N12      1.0000 0.95506  0.44000  0.33300  Biso   1.000  N
  O32      1.0000 0.37564  0.20860  0.66420  Biso   1.000  O
  O33      1.0000 0.01724  0.29250  0.42780  Biso   1.000  O
  C163     1.0000 0.95380  0.97510  0.33000  Biso   1.000  C
  C164     1.0000 0.95260  0.61380  0.32900  Biso   1.000  C
  O34      1.0000 0.40465  0.21210  0.54660  Biso   1.000  O
  C165     1.0000 0.37150  0.21300  0.59090  Biso   1.000  C
  C166     1.0000 0.18690  0.25730  0.46380  Biso   1.000  C
  C167     1.0000 0.93870  0.10780  0.27130  Biso   1.000  C
  H102     1.0000 0.92740  0.13950  0.22830  Biso   1.000  H
  C168     1.0000 0.95200  0.88410  0.32800  Biso   1.000  C
  C169     1.0000 0.95210  0.70770  0.32790  Biso   1.000  C
  C170     1.0000 0.93990  0.48190  0.26890  Biso   1.000  C
  H103     1.0000 0.93000  0.45140  0.22410  Biso   1.000  H
  C171     1.0000 0.91500  0.83840  0.29650  Biso   1.000  C
  C172     1.0000 0.23470  0.24530  0.49610  Biso   1.000  C
  C173     1.0000 0.32360  0.22450  0.55660  Biso   1.000  C
  C174     1.0000 0.91470  0.75130  0.29760  Biso   1.000  C
  C175     1.0000 0.97020  0.48630  0.39370  Biso   1.000  C
  H104     1.0000 0.98300  0.45880  0.43810  Biso   1.000  H
  C176     1.0000 0.09748  0.27810  0.40620  Biso   1.000  C
  C177     1.0000 0.93550  0.02220  0.26640  Biso   1.000  C
  H105     1.0000 0.92170  0.99620  0.22210  Biso   1.000  H
  C178     1.0000 0.97290  0.01780  0.39310  Biso   1.000  C
  H106     1.0000 0.98540  0.98890  0.43700  Biso   1.000  H
  C179     1.0000 0.97320  0.10560  0.39090  Biso   1.000  C
  H107     1.0000 0.98640  0.13440  0.43430  Biso   1.000  H
  C180     1.0000 0.93830  0.56620  0.26600  Biso   1.000  C
  H108     1.0000 0.92710  0.59260  0.21970  Biso   1.000  H
  C181     1.0000 0.96830  0.57120  0.39490  Biso   1.000  C
  H109     1.0000 0.97780  0.60060  0.44070  Biso   1.000  H
  C182     1.0000 0.28670  0.23060  0.60710  Biso   1.000  C
  H110     1.0000 0.29130  0.22800  0.66270  Biso   1.000  H
  C183     1.0000 0.98960  0.75160  0.35910  Biso   1.000  C
  H111     1.0000 0.01490  0.72250  0.38020  Biso   1.000  H
  C184     1.0000 0.17880  0.27220  0.38560  Biso   1.000  C
  H112     1.0000 0.20370  0.27570  0.34980  Biso   1.000  H
  C185     1.0000 0.98940  0.83730  0.35870  Biso   1.000  C
  H113     1.0000 0.01490  0.86600  0.37950  Biso   1.000  H
  C186     1.0000 0.31560  0.22780  0.47760  Biso   1.000  C
  H114     1.0000 0.34040  0.22190  0.44210  Biso   1.000  H
  C187     1.0000 0.14960  0.24990  0.51360  Biso   1.000  C
  H115     1.0000 0.15430  0.23750  0.56790  Biso   1.000  H
  C188     1.0000 0.24280  0.24060  0.57700  Biso   1.000  C
  H116     1.0000 0.21800  0.24430  0.61280  Biso   1.000  H
  C189     1.0000 0.10500  0.26020  0.48540  Biso   1.000  C
  H117     1.0000 0.08010  0.25490  0.52070  Biso   1.000  H
  C190     1.0000 0.27150  0.23960  0.44640  Biso   1.000  C
  H118     1.0000 0.26730  0.24360  0.39070  Biso   1.000  H
  O35      1.0000 0.83660  0.75160  0.24130  Biso   1.000  O
  C191     1.0000 0.86980  0.71260  0.27040  Biso   1.000  C
  H119     1.0000 0.86670  0.65450  0.27590  Biso   1.000  H
  C192     1.0000 0.86910  0.86950  0.26940  Biso   1.000  C
  H120     1.0000 0.86500  0.92720  0.27700  Biso   1.000  H
  O36      1.0000 0.83600  0.83560  0.24000  Biso   1.000  O
  Cd7      1.0000 0.45574  0.20455  0.66173  Biso   1.000  Cd
  C193     1.0000 0.63430  0.21740  0.64280  Biso   1.000  C
  H121     1.0000 0.62980  0.20700  0.69760  Biso   1.000  H
  N13      1.0000 0.45672  0.35150  0.66690  Biso   1.000  N
  O37      1.0000 0.54076  0.20440  0.69600  Biso   1.000  O
  C194     1.0000 0.54901  0.21040  0.62260  Biso   1.000  C
  N14      1.0000 0.45506  0.06000  0.66700  Biso   1.000  N
  O38      1.0000 0.87564  0.29140  0.33580  Biso   1.000  O
  O39      1.0000 0.51724  0.20750  0.57220  Biso   1.000  O
  C195     1.0000 0.45380  0.52490  0.67000  Biso   1.000  C
  C196     1.0000 0.45260  0.88620  0.67100  Biso   1.000  C
  O40      1.0000 0.90465  0.28790  0.45340  Biso   1.000  O
  C197     1.0000 0.87150  0.28700  0.40910  Biso   1.000  C
  C198     1.0000 0.68690  0.24270  0.53620  Biso   1.000  C
  C199     1.0000 0.43870  0.39220  0.72870  Biso   1.000  C
  H122     1.0000 0.42740  0.36050  0.77170  Biso   1.000  H
  C200     1.0000 0.45200  0.61590  0.67200  Biso   1.000  C
  C201     1.0000 0.45210  0.79230  0.67210  Biso   1.000  C
  C202     1.0000 0.43990  0.01810  0.73110  Biso   1.000  C
  H123     1.0000 0.43000  0.04860  0.77590  Biso   1.000  H
  C203     1.0000 0.41500  0.66160  0.70350  Biso   1.000  C
  C204     1.0000 0.73470  0.25470  0.50390  Biso   1.000  C
  C205     1.0000 0.82360  0.27550  0.44340  Biso   1.000  C
  C206     1.0000 0.41470  0.74870  0.70240  Biso   1.000  C
  C207     1.0000 0.47020  0.01370  0.60630  Biso   1.000  C
  H124     1.0000 0.48300  0.04120  0.56190  Biso   1.000  H
  C208     1.0000 0.59748  0.22190  0.59380  Biso   1.000  C
  C209     1.0000 0.43550  0.47780  0.73360  Biso   1.000  C
  H125     1.0000 0.42170  0.50380  0.77790  Biso   1.000  H
  C210     1.0000 0.47290  0.48220  0.60690  Biso   1.000  C
  H126     1.0000 0.48540  0.51110  0.56300  Biso   1.000  H
  C211     1.0000 0.47320  0.39440  0.60910  Biso   1.000  C
  H127     1.0000 0.48640  0.36560  0.56570  Biso   1.000  H
  C212     1.0000 0.43830  0.93380  0.73400  Biso   1.000  C
  H128     1.0000 0.42710  0.90740  0.78030  Biso   1.000  H
  C213     1.0000 0.46830  0.92880  0.60510  Biso   1.000  C
  H129     1.0000 0.47780  0.89940  0.55930  Biso   1.000  H
  C214     1.0000 0.78670  0.26940  0.39290  Biso   1.000  C
  H130     1.0000 0.79130  0.27200  0.33730  Biso   1.000  H
  C215     1.0000 0.48960  0.74840  0.64090  Biso   1.000  C
  H131     1.0000 0.51490  0.77750  0.61980  Biso   1.000  H
  C216     1.0000 0.67880  0.22780  0.61440  Biso   1.000  C
  H132     1.0000 0.70370  0.22430  0.65020  Biso   1.000  H
  C217     1.0000 0.48940  0.66270  0.64130  Biso   1.000  C
  H133     1.0000 0.51490  0.63400  0.62050  Biso   1.000  H
  C218     1.0000 0.81560  0.27220  0.52240  Biso   1.000  C
  H134     1.0000 0.84040  0.27810  0.55790  Biso   1.000  H
  C219     1.0000 0.64960  0.25010  0.48640  Biso   1.000  C
  H135     1.0000 0.65430  0.26250  0.43210  Biso   1.000  H
  C220     1.0000 0.74280  0.25940  0.42300  Biso   1.000  C
  H136     1.0000 0.71800  0.25570  0.38720  Biso   1.000  H
  C221     1.0000 0.60500  0.23980  0.51460  Biso   1.000  C
  H137     1.0000 0.58010  0.24510  0.47930  Biso   1.000  H
  C222     1.0000 0.77150  0.26040  0.55360  Biso   1.000  C
  H138     1.0000 0.76730  0.25640  0.60930  Biso   1.000  H
  O41      1.0000 0.33660  0.74840  0.75870  Biso   1.000  O
  C223     1.0000 0.36980  0.78740  0.72960  Biso   1.000  C
  H139     1.0000 0.36670  0.84550  0.72410  Biso   1.000  H
  C224     1.0000 0.36910  0.63050  0.73060  Biso   1.000  C
  H140     1.0000 0.36500  0.57280  0.72300  Biso   1.000  H
  O42      1.0000 0.33600  0.66440  0.76000  Biso   1.000  O
  Cd8      1.0000 0.04426  0.29545  0.16173  Biso   1.000  Cd
  C225     1.0000 0.86570  0.28260  0.14280  Biso   1.000  C
  H141     1.0000 0.87020  0.29300  0.19760  Biso   1.000  H
  N15      1.0000 0.04328  0.14850  0.16690  Biso   1.000  N
  O43      1.0000 0.95924  0.29560  0.19600  Biso   1.000  O
  C226     1.0000 0.95099  0.28960  0.12260  Biso   1.000  C
  N16      1.0000 0.04494  0.44000  0.16700  Biso   1.000  N
  O44      1.0000 0.62436  0.20860  0.83580  Biso   1.000  O
  O45      1.0000 0.98276  0.29250  0.07220  Biso   1.000  O
  C227     1.0000 0.04620  0.97510  0.17000  Biso   1.000  C
  C228     1.0000 0.04740  0.61380  0.17100  Biso   1.000  C
  O46      1.0000 0.59535  0.21210  0.95340  Biso   1.000  O
  C229     1.0000 0.62850  0.21300  0.90910  Biso   1.000  C
  C230     1.0000 0.81310  0.25730  0.03620  Biso   1.000  C
  C231     1.0000 0.06130  0.10780  0.22870  Biso   1.000  C
  H142     1.0000 0.07260  0.13950  0.27170  Biso   1.000  H
  C232     1.0000 0.04800  0.88410  0.17200  Biso   1.000  C
  C233     1.0000 0.04790  0.70770  0.17210  Biso   1.000  C
  C234     1.0000 0.06010  0.48190  0.23110  Biso   1.000  C
  H143     1.0000 0.07000  0.45140  0.27590  Biso   1.000  H
  C235     1.0000 0.08500  0.83840  0.20350  Biso   1.000  C
  C236     1.0000 0.76530  0.24530  0.00390  Biso   1.000  C
  C237     1.0000 0.67640  0.22450  0.94340  Biso   1.000  C
  C238     1.0000 0.08530  0.75130  0.20240  Biso   1.000  C
  C239     1.0000 0.02980  0.48630  0.10630  Biso   1.000  C
  H144     1.0000 0.01700  0.45880  0.06190  Biso   1.000  H
  C240     1.0000 0.90252  0.27810  0.09380  Biso   1.000  C
  C241     1.0000 0.06450  0.02220  0.23360  Biso   1.000  C
  H145     1.0000 0.07830  0.99620  0.27790  Biso   1.000  H
  C242     1.0000 0.02710  0.01780  0.10690  Biso   1.000  C
  H146     1.0000 0.01460  0.98890  0.06300  Biso   1.000  H
  C243     1.0000 0.02680  0.10560  0.10910  Biso   1.000  C
  H147     1.0000 0.01360  0.13440  0.06570  Biso   1.000  H
  C244     1.0000 0.06170  0.56620  0.23400  Biso   1.000  C
  H148     1.0000 0.07290  0.59260  0.28030  Biso   1.000  H
  C245     1.0000 0.03170  0.57120  0.10510  Biso   1.000  C
  H149     1.0000 0.02220  0.60060  0.05930  Biso   1.000  H
  C246     1.0000 0.71330  0.23060  0.89290  Biso   1.000  C
  H150     1.0000 0.70870  0.22800  0.83730  Biso   1.000  H
  C247     1.0000 0.01040  0.75160  0.14090  Biso   1.000  C
  H151     1.0000 0.98510  0.72250  0.11980  Biso   1.000  H
  C248     1.0000 0.82120  0.27220  0.11440  Biso   1.000  C
  H152     1.0000 0.79630  0.27570  0.15020  Biso   1.000  H
  C249     1.0000 0.01060  0.83730  0.14130  Biso   1.000  C
  H153     1.0000 0.98510  0.86600  0.12050  Biso   1.000  H
  C250     1.0000 0.68440  0.22780  0.02240  Biso   1.000  C
  H154     1.0000 0.65960  0.22190  0.05790  Biso   1.000  H
  C251     1.0000 0.85040  0.24990  0.98640  Biso   1.000  C
  H155     1.0000 0.84570  0.23750  0.93210  Biso   1.000  H
  C252     1.0000 0.75720  0.24060  0.92300  Biso   1.000  C
  H156     1.0000 0.78200  0.24430  0.88720  Biso   1.000  H
  C253     1.0000 0.89500  0.26020  0.01460  Biso   1.000  C
  H157     1.0000 0.91990  0.25490  0.97930  Biso   1.000  H
  C254     1.0000 0.72850  0.23960  0.05360  Biso   1.000  C
  H158     1.0000 0.73270  0.24360  0.10930  Biso   1.000  H
  O47      1.0000 0.16340  0.75160  0.25870  Biso   1.000  O
  C255     1.0000 0.13020  0.71260  0.22960  Biso   1.000  C
  H159     1.0000 0.13330  0.65450  0.22410  Biso   1.000  H
  C256     1.0000 0.13090  0.86950  0.23060  Biso   1.000  C
  H160     1.0000 0.13500  0.92720  0.22300  Biso   1.000  H
  O48      1.0000 0.16400  0.83560  0.26000  Biso   1.000  O
