data_image0
_cell_length_a       18.978
_cell_length_b       23.17
_cell_length_c       23.477
_cell_angle_alpha    87.73
_cell_angle_beta     68.378
_cell_angle_gamma    68.299

_symmetry_space_group_name_H-M    "P 1"
_symmetry_int_tables_number       1

loop_
  _symmetry_equiv_pos_as_xyz
  'x, y, z'

loop_
  _atom_site_label
  _atom_site_occupancy
  _atom_site_fract_x
  _atom_site_fract_y
  _atom_site_fract_z
  _atom_site_thermal_displace_type
  _atom_site_B_iso_or_equiv
  _atom_site_type_symbol
  Zn1      1.0000 0.53777  0.28284  0.23885  Biso   1.000  Zn
  Zn2      1.0000 0.46880  0.22365  0.35395  Biso   1.000  Zn
  Zn3      1.0000 0.34955  0.32581  0.31297  Biso   1.000  Zn
  Zn4      1.0000 0.45708  0.37892  0.35788  Biso   1.000  Zn
  O1       1.0000 0.45400  0.30250  0.32050  Biso   1.000  O
  C1       1.0000 0.50130  0.18680  0.77260  Biso   1.000  C
  C2       1.0000 0.52150  0.21180  0.81400  Biso   1.000  C
  C3       1.0000 0.48990  0.20730  0.87670  Biso   1.000  C
  C4       1.0000 0.43460  0.17490  0.89810  Biso   1.000  C
  C5       1.0000 0.57440  0.25110  0.79880  Biso   1.000  C
  H1       1.0000 0.59810  0.25390  0.75360  Biso   1.000  H
  C6       1.0000 0.51350  0.24290  0.91530  Biso   1.000  C
  H2       1.0000 0.48980  0.23950  0.96040  Biso   1.000  H
  C7       1.0000 0.63900  0.22090  0.82380  Biso   1.000  C
  C8       1.0000 0.60780  0.21610  0.88790  Biso   1.000  C
  C9       1.0000 0.65890  0.19360  0.91860  Biso   1.000  C
  H3       1.0000 0.63700  0.19240  0.96190  Biso   1.000  H
  C10      1.0000 0.74310  0.17240  0.88660  Biso   1.000  C
  H4       1.0000 0.77930  0.15650  0.90770  Biso   1.000  H
  C11      1.0000 0.77380  0.17460  0.82380  Biso   1.000  C
  H5       1.0000 0.83160  0.15890  0.80190  Biso   1.000  H
  C12      1.0000 0.72310  0.19900  0.79190  Biso   1.000  C
  H6       1.0000 0.74560  0.20080  0.74870  Biso   1.000  H
  C13      1.0000 0.52010  0.31430  0.83500  Biso   1.000  C
  C14      1.0000 0.48720  0.30920  0.89980  Biso   1.000  C
  C15      1.0000 0.43900  0.36360  0.93960  Biso   1.000  C
  H7       1.0000 0.41730  0.36140  0.98270  Biso   1.000  H
  C16      1.0000 0.42230  0.42060  0.91760  Biso   1.000  C
  H8       1.0000 0.38960  0.45770  0.94540  Biso   1.000  H
  C17      1.0000 0.45340  0.42430  0.85400  Biso   1.000  C
  H9       1.0000 0.44040  0.46390  0.83880  Biso   1.000  H
  C18      1.0000 0.50150  0.37200  0.81440  Biso   1.000  C
  H10      1.0000 0.52280  0.37520  0.77140  Biso   1.000  H
  C19      1.0000 0.44940  0.15320  0.79450  Biso   1.000  C
  C20      1.0000 0.41700  0.14850  0.85670  Biso   1.000  C
  C21      1.0000 0.42060  0.12290  0.75560  Biso   1.000  C
  H11      1.0000 0.44530  0.12680  0.71070  Biso   1.000  H
  C22      1.0000 0.35930  0.11300  0.87140  Biso   1.000  C
  H12      1.0000 0.33500  0.10860  0.91630  Biso   1.000  H
  C23      1.0000 0.44230  0.05620  0.76910  Biso   1.000  C
  C24      1.0000 0.41080  0.05080  0.83090  Biso   1.000  C
  C25      1.0000 0.42670  0.99280  0.85310  Biso   1.000  C
  H13      1.0000 0.40460  0.98960  0.89600  Biso   1.000  H
  C26      1.0000 0.47540  0.93980  0.81130  Biso   1.000  C
  H14      1.0000 0.48650  0.89970  0.82560  Biso   1.000  H
  C27      1.0000 0.50880  0.94480  0.74730  Biso   1.000  C
  H15      1.0000 0.54260  0.90840  0.71860  Biso   1.000  H
  C28      1.0000 0.49130  0.00390  0.72720  Biso   1.000  C
  H16      1.0000 0.51320  0.00810  0.68450  Biso   1.000  H
  C29      1.0000 0.32770  0.15510  0.78230  Biso   1.000  C
  C30      1.0000 0.29550  0.14940  0.84470  Biso   1.000  C
  C31      1.0000 0.21070  0.17640  0.87760  Biso   1.000  C
  H17      1.0000 0.18720  0.17360  0.92040  Biso   1.000  H
  C32      1.0000 0.16220  0.20740  0.84560  Biso   1.000  C
  H18      1.0000 0.10440  0.22580  0.86720  Biso   1.000  H
  C33      1.0000 0.19390  0.21260  0.78460  Biso   1.000  C
  H19      1.0000 0.15850  0.23360  0.76400  Biso   1.000  H
  C34      1.0000 0.27810  0.18720  0.75220  Biso   1.000  C
  H20      1.0000 0.30090  0.19200  0.70970  Biso   1.000  H
  O2       1.0000 0.52590  0.19720  0.71110  Biso   1.000  O
  C35      1.0000 0.46830  0.25240  0.70150  Biso   1.000  C
  H21      1.0000 0.48690  0.28720  0.70090  Biso   1.000  H
  H22      1.0000 0.41480  0.26320  0.73640  Biso   1.000  H
  C36      1.0000 0.45720  0.24580  0.64310  Biso   1.000  C
  C37      1.0000 0.39580  0.29140  0.63100  Biso   1.000  C
  H23      1.0000 0.35970  0.32610  0.66140  Biso   1.000  H
  C38      1.0000 0.38380  0.28980  0.57830  Biso   1.000  C
  H24      1.0000 0.34150  0.32330  0.57140  Biso   1.000  H
  C39      1.0000 0.43330  0.23920  0.53470  Biso   1.000  C
  C40      1.0000 0.49660  0.18970  0.54500  Biso   1.000  C
  H25      1.0000 0.53140  0.15420  0.51540  Biso   1.000  H
  C41      1.0000 0.50560  0.19540  0.60030  Biso   1.000  C
  H26      1.0000 0.54760  0.16250  0.60850  Biso   1.000  H
  C42      1.0000 0.42870  0.23780  0.47130  Biso   1.000  C
  O3       1.0000 0.48740  0.20100  0.42840  Biso   1.000  O
  O4       1.0000 0.36610  0.27720  0.46520  Biso   1.000  O
  O5       1.0000 0.39340  0.17850  0.96150  Biso   1.000  O
  C43      1.0000 0.42180  0.12350  0.99090  Biso   1.000  C
  H27      1.0000 0.47610  0.09370  0.96290  Biso   1.000  H
  H28      1.0000 0.38260  0.10230  0.00250  Biso   1.000  H
  C44      1.0000 0.42720  0.14620  0.04540  Biso   1.000  C
  C45      1.0000 0.35930  0.17190  0.09880  Biso   1.000  C
  H29      1.0000 0.31060  0.16580  0.10390  Biso   1.000  H
  C46      1.0000 0.35990  0.20710  0.14620  Biso   1.000  C
  H30      1.0000 0.31150  0.22550  0.18200  Biso   1.000  H
  C47      1.0000 0.43150  0.21480  0.14050  Biso   1.000  C
  C48      1.0000 0.50200  0.18380  0.08850  Biso   1.000  C
  H31      1.0000 0.55270  0.18550  0.08490  Biso   1.000  H
  C49      1.0000 0.49920  0.15050  0.04210  Biso   1.000  C
  H32      1.0000 0.54810  0.13030  0.00710  Biso   1.000  H
  C50      1.0000 0.43500  0.25070  0.18950  Biso   1.000  C
  O6       1.0000 0.36960  0.28110  0.23200  Biso   1.000  O
  O7       1.0000 0.50330  0.25020  0.18170  Biso   1.000  O
  C51      1.0000 0.09060  0.73850  0.17450  Biso   1.000  C
  C52      1.0000 0.03960  0.78260  0.22480  Biso   1.000  C
  C53      1.0000 0.99640  0.84400  0.21740  Biso   1.000  C
  C54      1.0000 0.00720  0.86090  0.15710  Biso   1.000  C
  C55      1.0000 0.02420  0.77320  0.29250  Biso   1.000  C
  H33      1.0000 0.05590  0.72970  0.29840  Biso   1.000  H
  C56      1.0000 0.94220  0.88590  0.27690  Biso   1.000  C
  H34      1.0000 0.91030  0.92950  0.27150  Biso   1.000  H
  C57      1.0000 0.93350  0.79210  0.32460  Biso   1.000  C
  C58      1.0000 0.88780  0.85130  0.31840  Biso   1.000  C
  C59      1.0000 0.80360  0.87880  0.34530  Biso   1.000  C
  H35      1.0000 0.77350  0.92080  0.34160  Biso   1.000  H
  C60      1.0000 0.76660  0.84000  0.37840  Biso   1.000  C
  H36      1.0000 0.70840  0.85610  0.39710  Biso   1.000  H
  C61      1.0000 0.80690  0.78240  0.38550  Biso   1.000  C
  H37      1.0000 0.77760  0.75840  0.40900  Biso   1.000  H
  C62      1.0000 0.88800  0.75720  0.36020  Biso   1.000  C
  H38      1.0000 0.91620  0.71540  0.36600  Biso   1.000  H
  C63      1.0000 0.04500  0.82230  0.31660  Biso   1.000  C
  C64      1.0000 0.00240  0.88140  0.30830  Biso   1.000  C
  C65      1.0000 0.01610  0.93080  0.32640  Biso   1.000  C
  H39      1.0000 0.98550  0.97210  0.32090  Biso   1.000  H
  C66      1.0000 0.07350  0.92160  0.35260  Biso   1.000  C
  H40      1.0000 0.08280  0.95580  0.36500  Biso   1.000  H
  C67      1.0000 0.11680  0.86100  0.36030  Biso   1.000  C
  H41      1.0000 0.15660  0.85350  0.37790  Biso   1.000  H
  C68      1.0000 0.10300  0.81060  0.34260  Biso   1.000  C
  H42      1.0000 0.13280  0.76920  0.34820  Biso   1.000  H
  C69      1.0000 0.09750  0.75560  0.11550  Biso   1.000  C
  C70      1.0000 0.05810  0.81720  0.10720  Biso   1.000  C
  C71      1.0000 0.14560  0.71060  0.05560  Biso   1.000  C
  H43      1.0000 0.17330  0.66620  0.06200  Biso   1.000  H
  C72      1.0000 0.07280  0.82600  0.03980  Biso   1.000  C
  H44      1.0000 0.04540  0.87030  0.03330  Biso   1.000  H
  C73      1.0000 0.08190  0.71970  0.02710  Biso   1.000  C
  C74      1.0000 0.04350  0.78090  0.01770  Biso   1.000  C
  C75      1.0000 0.98470  0.79780  0.99220  Biso   1.000  C
  H45      1.0000 0.95900  0.84000  0.98610  Biso   1.000  H
  C76      1.0000 0.96400  0.74960  0.97530  Biso   1.000  C
  H46      1.0000 0.92390  0.75930  0.95750  Biso   1.000  H
  C77      1.0000 0.00240  0.68860  0.98490  Biso   1.000  C
  H47      1.0000 0.98800  0.65700  0.97340  Biso   1.000  H
  C78      1.0000 0.06040  0.67230  0.01060  Biso   1.000  C
  H48      1.0000 0.08560  0.63020  0.01720  Biso   1.000  H
  C79      1.0000 0.20480  0.73890  0.01270  Biso   1.000  C
  C80      1.0000 0.16570  0.79970  0.00460  Biso   1.000  C
  C81      1.0000 0.21110  0.83050  0.96320  Biso   1.000  C
  H49      1.0000 0.18430  0.87250  0.95700  Biso   1.000  H
  C82      1.0000 0.29270  0.80040  0.93230  Biso   1.000  C
  H50      1.0000 0.32310  0.82090  0.90350  Biso   1.000  H
  C83      1.0000 0.33090  0.74140  0.94220  Biso   1.000  C
  H51      1.0000 0.38860  0.72120  0.92110  Biso   1.000  H
  C84      1.0000 0.28710  0.70830  0.98350  Biso   1.000  C
  H52      1.0000 0.31430  0.66670  0.99030  Biso   1.000  H
  O8       1.0000 0.13190  0.67850  0.18330  Biso   1.000  O
  C85      1.0000 0.21210  0.66830  0.17900  Biso   1.000  C
  H53      1.0000 0.21140  0.70500  0.19980  Biso   1.000  H
  H54      1.0000 0.24910  0.66260  0.13520  Biso   1.000  H
  C86      1.0000 0.24360  0.61010  0.20950  Biso   1.000  C
  C87      1.0000 0.19470  0.57840  0.23890  Biso   1.000  C
  H55      1.0000 0.14060  0.59170  0.23980  Biso   1.000  H
  C88      1.0000 0.22540  0.52580  0.26770  Biso   1.000  C
  H56      1.0000 0.19170  0.50360  0.28830  Biso   1.000  H
  C89      1.0000 0.30350  0.50660  0.26620  Biso   1.000  C
  C90      1.0000 0.35050  0.54070  0.23810  Biso   1.000  C
  H57      1.0000 0.40370  0.52920  0.23880  Biso   1.000  H
  C91      1.0000 0.32100  0.59090  0.20930  Biso   1.000  C
  H58      1.0000 0.35490  0.61290  0.18870  Biso   1.000  H
  C92      1.0000 0.33690  0.44840  0.29380  Biso   1.000  C
  O9       1.0000 0.29730  0.41210  0.30350  Biso   1.000  O
  O10      1.0000 0.39930  0.43870  0.30370  Biso   1.000  O
  O11      1.0000 0.96510  0.92260  0.15110  Biso   1.000  O
  C93      1.0000 0.89800  0.92960  0.13140  Biso   1.000  C
  H59      1.0000 0.88180  0.89320  0.14050  Biso   1.000  H
  H60      1.0000 0.91520  0.93250  0.08640  Biso   1.000  H
  C94      1.0000 0.82800  0.98790  0.16590  Biso   1.000  C
  C95      1.0000 0.75510  0.98730  0.20880  Biso   1.000  C
  H61      1.0000 0.74930  0.94860  0.21780  Biso   1.000  H
  C96      1.0000 0.69200  0.04150  0.23800  Biso   1.000  C
  H62      1.0000 0.64290  0.04000  0.26790  Biso   1.000  H
  C97      1.0000 0.69710  0.09960  0.22550  Biso   1.000  C
  C98      1.0000 0.76980  0.10040  0.18380  Biso   1.000  C
  H63      1.0000 0.77530  0.13930  0.17590  Biso   1.000  H
  C99      1.0000 0.83380  0.04690  0.15370  Biso   1.000  C
  H64      1.0000 0.88300  0.04880  0.12430  Biso   1.000  H
  C100     1.0000 0.62660  0.15890  0.25540  Biso   1.000  C
  O12      1.0000 0.63440  0.20950  0.23720  Biso   1.000  O
  O13      1.0000 0.56430  0.15460  0.29540  Biso   1.000  O
  C101     1.0000 0.04740  0.03510  0.47580  Biso   1.000  C
  C102     1.0000 0.07850  0.97940  0.50040  Biso   1.000  C
  C103     1.0000 0.96880  0.05410  0.47550  Biso   1.000  C
  C104     1.0000 0.16330  0.94930  0.50300  Biso   1.000  C
  H65      1.0000 0.19820  0.97380  0.48400  Biso   1.000  H
  C105     1.0000 0.92710  0.11260  0.44880  Biso   1.000  C
  H66      1.0000 0.96250  0.13660  0.42940  Biso   1.000  H
  C106     1.0000 0.15150  0.94240  0.56950  Biso   1.000  C
  C107     1.0000 0.89500  0.09230  0.40560  Biso   1.000  C
  C108     1.0000 0.91150  0.10820  0.34420  Biso   1.000  C
  H67      1.0000 0.94660  0.13000  0.32630  Biso   1.000  H
  C109     1.0000 0.87300  0.08970  0.31130  Biso   1.000  C
  H68      1.0000 0.88070  0.10050  0.27060  Biso   1.000  H
  C110     1.0000 0.82380  0.05580  0.33750  Biso   1.000  C
  H69      1.0000 0.79840  0.04320  0.31500  Biso   1.000  H
  C111     1.0000 0.18690  0.95870  0.60410  Biso   1.000  C
  H70      1.0000 0.22080  0.98140  0.58630  Biso   1.000  H
  C112     1.0000 0.19900  0.88590  0.47130  Biso   1.000  C
  C113     1.0000 0.84780  0.15020  0.50270  Biso   1.000  C
  C114     1.0000 0.82070  0.21260  0.52420  Biso   1.000  C
  H71      1.0000 0.85280  0.23650  0.50580  Biso   1.000  H
  C115     1.0000 0.74630  0.23920  0.57250  Biso   1.000  C
  H72      1.0000 0.72750  0.28180  0.58770  Biso   1.000  H
  C116     1.0000 0.69870  0.20550  0.59940  Biso   1.000  C
  H73      1.0000 0.64800  0.22410  0.63330  Biso   1.000  H
  C117     1.0000 0.27420  0.85560  0.42380  Biso   1.000  C
  H74      1.0000 0.30860  0.87810  0.40660  Biso   1.000  H
  O14      1.0000 0.09500  0.07020  0.45320  Biso   1.000  O
  C118     1.0000 0.08140  0.11460  0.50530  Biso   1.000  C
  H75      1.0000 0.02330  0.14370  0.52360  Biso   1.000  H
  H76      1.0000 0.09650  0.09110  0.53800  Biso   1.000  H
  C119     1.0000 0.13560  0.14930  0.47670  Biso   1.000  C
  C120     1.0000 0.21990  0.11640  0.45720  Biso   1.000  C
  H77      1.0000 0.24070  0.07450  0.46610  Biso   1.000  H
  C121     1.0000 0.27450  0.14500  0.42440  Biso   1.000  C
  H78      1.0000 0.33200  0.12190  0.40950  Biso   1.000  H
  C122     1.0000 0.24350  0.20720  0.41380  Biso   1.000  C
  C123     1.0000 0.16120  0.23790  0.43700  Biso   1.000  C
  H79      1.0000 0.13840  0.28060  0.43130  Biso   1.000  H
  C124     1.0000 0.11000  0.20830  0.46880  Biso   1.000  C
  H80      1.0000 0.05270  0.23230  0.48600  Biso   1.000  H
  C125     1.0000 0.30350  0.23500  0.37530  Biso   1.000  C
  O15      1.0000 0.37880  0.19960  0.35350  Biso   1.000  O
  O16      1.0000 0.27380  0.29120  0.36930  Biso   1.000  O
  C126     1.0000 0.93710  0.47930  0.03280  Biso   1.000  C
  C127     1.0000 0.99260  0.47870  0.05680  Biso   1.000  C
  C128     1.0000 0.99730  0.45280  0.11670  Biso   1.000  C
  H81      1.0000 0.95310  0.43680  0.13850  Biso   1.000  H
  C129     1.0000 0.94480  0.50010  0.97340  Biso   1.000  C
  C130     1.0000 0.88990  0.50530  0.93990  Biso   1.000  C
  H82      1.0000 0.84560  0.48960  0.96220  Biso   1.000  H
  C131     1.0000 0.94500  0.47060  0.87590  Biso   1.000  C
  C132     1.0000 0.99350  0.50690  0.15550  Biso   1.000  C
  C133     1.0000 0.93770  0.53290  0.21270  Biso   1.000  C
  H83      1.0000 0.89700  0.51650  0.23380  Biso   1.000  H
  C134     1.0000 0.94030  0.58560  0.24150  Biso   1.000  C
  H84      1.0000 0.90110  0.60520  0.28130  Biso   1.000  H
  C135     1.0000 0.00270  0.60700  0.20900  Biso   1.000  C
  H85      1.0000 0.00620  0.64110  0.22740  Biso   1.000  H
  C136     1.0000 0.94200  0.42000  0.84810  Biso   1.000  C
  H86      1.0000 0.90080  0.40420  0.86940  Biso   1.000  H
  C137     1.0000 0.85640  0.57480  0.93120  Biso   1.000  C
  C138     1.0000 0.08170  0.40340  0.09990  Biso   1.000  C
  C139     1.0000 0.10160  0.34100  0.10920  Biso   1.000  C
  H87      1.0000 0.05980  0.32600  0.13080  Biso   1.000  H
  C140     1.0000 0.18280  0.30110  0.08670  Biso   1.000  C
  H88      1.0000 0.19630  0.25790  0.09140  Biso   1.000  H
  C141     1.0000 0.24460  0.32190  0.05770  Biso   1.000  C
  H89      1.0000 0.30030  0.29360  0.04410  Biso   1.000  H
  C142     1.0000 0.77480  0.61520  0.95170  Biso   1.000  C
  H90      1.0000 0.73260  0.60020  0.97200  Biso   1.000  H
  O17      1.0000 0.87700  0.45660  0.06210  Biso   1.000  O
  C143     1.0000 0.80290  0.50550  0.10430  Biso   1.000  C
  H91      1.0000 0.77840  0.53830  0.08120  Biso   1.000  H
  H92      1.0000 0.81580  0.52510  0.13390  Biso   1.000  H
  C144     1.0000 0.74450  0.47480  0.13790  Biso   1.000  C
  C145     1.0000 0.72480  0.43780  0.10530  Biso   1.000  C
  H93      1.0000 0.74690  0.43340  0.06150  Biso   1.000  H
  C146     1.0000 0.67440  0.40810  0.13590  Biso   1.000  C
  H94      1.0000 0.66090  0.38370  0.11310  Biso   1.000  H
  C147     1.0000 0.64210  0.41280  0.19990  Biso   1.000  C
  C148     1.0000 0.66150  0.45060  0.23280  Biso   1.000  C
  H95      1.0000 0.64050  0.45480  0.27660  Biso   1.000  H
  C149     1.0000 0.71220  0.48190  0.19970  Biso   1.000  C
  H96      1.0000 0.72380  0.50860  0.22150  Biso   1.000  H
  C150     1.0000 0.59120  0.37690  0.23240  Biso   1.000  C
  O18      1.0000 0.56930  0.37840  0.29030  Biso   1.000  O
  O19      1.0000 0.57630  0.34540  0.19960  Biso   1.000  O
  Zn5      1.0000 0.46223  0.71716  0.76115  Biso   1.000  Zn
  Zn6      1.0000 0.53120  0.77635  0.64605  Biso   1.000  Zn
  Zn7      1.0000 0.65045  0.67419  0.68703  Biso   1.000  Zn
  Zn8      1.0000 0.54292  0.62108  0.64212  Biso   1.000  Zn
  O20      1.0000 0.54600  0.69750  0.67950  Biso   1.000  O
  C151     1.0000 0.49870  0.81320  0.22740  Biso   1.000  C
  C152     1.0000 0.47850  0.78820  0.18600  Biso   1.000  C
  C153     1.0000 0.51010  0.79270  0.12330  Biso   1.000  C
  C154     1.0000 0.56540  0.82510  0.10190  Biso   1.000  C
  C155     1.0000 0.42560  0.74890  0.20120  Biso   1.000  C
  H97      1.0000 0.40190  0.74610  0.24640  Biso   1.000  H
  C156     1.0000 0.48650  0.75710  0.08470  Biso   1.000  C
  H98      1.0000 0.51020  0.76050  0.03960  Biso   1.000  H
  C157     1.0000 0.36100  0.77910  0.17620  Biso   1.000  C
  C158     1.0000 0.39220  0.78390  0.11210  Biso   1.000  C
  C159     1.0000 0.34110  0.80640  0.08140  Biso   1.000  C
  H99      1.0000 0.36300  0.80760  0.03810  Biso   1.000  H
  C160     1.0000 0.25690  0.82760  0.11340  Biso   1.000  C
  H100     1.0000 0.22070  0.84350  0.09230  Biso   1.000  H
  C161     1.0000 0.22620  0.82540  0.17620  Biso   1.000  C
  H101     1.0000 0.16840  0.84110  0.19810  Biso   1.000  H
  C162     1.0000 0.27690  0.80100  0.20810  Biso   1.000  C
  H102     1.0000 0.25440  0.79920  0.25130  Biso   1.000  H
  C163     1.0000 0.47990  0.68570  0.16500  Biso   1.000  C
  C164     1.0000 0.51280  0.69080  0.10020  Biso   1.000  C
  C165     1.0000 0.56100  0.63640  0.06040  Biso   1.000  C
  H103     1.0000 0.58270  0.63860  0.01730  Biso   1.000  H
  C166     1.0000 0.57770  0.57940  0.08240  Biso   1.000  C
  H104     1.0000 0.61040  0.54230  0.05460  Biso   1.000  H
  C167     1.0000 0.54660  0.57570  0.14600  Biso   1.000  C
  H105     1.0000 0.55960  0.53610  0.16120  Biso   1.000  H
  C168     1.0000 0.49850  0.62800  0.18560  Biso   1.000  C
  H106     1.0000 0.47720  0.62480  0.22860  Biso   1.000  H
  C169     1.0000 0.55060  0.84680  0.20550  Biso   1.000  C
  C170     1.0000 0.58300  0.85150  0.14330  Biso   1.000  C
  C171     1.0000 0.57940  0.87710  0.24440  Biso   1.000  C
  H107     1.0000 0.55470  0.87320  0.28930  Biso   1.000  H
  C172     1.0000 0.64070  0.88700  0.12860  Biso   1.000  C
  H108     1.0000 0.66500  0.89140  0.08370  Biso   1.000  H
  C173     1.0000 0.55770  0.94380  0.23090  Biso   1.000  C
  C174     1.0000 0.58920  0.94920  0.16910  Biso   1.000  C
  C175     1.0000 0.57330  0.00720  0.14690  Biso   1.000  C
  H109     1.0000 0.59540  0.01040  0.10400  Biso   1.000  H
  C176     1.0000 0.52460  0.06020  0.18870  Biso   1.000  C
  H110     1.0000 0.51350  0.10030  0.17440  Biso   1.000  H
  C177     1.0000 0.49120  0.05520  0.25270  Biso   1.000  C
  H111     1.0000 0.45740  0.09160  0.28140  Biso   1.000  H
  C178     1.0000 0.50870  0.99610  0.27280  Biso   1.000  C
  H112     1.0000 0.48680  0.99190  0.31550  Biso   1.000  H
  C179     1.0000 0.67230  0.84490  0.21770  Biso   1.000  C
  C180     1.0000 0.70450  0.85060  0.15530  Biso   1.000  C
  C181     1.0000 0.78930  0.82360  0.12240  Biso   1.000  C
  H113     1.0000 0.81280  0.82640  0.07960  Biso   1.000  H
  C182     1.0000 0.83780  0.79260  0.15440  Biso   1.000  C
  H114     1.0000 0.89560  0.77420  0.13280  Biso   1.000  H
  C183     1.0000 0.80610  0.78740  0.21540  Biso   1.000  C
  H115     1.0000 0.84150  0.76640  0.23600  Biso   1.000  H
  C184     1.0000 0.72190  0.81280  0.24780  Biso   1.000  C
  H116     1.0000 0.69910  0.80800  0.29030  Biso   1.000  H
  O21      1.0000 0.47410  0.80280  0.28890  Biso   1.000  O
  C185     1.0000 0.53170  0.74760  0.29850  Biso   1.000  C
  H117     1.0000 0.51310  0.71280  0.29910  Biso   1.000  H
  H118     1.0000 0.58520  0.73680  0.26360  Biso   1.000  H
  C186     1.0000 0.54280  0.75420  0.35690  Biso   1.000  C
  C187     1.0000 0.60420  0.70860  0.36900  Biso   1.000  C
  H119     1.0000 0.64030  0.67390  0.33860  Biso   1.000  H
  C188     1.0000 0.61620  0.71020  0.42170  Biso   1.000  C
  H120     1.0000 0.65850  0.67670  0.42860  Biso   1.000  H
  C189     1.0000 0.56670  0.76080  0.46530  Biso   1.000  C
  C190     1.0000 0.50340  0.81030  0.45500  Biso   1.000  C
  H121     1.0000 0.46860  0.84580  0.48460  Biso   1.000  H
  C191     1.0000 0.49440  0.80460  0.39970  Biso   1.000  C
  H122     1.0000 0.45240  0.83750  0.39150  Biso   1.000  H
  C192     1.0000 0.57130  0.76220  0.52870  Biso   1.000  C
  O22      1.0000 0.51260  0.79900  0.57160  Biso   1.000  O
  O23      1.0000 0.63390  0.72280  0.53480  Biso   1.000  O
  O24      1.0000 0.60660  0.82150  0.03850  Biso   1.000  O
  C193     1.0000 0.57820  0.87650  0.00910  Biso   1.000  C
  H123     1.0000 0.52390  0.90630  0.03710  Biso   1.000  H
  H124     1.0000 0.61740  0.89770  0.99750  Biso   1.000  H
  C194     1.0000 0.57280  0.85380  0.95460  Biso   1.000  C
  C195     1.0000 0.64070  0.82810  0.90120  Biso   1.000  C
  H125     1.0000 0.68940  0.83420  0.89610  Biso   1.000  H
  C196     1.0000 0.64010  0.79290  0.85380  Biso   1.000  C
  H126     1.0000 0.68850  0.77450  0.81800  Biso   1.000  H
  C197     1.0000 0.56850  0.78520  0.85950  Biso   1.000  C
  C198     1.0000 0.49800  0.81620  0.91150  Biso   1.000  C
  H127     1.0000 0.44730  0.81450  0.91510  Biso   1.000  H
  C199     1.0000 0.50080  0.84950  0.95790  Biso   1.000  C
  H128     1.0000 0.45190  0.86970  0.99290  Biso   1.000  H
  C200     1.0000 0.56500  0.74930  0.81050  Biso   1.000  C
  O25      1.0000 0.63040  0.71890  0.76800  Biso   1.000  O
  O26      1.0000 0.49670  0.74980  0.81830  Biso   1.000  O
  C201     1.0000 0.90940  0.26150  0.82550  Biso   1.000  C
  C202     1.0000 0.96040  0.21740  0.77520  Biso   1.000  C
  C203     1.0000 0.00360  0.15600  0.78260  Biso   1.000  C
  C204     1.0000 0.99280  0.13910  0.84290  Biso   1.000  C
  C205     1.0000 0.97580  0.22680  0.70750  Biso   1.000  C
  H129     1.0000 0.94410  0.27030  0.70160  Biso   1.000  H
  C206     1.0000 0.05780  0.11410  0.72310  Biso   1.000  C
  H130     1.0000 0.08970  0.07050  0.72850  Biso   1.000  H
  C207     1.0000 0.06650  0.20790  0.67540  Biso   1.000  C
  C208     1.0000 0.11220  0.14870  0.68160  Biso   1.000  C
  C209     1.0000 0.19640  0.12120  0.65470  Biso   1.000  C
  H131     1.0000 0.22650  0.07920  0.65840  Biso   1.000  H
  C210     1.0000 0.23340  0.16000  0.62160  Biso   1.000  C
  H132     1.0000 0.29160  0.14390  0.60290  Biso   1.000  H
  C211     1.0000 0.19310  0.21760  0.61450  Biso   1.000  C
  H133     1.0000 0.22240  0.24160  0.59100  Biso   1.000  H
  C212     1.0000 0.11200  0.24280  0.63980  Biso   1.000  C
  H134     1.0000 0.08380  0.28460  0.63400  Biso   1.000  H
  C213     1.0000 0.95500  0.17770  0.68340  Biso   1.000  C
  C214     1.0000 0.99760  0.11860  0.69170  Biso   1.000  C
  C215     1.0000 0.98390  0.06920  0.67360  Biso   1.000  C
  H135     1.0000 0.01450  0.02790  0.67910  Biso   1.000  H
  C216     1.0000 0.92650  0.07840  0.64740  Biso   1.000  C
  H136     1.0000 0.91720  0.04420  0.63500  Biso   1.000  H
  C217     1.0000 0.88320  0.13900  0.63970  Biso   1.000  C
  H137     1.0000 0.84340  0.14650  0.62210  Biso   1.000  H
  C218     1.0000 0.89700  0.18940  0.65740  Biso   1.000  C
  H138     1.0000 0.86720  0.23080  0.65180  Biso   1.000  H
  C219     1.0000 0.90250  0.24440  0.88450  Biso   1.000  C
  C220     1.0000 0.94190  0.18280  0.89280  Biso   1.000  C
  C221     1.0000 0.85440  0.28940  0.94440  Biso   1.000  C
  H139     1.0000 0.82670  0.33380  0.93800  Biso   1.000  H
  C222     1.0000 0.92720  0.17400  0.96020  Biso   1.000  C
  H140     1.0000 0.95460  0.12970  0.96670  Biso   1.000  H
  C223     1.0000 0.91810  0.28030  0.97290  Biso   1.000  C
  C224     1.0000 0.95650  0.21910  0.98230  Biso   1.000  C
  C225     1.0000 0.01530  0.20220  0.00780  Biso   1.000  C
  H141     1.0000 0.04100  0.16000  0.01390  Biso   1.000  H
  C226     1.0000 0.03600  0.25040  0.02470  Biso   1.000  C
  H142     1.0000 0.07610  0.24070  0.04250  Biso   1.000  H
  C227     1.0000 0.99760  0.31140  0.01510  Biso   1.000  C
  H143     1.0000 0.01200  0.34300  0.02660  Biso   1.000  H
  C228     1.0000 0.93960  0.32770  0.98940  Biso   1.000  C
  H144     1.0000 0.91440  0.36980  0.98280  Biso   1.000  H
  C229     1.0000 0.79520  0.26110  0.98730  Biso   1.000  C
  C230     1.0000 0.83430  0.20030  0.99540  Biso   1.000  C
  C231     1.0000 0.78890  0.16950  0.03680  Biso   1.000  C
  H145     1.0000 0.81570  0.12750  0.04300  Biso   1.000  H
  C232     1.0000 0.70730  0.19960  0.06770  Biso   1.000  C
  H146     1.0000 0.67690  0.17910  0.09650  Biso   1.000  H
  C233     1.0000 0.66910  0.25860  0.05780  Biso   1.000  C
  H147     1.0000 0.61140  0.27880  0.07890  Biso   1.000  H
  C234     1.0000 0.71290  0.29170  0.01650  Biso   1.000  C
  H148     1.0000 0.68570  0.33330  0.00970  Biso   1.000  H
  O27      1.0000 0.86810  0.32150  0.81670  Biso   1.000  O
  C235     1.0000 0.78790  0.33170  0.82100  Biso   1.000  C
  H149     1.0000 0.78860  0.29500  0.80020  Biso   1.000  H
  H150     1.0000 0.75090  0.33740  0.86480  Biso   1.000  H
  C236     1.0000 0.75640  0.38990  0.79050  Biso   1.000  C
  C237     1.0000 0.80530  0.42160  0.76110  Biso   1.000  C
  H151     1.0000 0.85940  0.40830  0.76020  Biso   1.000  H
  C238     1.0000 0.77460  0.47420  0.73230  Biso   1.000  C
  H152     1.0000 0.80830  0.49640  0.71170  Biso   1.000  H
  C239     1.0000 0.69650  0.49340  0.73380  Biso   1.000  C
  C240     1.0000 0.64950  0.45930  0.76190  Biso   1.000  C
  H153     1.0000 0.59630  0.47080  0.76120  Biso   1.000  H
  C241     1.0000 0.67900  0.40910  0.79070  Biso   1.000  C
  H154     1.0000 0.64510  0.38710  0.81130  Biso   1.000  H
  C242     1.0000 0.66310  0.55160  0.70620  Biso   1.000  C
  O28      1.0000 0.70270  0.58790  0.69650  Biso   1.000  O
  O29      1.0000 0.60070  0.56130  0.69630  Biso   1.000  O
  O30      1.0000 0.03490  0.07740  0.84890  Biso   1.000  O
  C243     1.0000 0.10200  0.07040  0.86860  Biso   1.000  C
  H155     1.0000 0.11820  0.10680  0.85950  Biso   1.000  H
  H156     1.0000 0.08480  0.06750  0.91360  Biso   1.000  H
  C244     1.0000 0.17200  0.01210  0.83410  Biso   1.000  C
  C245     1.0000 0.24490  0.01270  0.79120  Biso   1.000  C
  H157     1.0000 0.25070  0.05140  0.78220  Biso   1.000  H
  C246     1.0000 0.30800  0.95850  0.76200  Biso   1.000  C
  H158     1.0000 0.35710  0.96000  0.73210  Biso   1.000  H
  C247     1.0000 0.30290  0.90040  0.77450  Biso   1.000  C
  C248     1.0000 0.23020  0.89960  0.81620  Biso   1.000  C
  H159     1.0000 0.22470  0.86070  0.82410  Biso   1.000  H
  C249     1.0000 0.16620  0.95310  0.84630  Biso   1.000  C
  H160     1.0000 0.11700  0.95120  0.87570  Biso   1.000  H
  C250     1.0000 0.37340  0.84110  0.74460  Biso   1.000  C
  O31      1.0000 0.36560  0.79050  0.76280  Biso   1.000  O
  O32      1.0000 0.43570  0.84540  0.70460  Biso   1.000  O
  C251     1.0000 0.95260  0.96490  0.52420  Biso   1.000  C
  C252     1.0000 0.92150  0.02060  0.49960  Biso   1.000  C
  C253     1.0000 0.03120  0.94590  0.52450  Biso   1.000  C
  C254     1.0000 0.83670  0.05070  0.49700  Biso   1.000  C
  H161     1.0000 0.80180  0.02620  0.51600  Biso   1.000  H
  C255     1.0000 0.07290  0.88740  0.55120  Biso   1.000  C
  H162     1.0000 0.03750  0.86340  0.57060  Biso   1.000  H
  C256     1.0000 0.84850  0.05760  0.43050  Biso   1.000  C
  C257     1.0000 0.10500  0.90770  0.59440  Biso   1.000  C
  C258     1.0000 0.08850  0.89180  0.65580  Biso   1.000  C
  H163     1.0000 0.05340  0.87000  0.67370  Biso   1.000  H
  C259     1.0000 0.12700  0.91030  0.68870  Biso   1.000  C
  H164     1.0000 0.11930  0.89950  0.72940  Biso   1.000  H
  C260     1.0000 0.17620  0.94420  0.66250  Biso   1.000  C
  H165     1.0000 0.20160  0.95680  0.68500  Biso   1.000  H
  C261     1.0000 0.81310  0.04130  0.39590  Biso   1.000  C
  H166     1.0000 0.77920  0.01860  0.41370  Biso   1.000  H
  C262     1.0000 0.80100  0.11410  0.52870  Biso   1.000  C
  C263     1.0000 0.15220  0.84980  0.49730  Biso   1.000  C
  C264     1.0000 0.17930  0.78740  0.47580  Biso   1.000  C
  H167     1.0000 0.14720  0.76350  0.49420  Biso   1.000  H
  C265     1.0000 0.25370  0.76080  0.42750  Biso   1.000  C
  H168     1.0000 0.27250  0.71820  0.41230  Biso   1.000  H
  C266     1.0000 0.30130  0.79450  0.40060  Biso   1.000  C
  H169     1.0000 0.35200  0.77590  0.36670  Biso   1.000  H
  C267     1.0000 0.72580  0.14440  0.57620  Biso   1.000  C
  H170     1.0000 0.69140  0.12190  0.59340  Biso   1.000  H
  O33      1.0000 0.90500  0.92980  0.54680  Biso   1.000  O
  C268     1.0000 0.91860  0.88540  0.49470  Biso   1.000  C
  H171     1.0000 0.97670  0.85630  0.47640  Biso   1.000  H
  H172     1.0000 0.90350  0.90890  0.46200  Biso   1.000  H
  C269     1.0000 0.86440  0.85070  0.52330  Biso   1.000  C
  C270     1.0000 0.78010  0.88360  0.54280  Biso   1.000  C
  H173     1.0000 0.75930  0.92550  0.53390  Biso   1.000  H
  C271     1.0000 0.72550  0.85500  0.57560  Biso   1.000  C
  H174     1.0000 0.66800  0.87810  0.59050  Biso   1.000  H
  C272     1.0000 0.75650  0.79280  0.58620  Biso   1.000  C
  C273     1.0000 0.83880  0.76210  0.56300  Biso   1.000  C
  H175     1.0000 0.86160  0.71940  0.56870  Biso   1.000  H
  C274     1.0000 0.89000  0.79170  0.53120  Biso   1.000  C
  H176     1.0000 0.94730  0.76770  0.51400  Biso   1.000  H
  C275     1.0000 0.69650  0.76500  0.62470  Biso   1.000  C
  O34      1.0000 0.62120  0.80040  0.64650  Biso   1.000  O
  O35      1.0000 0.72620  0.70880  0.63070  Biso   1.000  O
  C276     1.0000 0.06290  0.52070  0.96720  Biso   1.000  C
  C277     1.0000 0.00740  0.52130  0.94320  Biso   1.000  C
  C278     1.0000 0.00270  0.54720  0.88330  Biso   1.000  C
  H177     1.0000 0.04690  0.56320  0.86150  Biso   1.000  H
  C279     1.0000 0.05520  0.49990  0.02660  Biso   1.000  C
  C280     1.0000 0.11010  0.49470  0.06010  Biso   1.000  C
  H178     1.0000 0.15440  0.51040  0.03780  Biso   1.000  H
  C281     1.0000 0.05500  0.52940  0.12410  Biso   1.000  C
  C282     1.0000 0.00650  0.49310  0.84450  Biso   1.000  C
  C283     1.0000 0.06230  0.46710  0.78730  Biso   1.000  C
  H179     1.0000 0.10300  0.48350  0.76620  Biso   1.000  H
  C284     1.0000 0.05970  0.41440  0.75850  Biso   1.000  C
  H180     1.0000 0.09890  0.39480  0.71870  Biso   1.000  H
  C285     1.0000 0.99730  0.39300  0.79100  Biso   1.000  C
  H181     1.0000 0.99380  0.35890  0.77260  Biso   1.000  H
  C286     1.0000 0.05800  0.58000  0.15190  Biso   1.000  C
  H182     1.0000 0.09920  0.59580  0.13060  Biso   1.000  H
  C287     1.0000 0.14360  0.42520  0.06880  Biso   1.000  C
  C288     1.0000 0.91830  0.59660  0.90010  Biso   1.000  C
  C289     1.0000 0.89840  0.65900  0.89080  Biso   1.000  C
  H183     1.0000 0.94020  0.67400  0.86920  Biso   1.000  H
  C290     1.0000 0.81720  0.69890  0.91330  Biso   1.000  C
  H184     1.0000 0.80370  0.74210  0.90860  Biso   1.000  H
  C291     1.0000 0.75540  0.67810  0.94230  Biso   1.000  C
  H185     1.0000 0.69970  0.70640  0.95590  Biso   1.000  H
  C292     1.0000 0.22520  0.38480  0.04830  Biso   1.000  C
  H186     1.0000 0.26740  0.39980  0.02800  Biso   1.000  H
  O36      1.0000 0.12300  0.54340  0.93790  Biso   1.000  O
  C293     1.0000 0.19710  0.49450  0.89570  Biso   1.000  C
  H187     1.0000 0.22160  0.46170  0.91880  Biso   1.000  H
  H188     1.0000 0.18420  0.47490  0.86610  Biso   1.000  H
  C294     1.0000 0.25550  0.52520  0.86210  Biso   1.000  C
  C295     1.0000 0.27520  0.56220  0.89470  Biso   1.000  C
  H189     1.0000 0.25310  0.56660  0.93850  Biso   1.000  H
  C296     1.0000 0.32560  0.59190  0.86410  Biso   1.000  C
  H190     1.0000 0.33910  0.61630  0.88690  Biso   1.000  H
  C297     1.0000 0.35790  0.58720  0.80010  Biso   1.000  C
  C298     1.0000 0.33850  0.54940  0.76720  Biso   1.000  C
  H191     1.0000 0.35950  0.54520  0.72340  Biso   1.000  H
  C299     1.0000 0.28780  0.51810  0.80030  Biso   1.000  C
  H192     1.0000 0.27620  0.49140  0.77850  Biso   1.000  H
  C300     1.0000 0.40880  0.62310  0.76760  Biso   1.000  C
  O37      1.0000 0.43070  0.62160  0.70970  Biso   1.000  O
  O38      1.0000 0.42370  0.65460  0.80040  Biso   1.000  O
