data_image0
_cell_length_a       18.0352
_cell_length_b       25.8676
_cell_length_c       18.0584
_cell_angle_alpha    90
_cell_angle_beta     118.861
_cell_angle_gamma    90

_symmetry_space_group_name_H-M    "P 1"
_symmetry_int_tables_number       1

loop_
  _symmetry_equiv_pos_as_xyz
  'x, y, z'

loop_
  _atom_site_label
  _atom_site_occupancy
  _atom_site_fract_x
  _atom_site_fract_y
  _atom_site_fract_z
  _atom_site_thermal_displace_type
  _atom_site_B_iso_or_equiv
  _atom_site_type_symbol
  Mn1      1.0000 0.92690  0.08314  0.80158  Biso   1.000  Mn
  Mn2      1.0000 0.89337  0.00004  0.10682  Biso   1.000  Mn
  Mn3      1.0000 0.80174  0.08320  0.92708  Biso   1.000  Mn
  S1       1.0000 0.53421  0.90386  0.53407  Biso   1.000  S
  S2       1.0000 0.43971  0.82377  0.77180  Biso   1.000  S
  S3       1.0000 0.77240  0.82386  0.44001  Biso   1.000  S
  O1       1.0000 0.91579  0.04786  0.02127  Biso   1.000  O
  O2       1.0000 0.02073  0.04811  0.91508  Biso   1.000  O
  O3       1.0000 0.89050  0.96758  0.89010  Biso   1.000  O
  O4       1.0000 0.62930  0.65311  0.55920  Biso   1.000  O
  O5       1.0000 0.23030  0.88629  0.98130  Biso   1.000  O
  O6       1.0000 0.72040  0.01703  0.90460  Biso   1.000  O
  O7       1.0000 0.83730  0.04624  0.83710  Biso   1.000  O
  O8       1.0000 0.55910  0.65322  0.62900  Biso   1.000  O
  O9       1.0000 0.98190  0.88561  0.23110  Biso   1.000  O
  O10      1.0000 0.90500  0.01695  0.72110  Biso   1.000  O
  O11      1.0000 0.19200  0.94820  0.88770  Biso   1.000  O
  O12      1.0000 0.88720  0.94830  0.19180  Biso   1.000  O
  O13      1.0000 0.79310  0.95812  0.00420  Biso   1.000  O
  O14      1.0000 0.00350  0.95819  0.79250  Biso   1.000  O
  O15      1.0000 0.54040  0.91909  0.46060  Biso   1.000  O
  O16      1.0000 0.46100  0.91918  0.54000  Biso   1.000  O
  O17      1.0000 0.39610  0.83130  0.68120  Biso   1.000  O
  O18      1.0000 0.47020  0.77321  0.80500  Biso   1.000  O
  O19      1.0000 0.68420  0.82970  0.39770  Biso   1.000  O
  O20      1.0000 0.80510  0.77263  0.46980  Biso   1.000  O
  C1       1.0000 0.83570  0.99622  0.83550  Biso   1.000  C
  C2       1.0000 0.76110  0.97305  0.76130  Biso   1.000  C
  C3       1.0000 0.69990  0.00270  0.69990  Biso   1.000  C
  H1       1.0000 0.70530  0.03850  0.70510  Biso   1.000  H
  C4       1.0000 0.63040  0.98249  0.63050  Biso   1.000  C
  H2       1.0000 0.58960  0.00380  0.58970  Biso   1.000  H
  C5       1.0000 0.62380  0.92861  0.62390  Biso   1.000  C
  C6       1.0000 0.68560  0.89773  0.68520  Biso   1.000  C
  H3       1.0000 0.68130  0.86190  0.68040  Biso   1.000  H
  C7       1.0000 0.75230  0.91975  0.75210  Biso   1.000  C
  H4       1.0000 0.79330  0.89860  0.79300  Biso   1.000  H
  C8       1.0000 0.54520  0.83693  0.54520  Biso   1.000  C
  C9       1.0000 0.51370  0.81048  0.59040  Biso   1.000  C
  H5       1.0000 0.48430  0.82820  0.61290  Biso   1.000  H
  C10      1.0000 0.52570  0.75839  0.60240  Biso   1.000  C
  H6       1.0000 0.50260  0.74080  0.63130  Biso   1.000  H
  C11      1.0000 0.57190  0.73137  0.57200  Biso   1.000  C
  C12      1.0000 0.60300  0.75818  0.52620  Biso   1.000  C
  H7       1.0000 0.63270  0.74050  0.50390  Biso   1.000  H
  C13      1.0000 0.59030  0.81079  0.51330  Biso   1.000  C
  H8       1.0000 0.61220  0.82850  0.48330  Biso   1.000  H
  C14      1.0000 0.58780  0.67495  0.58750  Biso   1.000  C
  C15      1.0000 0.73170  0.97360  0.93890  Biso   1.000  C
  C16      1.0000 0.65760  0.93700  0.89570  Biso   1.000  C
  C17      1.0000 0.59240  0.94560  0.81410  Biso   1.000  C
  H9       1.0000 0.59290  0.97560  0.78600  Biso   1.000  H
  C18      1.0000 0.52570  0.91030  0.77300  Biso   1.000  C
  H10      1.0000 0.48340  0.91670  0.71790  Biso   1.000  H
  C19      1.0000 0.52300  0.86700  0.81390  Biso   1.000  C
  C20      1.0000 0.58650  0.85700  0.89440  Biso   1.000  C
  H11      1.0000 0.58370  0.82700  0.92130  Biso   1.000  H
  C21      1.0000 0.65760  0.89150  0.93880  Biso   1.000  C
  H12      1.0000 0.70100  0.88410  0.99290  Biso   1.000  H
  C22      1.0000 0.37580  0.84570  0.81370  Biso   1.000  C
  C23      1.0000 0.32100  0.88460  0.77410  Biso   1.000  C
  H13      1.0000 0.31500  0.89740  0.72330  Biso   1.000  H
  C24      1.0000 0.27360  0.90570  0.80830  Biso   1.000  C
  H14      1.0000 0.23860  0.93400  0.78300  Biso   1.000  H
  C25      1.0000 0.27940  0.88370  0.88130  Biso   1.000  C
  C26      1.0000 0.33090  0.84380  0.91840  Biso   1.000  C
  H15      1.0000 0.33380  0.82900  0.96670  Biso   1.000  H
  C27      1.0000 0.38100  0.82400  0.88460  Biso   1.000  C
  H16      1.0000 0.41730  0.79630  0.91050  Biso   1.000  H
  C28      1.0000 0.22960  0.90790  0.92020  Biso   1.000  C
  C29      1.0000 0.91960  0.90780  0.22880  Biso   1.000  C
  C30      1.0000 0.88190  0.88350  0.27970  Biso   1.000  C
  C31      1.0000 0.81040  0.90450  0.27350  Biso   1.000  C
  H17      1.0000 0.78570  0.93280  0.23820  Biso   1.000  H
  C32      1.0000 0.77330  0.88410  0.31990  Biso   1.000  C
  H18      1.0000 0.72210  0.89710  0.31260  Biso   1.000  H
  C33      1.0000 0.81270  0.84570  0.37470  Biso   1.000  C
  C34      1.0000 0.88450  0.82420  0.38230  Biso   1.000  C
  H19      1.0000 0.91110  0.79740  0.42040  Biso   1.000  H
  C35      1.0000 0.91930  0.84340  0.33080  Biso   1.000  C
  H20      1.0000 0.96700  0.82810  0.33310  Biso   1.000  H
  C36      1.0000 0.81410  0.86730  0.52300  Biso   1.000  C
  C37      1.0000 0.77410  0.91030  0.52650  Biso   1.000  C
  H21      1.0000 0.71900  0.91690  0.48450  Biso   1.000  H
  C38      1.0000 0.81600  0.94510  0.59410  Biso   1.000  C
  H22      1.0000 0.78790  0.97510  0.59510  Biso   1.000  H
  C39      1.0000 0.89650  0.93670  0.65870  Biso   1.000  C
  C40      1.0000 0.94010  0.89200  0.65780  Biso   1.000  C
  H23      1.0000 0.99470  0.88490  0.70060  Biso   1.000  H
  C41      1.0000 0.89500  0.85730  0.58600  Biso   1.000  C
  H24      1.0000 0.92180  0.82730  0.58290  Biso   1.000  H
  C42      1.0000 0.94010  0.97430  0.73210  Biso   1.000  C
  Mn4      1.0000 0.57310  0.58314  0.69842  Biso   1.000  Mn
  Mn5      1.0000 0.60663  0.50004  0.39318  Biso   1.000  Mn
  Mn6      1.0000 0.69826  0.58320  0.57292  Biso   1.000  Mn
  S4       1.0000 0.96579  0.40386  0.96593  Biso   1.000  S
  S5       1.0000 0.06029  0.32377  0.72820  Biso   1.000  S
  S6       1.0000 0.72760  0.32386  0.05999  Biso   1.000  S
  O21      1.0000 0.58421  0.54786  0.47873  Biso   1.000  O
  O22      1.0000 0.47927  0.54811  0.58492  Biso   1.000  O
  O23      1.0000 0.60950  0.46758  0.60990  Biso   1.000  O
  O24      1.0000 0.87070  0.15311  0.94080  Biso   1.000  O
  O25      1.0000 0.26970  0.38629  0.51870  Biso   1.000  O
  O26      1.0000 0.77960  0.51703  0.59540  Biso   1.000  O
  O27      1.0000 0.66270  0.54624  0.66290  Biso   1.000  O
  O28      1.0000 0.94090  0.15322  0.87100  Biso   1.000  O
  O29      1.0000 0.51810  0.38561  0.26890  Biso   1.000  O
  O30      1.0000 0.59500  0.51695  0.77890  Biso   1.000  O
  O31      1.0000 0.30800  0.44820  0.61230  Biso   1.000  O
  O32      1.0000 0.61280  0.44830  0.30820  Biso   1.000  O
  O33      1.0000 0.70690  0.45812  0.49580  Biso   1.000  O
  O34      1.0000 0.49650  0.45819  0.70750  Biso   1.000  O
  O35      1.0000 0.95960  0.41909  0.03940  Biso   1.000  O
  O36      1.0000 0.03900  0.41918  0.96000  Biso   1.000  O
  O37      1.0000 0.10390  0.33130  0.81880  Biso   1.000  O
  O38      1.0000 0.02980  0.27321  0.69500  Biso   1.000  O
  O39      1.0000 0.81580  0.32970  0.10230  Biso   1.000  O
  O40      1.0000 0.69490  0.27263  0.03020  Biso   1.000  O
  C43      1.0000 0.66430  0.49622  0.66450  Biso   1.000  C
  C44      1.0000 0.73890  0.47305  0.73870  Biso   1.000  C
  C45      1.0000 0.80010  0.50270  0.80010  Biso   1.000  C
  H25      1.0000 0.79470  0.53850  0.79490  Biso   1.000  H
  C46      1.0000 0.86960  0.48249  0.86950  Biso   1.000  C
  H26      1.0000 0.91040  0.50380  0.91030  Biso   1.000  H
  C47      1.0000 0.87620  0.42861  0.87610  Biso   1.000  C
  C48      1.0000 0.81440  0.39773  0.81480  Biso   1.000  C
  H27      1.0000 0.81870  0.36190  0.81960  Biso   1.000  H
  C49      1.0000 0.74770  0.41975  0.74790  Biso   1.000  C
  H28      1.0000 0.70670  0.39860  0.70700  Biso   1.000  H
  C50      1.0000 0.95480  0.33693  0.95480  Biso   1.000  C
  C51      1.0000 0.98630  0.31048  0.90960  Biso   1.000  C
  H29      1.0000 0.01570  0.32820  0.88710  Biso   1.000  H
  C52      1.0000 0.97430  0.25839  0.89760  Biso   1.000  C
  H30      1.0000 0.99740  0.24080  0.86870  Biso   1.000  H
  C53      1.0000 0.92810  0.23137  0.92800  Biso   1.000  C
  C54      1.0000 0.89700  0.25818  0.97380  Biso   1.000  C
  H31      1.0000 0.86730  0.24050  0.99610  Biso   1.000  H
  C55      1.0000 0.90970  0.31079  0.98670  Biso   1.000  C
  H32      1.0000 0.88780  0.32850  0.01670  Biso   1.000  H
  C56      1.0000 0.91220  0.17495  0.91250  Biso   1.000  C
  C57      1.0000 0.76830  0.47360  0.56110  Biso   1.000  C
  C58      1.0000 0.84240  0.43700  0.60430  Biso   1.000  C
  C59      1.0000 0.90760  0.44560  0.68590  Biso   1.000  C
  H33      1.0000 0.90710  0.47560  0.71400  Biso   1.000  H
  C60      1.0000 0.97430  0.41030  0.72700  Biso   1.000  C
  H34      1.0000 0.01660  0.41670  0.78210  Biso   1.000  H
  C61      1.0000 0.97700  0.36700  0.68610  Biso   1.000  C
  C62      1.0000 0.91350  0.35700  0.60560  Biso   1.000  C
  H35      1.0000 0.91630  0.32700  0.57870  Biso   1.000  H
  C63      1.0000 0.84240  0.39150  0.56120  Biso   1.000  C
  H36      1.0000 0.79900  0.38410  0.50710  Biso   1.000  H
  C64      1.0000 0.12420  0.34570  0.68630  Biso   1.000  C
  C65      1.0000 0.17900  0.38460  0.72590  Biso   1.000  C
  H37      1.0000 0.18500  0.39740  0.77670  Biso   1.000  H
  C66      1.0000 0.22640  0.40570  0.69170  Biso   1.000  C
  H38      1.0000 0.26140  0.43400  0.71700  Biso   1.000  H
  C67      1.0000 0.22060  0.38370  0.61870  Biso   1.000  C
  C68      1.0000 0.16910  0.34380  0.58160  Biso   1.000  C
  H39      1.0000 0.16620  0.32900  0.53330  Biso   1.000  H
  C69      1.0000 0.11900  0.32400  0.61540  Biso   1.000  C
  H40      1.0000 0.08270  0.29630  0.58950  Biso   1.000  H
  C70      1.0000 0.27040  0.40790  0.57980  Biso   1.000  C
  C71      1.0000 0.58040  0.40780  0.27120  Biso   1.000  C
  C72      1.0000 0.61810  0.38350  0.22030  Biso   1.000  C
  C73      1.0000 0.68960  0.40450  0.22650  Biso   1.000  C
  H41      1.0000 0.71430  0.43280  0.26180  Biso   1.000  H
  C74      1.0000 0.72670  0.38410  0.18010  Biso   1.000  C
  H42      1.0000 0.77790  0.39710  0.18740  Biso   1.000  H
  C75      1.0000 0.68730  0.34570  0.12530  Biso   1.000  C
  C76      1.0000 0.61550  0.32420  0.11770  Biso   1.000  C
  H43      1.0000 0.58890  0.29740  0.07960  Biso   1.000  H
  C77      1.0000 0.58070  0.34340  0.16920  Biso   1.000  C
  H44      1.0000 0.53300  0.32810  0.16690  Biso   1.000  H
  C78      1.0000 0.68590  0.36730  0.97700  Biso   1.000  C
  C79      1.0000 0.72590  0.41030  0.97350  Biso   1.000  C
  H45      1.0000 0.78100  0.41690  0.01550  Biso   1.000  H
  C80      1.0000 0.68400  0.44510  0.90590  Biso   1.000  C
  H46      1.0000 0.71210  0.47510  0.90490  Biso   1.000  H
  C81      1.0000 0.60350  0.43670  0.84130  Biso   1.000  C
  C82      1.0000 0.55990  0.39200  0.84220  Biso   1.000  C
  H47      1.0000 0.50530  0.38490  0.79940  Biso   1.000  H
  C83      1.0000 0.60500  0.35730  0.91400  Biso   1.000  C
  H48      1.0000 0.57820  0.32730  0.91710  Biso   1.000  H
  C84      1.0000 0.55990  0.47430  0.76790  Biso   1.000  C
  Mn7      1.0000 0.07310  0.91686  0.19842  Biso   1.000  Mn
  Mn8      1.0000 0.10663  0.99996  0.89318  Biso   1.000  Mn
  Mn9      1.0000 0.19826  0.91680  0.07292  Biso   1.000  Mn
  S7       1.0000 0.46579  0.09614  0.46593  Biso   1.000  S
  S8       1.0000 0.56029  0.17623  0.22820  Biso   1.000  S
  S9       1.0000 0.22760  0.17614  0.55999  Biso   1.000  S
  O41      1.0000 0.08421  0.95214  0.97873  Biso   1.000  O
  O42      1.0000 0.97927  0.95189  0.08492  Biso   1.000  O
  O43      1.0000 0.10950  0.03242  0.10990  Biso   1.000  O
  O44      1.0000 0.37070  0.34689  0.44080  Biso   1.000  O
  O45      1.0000 0.76970  0.11371  0.01870  Biso   1.000  O
  O46      1.0000 0.27960  0.98297  0.09540  Biso   1.000  O
  O47      1.0000 0.16270  0.95376  0.16290  Biso   1.000  O
  O48      1.0000 0.44090  0.34678  0.37100  Biso   1.000  O
  O49      1.0000 0.01810  0.11439  0.76890  Biso   1.000  O
  O50      1.0000 0.09500  0.98305  0.27890  Biso   1.000  O
  O51      1.0000 0.80800  0.05180  0.11230  Biso   1.000  O
  O52      1.0000 0.11280  0.05170  0.80820  Biso   1.000  O
  O53      1.0000 0.20690  0.04188  0.99580  Biso   1.000  O
  O54      1.0000 0.99650  0.04181  0.20750  Biso   1.000  O
  O55      1.0000 0.45960  0.08091  0.53940  Biso   1.000  O
  O56      1.0000 0.53900  0.08082  0.46000  Biso   1.000  O
  O57      1.0000 0.60390  0.16870  0.31880  Biso   1.000  O
  O58      1.0000 0.52980  0.22679  0.19500  Biso   1.000  O
  O59      1.0000 0.31580  0.17030  0.60230  Biso   1.000  O
  O60      1.0000 0.19490  0.22737  0.53020  Biso   1.000  O
  C85      1.0000 0.16430  0.00378  0.16450  Biso   1.000  C
  C86      1.0000 0.23890  0.02695  0.23870  Biso   1.000  C
  C87      1.0000 0.30010  0.99730  0.30010  Biso   1.000  C
  H49      1.0000 0.29470  0.96150  0.29490  Biso   1.000  H
  C88      1.0000 0.36960  0.01751  0.36950  Biso   1.000  C
  H50      1.0000 0.41040  0.99620  0.41030  Biso   1.000  H
  C89      1.0000 0.37620  0.07139  0.37610  Biso   1.000  C
  C90      1.0000 0.31440  0.10227  0.31480  Biso   1.000  C
  H51      1.0000 0.31870  0.13810  0.31960  Biso   1.000  H
  C91      1.0000 0.24770  0.08025  0.24790  Biso   1.000  C
  H52      1.0000 0.20670  0.10140  0.20700  Biso   1.000  H
  C92      1.0000 0.45480  0.16307  0.45480  Biso   1.000  C
  C93      1.0000 0.48630  0.18952  0.40960  Biso   1.000  C
  H53      1.0000 0.51570  0.17180  0.38710  Biso   1.000  H
  C94      1.0000 0.47430  0.24161  0.39760  Biso   1.000  C
  H54      1.0000 0.49740  0.25920  0.36870  Biso   1.000  H
  C95      1.0000 0.42810  0.26863  0.42800  Biso   1.000  C
  C96      1.0000 0.39700  0.24182  0.47380  Biso   1.000  C
  H55      1.0000 0.36730  0.25950  0.49610  Biso   1.000  H
  C97      1.0000 0.40970  0.18921  0.48670  Biso   1.000  C
  H56      1.0000 0.38780  0.17150  0.51670  Biso   1.000  H
  C98      1.0000 0.41220  0.32505  0.41250  Biso   1.000  C
  C99      1.0000 0.26830  0.02640  0.06110  Biso   1.000  C
  C100     1.0000 0.34240  0.06300  0.10430  Biso   1.000  C
  C101     1.0000 0.40760  0.05440  0.18590  Biso   1.000  C
  H57      1.0000 0.40710  0.02440  0.21400  Biso   1.000  H
  C102     1.0000 0.47430  0.08970  0.22700  Biso   1.000  C
  H58      1.0000 0.51660  0.08330  0.28210  Biso   1.000  H
  C103     1.0000 0.47700  0.13300  0.18610  Biso   1.000  C
  C104     1.0000 0.41350  0.14300  0.10560  Biso   1.000  C
  H59      1.0000 0.41630  0.17300  0.07870  Biso   1.000  H
  C105     1.0000 0.34240  0.10850  0.06120  Biso   1.000  C
  H60      1.0000 0.29900  0.11590  0.00710  Biso   1.000  H
  C106     1.0000 0.62420  0.15430  0.18630  Biso   1.000  C
  C107     1.0000 0.67900  0.11540  0.22590  Biso   1.000  C
  H61      1.0000 0.68500  0.10260  0.27670  Biso   1.000  H
  C108     1.0000 0.72640  0.09430  0.19170  Biso   1.000  C
  H62      1.0000 0.76140  0.06600  0.21700  Biso   1.000  H
  C109     1.0000 0.72060  0.11630  0.11870  Biso   1.000  C
  C110     1.0000 0.66910  0.15620  0.08160  Biso   1.000  C
  H63      1.0000 0.66620  0.17100  0.03330  Biso   1.000  H
  C111     1.0000 0.61900  0.17600  0.11540  Biso   1.000  C
  H64      1.0000 0.58270  0.20370  0.08950  Biso   1.000  H
  C112     1.0000 0.77040  0.09210  0.07980  Biso   1.000  C
  C113     1.0000 0.08040  0.09220  0.77120  Biso   1.000  C
  C114     1.0000 0.11810  0.11650  0.72030  Biso   1.000  C
  C115     1.0000 0.18960  0.09550  0.72650  Biso   1.000  C
  H65      1.0000 0.21430  0.06720  0.76180  Biso   1.000  H
  C116     1.0000 0.22670  0.11590  0.68010  Biso   1.000  C
  H66      1.0000 0.27790  0.10290  0.68740  Biso   1.000  H
  C117     1.0000 0.18730  0.15430  0.62530  Biso   1.000  C
  C118     1.0000 0.11550  0.17580  0.61770  Biso   1.000  C
  H67      1.0000 0.08890  0.20260  0.57960  Biso   1.000  H
  C119     1.0000 0.08070  0.15660  0.66920  Biso   1.000  C
  H68      1.0000 0.03300  0.17190  0.66690  Biso   1.000  H
  C120     1.0000 0.18590  0.13270  0.47700  Biso   1.000  C
  C121     1.0000 0.22590  0.08970  0.47350  Biso   1.000  C
  H69      1.0000 0.28100  0.08310  0.51550  Biso   1.000  H
  C122     1.0000 0.18400  0.05490  0.40590  Biso   1.000  C
  H70      1.0000 0.21210  0.02490  0.40490  Biso   1.000  H
  C123     1.0000 0.10350  0.06330  0.34130  Biso   1.000  C
  C124     1.0000 0.05990  0.10800  0.34220  Biso   1.000  C
  H71      1.0000 0.00530  0.11510  0.29940  Biso   1.000  H
  C125     1.0000 0.10500  0.14270  0.41400  Biso   1.000  C
  H72      1.0000 0.07820  0.17270  0.41710  Biso   1.000  H
  C126     1.0000 0.05990  0.02570  0.26790  Biso   1.000  C
  Mn10     1.0000 0.42690  0.41686  0.30158  Biso   1.000  Mn
  Mn11     1.0000 0.39337  0.49996  0.60682  Biso   1.000  Mn
  Mn12     1.0000 0.30174  0.41680  0.42708  Biso   1.000  Mn
  S10      1.0000 0.03421  0.59614  0.03407  Biso   1.000  S
  S11      1.0000 0.93971  0.67623  0.27180  Biso   1.000  S
  S12      1.0000 0.27240  0.67614  0.94001  Biso   1.000  S
  O61      1.0000 0.41579  0.45214  0.52127  Biso   1.000  O
  O62      1.0000 0.52073  0.45189  0.41508  Biso   1.000  O
  O63      1.0000 0.39050  0.53242  0.39010  Biso   1.000  O
  O64      1.0000 0.12930  0.84689  0.05920  Biso   1.000  O
  O65      1.0000 0.73030  0.61371  0.48130  Biso   1.000  O
  O66      1.0000 0.22040  0.48297  0.40460  Biso   1.000  O
  O67      1.0000 0.33730  0.45376  0.33710  Biso   1.000  O
  O68      1.0000 0.05910  0.84678  0.12900  Biso   1.000  O
  O69      1.0000 0.48190  0.61439  0.73110  Biso   1.000  O
  O70      1.0000 0.40500  0.48305  0.22110  Biso   1.000  O
  O71      1.0000 0.69200  0.55180  0.38770  Biso   1.000  O
  O72      1.0000 0.38720  0.55170  0.69180  Biso   1.000  O
  O73      1.0000 0.29310  0.54188  0.50420  Biso   1.000  O
  O74      1.0000 0.50350  0.54181  0.29250  Biso   1.000  O
  O75      1.0000 0.04040  0.58091  0.96060  Biso   1.000  O
  O76      1.0000 0.96100  0.58082  0.04000  Biso   1.000  O
  O77      1.0000 0.89610  0.66870  0.18120  Biso   1.000  O
  O78      1.0000 0.97020  0.72679  0.30500  Biso   1.000  O
  O79      1.0000 0.18420  0.67030  0.89770  Biso   1.000  O
  O80      1.0000 0.30510  0.72737  0.96980  Biso   1.000  O
  C127     1.0000 0.33570  0.50378  0.33550  Biso   1.000  C
  C128     1.0000 0.26110  0.52695  0.26130  Biso   1.000  C
  C129     1.0000 0.19990  0.49730  0.19990  Biso   1.000  C
  H73      1.0000 0.20530  0.46150  0.20510  Biso   1.000  H
  C130     1.0000 0.13040  0.51751  0.13050  Biso   1.000  C
  H74      1.0000 0.08960  0.49620  0.08970  Biso   1.000  H
  C131     1.0000 0.12380  0.57139  0.12390  Biso   1.000  C
  C132     1.0000 0.18560  0.60227  0.18520  Biso   1.000  C
  H75      1.0000 0.18130  0.63810  0.18040  Biso   1.000  H
  C133     1.0000 0.25230  0.58025  0.25210  Biso   1.000  C
  H76      1.0000 0.29330  0.60140  0.29300  Biso   1.000  H
  C134     1.0000 0.04520  0.66307  0.04520  Biso   1.000  C
  C135     1.0000 0.01370  0.68952  0.09040  Biso   1.000  C
  H77      1.0000 0.98430  0.67180  0.11290  Biso   1.000  H
  C136     1.0000 0.02570  0.74161  0.10240  Biso   1.000  C
  H78      1.0000 0.00260  0.75920  0.13130  Biso   1.000  H
  C137     1.0000 0.07190  0.76863  0.07200  Biso   1.000  C
  C138     1.0000 0.10300  0.74182  0.02620  Biso   1.000  C
  H79      1.0000 0.13270  0.75950  0.00390  Biso   1.000  H
  C139     1.0000 0.09030  0.68921  0.01330  Biso   1.000  C
  H80      1.0000 0.11220  0.67150  0.98330  Biso   1.000  H
  C140     1.0000 0.08780  0.82505  0.08750  Biso   1.000  C
  C141     1.0000 0.23170  0.52640  0.43890  Biso   1.000  C
  C142     1.0000 0.15760  0.56300  0.39570  Biso   1.000  C
  C143     1.0000 0.09240  0.55440  0.31410  Biso   1.000  C
  H81      1.0000 0.09290  0.52440  0.28600  Biso   1.000  H
  C144     1.0000 0.02570  0.58970  0.27300  Biso   1.000  C
  H82      1.0000 0.98340  0.58330  0.21790  Biso   1.000  H
  C145     1.0000 0.02300  0.63300  0.31390  Biso   1.000  C
  C146     1.0000 0.08650  0.64300  0.39440  Biso   1.000  C
  H83      1.0000 0.08370  0.67300  0.42130  Biso   1.000  H
  C147     1.0000 0.15760  0.60850  0.43880  Biso   1.000  C
  H84      1.0000 0.20100  0.61590  0.49290  Biso   1.000  H
  C148     1.0000 0.87580  0.65430  0.31370  Biso   1.000  C
  C149     1.0000 0.82100  0.61540  0.27410  Biso   1.000  C
  H85      1.0000 0.81500  0.60260  0.22330  Biso   1.000  H
  C150     1.0000 0.77360  0.59430  0.30830  Biso   1.000  C
  H86      1.0000 0.73860  0.56600  0.28300  Biso   1.000  H
  C151     1.0000 0.77940  0.61630  0.38130  Biso   1.000  C
  C152     1.0000 0.83090  0.65620  0.41840  Biso   1.000  C
  H87      1.0000 0.83380  0.67100  0.46670  Biso   1.000  H
  C153     1.0000 0.88100  0.67600  0.38460  Biso   1.000  C
  H88      1.0000 0.91730  0.70370  0.41050  Biso   1.000  H
  C154     1.0000 0.72960  0.59210  0.42020  Biso   1.000  C
  C155     1.0000 0.41960  0.59220  0.72880  Biso   1.000  C
  C156     1.0000 0.38190  0.61650  0.77970  Biso   1.000  C
  C157     1.0000 0.31040  0.59550  0.77350  Biso   1.000  C
  H89      1.0000 0.28570  0.56720  0.73820  Biso   1.000  H
  C158     1.0000 0.27330  0.61590  0.81990  Biso   1.000  C
  H90      1.0000 0.22210  0.60290  0.81260  Biso   1.000  H
  C159     1.0000 0.31270  0.65430  0.87470  Biso   1.000  C
  C160     1.0000 0.38450  0.67580  0.88230  Biso   1.000  C
  H91      1.0000 0.41110  0.70260  0.92040  Biso   1.000  H
  C161     1.0000 0.41930  0.65660  0.83080  Biso   1.000  C
  H92      1.0000 0.46700  0.67190  0.83310  Biso   1.000  H
  C162     1.0000 0.31410  0.63270  0.02300  Biso   1.000  C
  C163     1.0000 0.27410  0.58970  0.02650  Biso   1.000  C
  H93      1.0000 0.21900  0.58310  0.98450  Biso   1.000  H
  C164     1.0000 0.31600  0.55490  0.09410  Biso   1.000  C
  H94      1.0000 0.28790  0.52490  0.09510  Biso   1.000  H
  C165     1.0000 0.39650  0.56330  0.15870  Biso   1.000  C
  C166     1.0000 0.44010  0.60800  0.15780  Biso   1.000  C
  H95      1.0000 0.49470  0.61510  0.20060  Biso   1.000  H
  C167     1.0000 0.39500  0.64270  0.08600  Biso   1.000  C
  H96      1.0000 0.42180  0.67270  0.08290  Biso   1.000  H
  C168     1.0000 0.44010  0.52570  0.23210  Biso   1.000  C
  Mn13     1.0000 0.00000  0.00000  0.00000  Biso   1.000  Mn
  Mn14     1.0000 0.50000  0.50000  0.50000  Biso   1.000  Mn
