data_image0
_cell_length_a       15.9995
_cell_length_b       18.1852
_cell_length_c       24.8199
_cell_angle_alpha    90
_cell_angle_beta     102.917
_cell_angle_gamma    90

_symmetry_space_group_name_H-M    "P 1"
_symmetry_int_tables_number       1

loop_
  _symmetry_equiv_pos_as_xyz
  'x, y, z'

loop_
  _atom_site_label
  _atom_site_occupancy
  _atom_site_fract_x
  _atom_site_fract_y
  _atom_site_fract_z
  _atom_site_thermal_displace_type
  _atom_site_B_iso_or_equiv
  _atom_site_type_symbol
  Mn1      1.0000 0.44614  0.92938  0.52057  Biso   1.000  Mn
  Mn2      1.0000 0.59070  0.88112  0.42317  Biso   1.000  Mn
  Mn3      1.0000 0.53544  0.75007  0.51480  Biso   1.000  Mn
  S1       1.0000 0.09855  0.74178  0.62098  Biso   1.000  S
  S2       1.0000 0.48144  0.80093  0.86260  Biso   1.000  S
  S3       1.0000 0.95446  0.00258  0.70564  Biso   1.000  S
  O1       1.0000 0.46072  0.87809  0.59708  Biso   1.000  O
  O2       1.0000 0.85373  0.63772  0.96928  Biso   1.000  O
  O3       1.0000 0.53699  0.86308  0.49104  Biso   1.000  O
  H1       1.0000 0.58740  0.87750  0.51940  Biso   1.000  H
  O4       1.0000 0.55362  0.00197  0.55219  Biso   1.000  O
  O5       1.0000 0.35313  0.00168  0.54883  Biso   1.000  O
  O6       1.0000 0.05600  0.70850  0.86898  Biso   1.000  O
  O7       1.0000 0.70835  0.83110  0.46863  Biso   1.000  O
  O8       1.0000 0.53022  0.06763  0.62384  Biso   1.000  O
  O9       1.0000 0.33445  0.05156  0.62591  Biso   1.000  O
  O10      1.0000 0.02950  0.78820  0.93148  Biso   1.000  O
  O11      1.0000 0.67376  0.76009  0.53476  Biso   1.000  O
  O12      1.0000 0.89590  0.75413  0.99045  Biso   1.000  O
  O13      1.0000 0.53258  0.77201  0.60128  Biso   1.000  O
  O14      1.0000 0.12440  0.68238  0.59034  Biso   1.000  O
  O15      1.0000 0.10280  0.73250  0.67983  Biso   1.000  O
  O16      1.0000 0.42550  0.74110  0.86884  Biso   1.000  O
  O17      1.0000 0.46440  0.87270  0.88122  Biso   1.000  O
  O18      1.0000 0.97940  0.07210  0.73271  Biso   1.000  O
  O19      1.0000 0.99490  0.97810  0.66206  Biso   1.000  O
  C1       1.0000 0.32170  0.00050  0.59112  Biso   1.000  C
  C2       1.0000 0.26450  0.93650  0.59917  Biso   1.000  C
  C3       1.0000 0.23750  0.88700  0.55699  Biso   1.000  C
  H2       1.0000 0.25410  0.89290  0.52370  Biso   1.000  H
  C4       1.0000 0.18620  0.82880  0.56379  Biso   1.000  C
  H3       1.0000 0.16880  0.79520  0.53520  Biso   1.000  H
  C5       1.0000 0.16060  0.81980  0.61233  Biso   1.000  C
  C6       1.0000 0.18620  0.86880  0.65470  Biso   1.000  C
  H4       1.0000 0.16810  0.86270  0.68750  Biso   1.000  H
  C7       1.0000 0.23910  0.92810  0.64905  Biso   1.000  C
  H5       1.0000 0.25700  0.96110  0.67790  Biso   1.000  H
  C8       1.0000 0.99090  0.76230  0.58830  Biso   1.000  C
  C9       1.0000 0.96850  0.78320  0.53450  Biso   1.000  C
  H6       1.0000 0.01050  0.78960  0.51450  Biso   1.000  H
  C10      1.0000 0.88250  0.79510  0.50920  Biso   1.000  C
  H7       1.0000 0.86730  0.81160  0.47280  Biso   1.000  H
  C11      1.0000 0.81930  0.78200  0.53883  Biso   1.000  C
  C12      1.0000 0.84210  0.75830  0.59190  Biso   1.000  C
  H8       1.0000 0.79970  0.74740  0.61090  Biso   1.000  H
  C13      1.0000 0.92870  0.74990  0.61871  Biso   1.000  C
  H9       1.0000 0.94410  0.73640  0.65580  Biso   1.000  H
  C14      1.0000 0.72500  0.79210  0.51121  Biso   1.000  C
  C15      1.0000 0.49590  0.82170  0.62162  Biso   1.000  C
  C16      1.0000 0.49300  0.81680  0.68188  Biso   1.000  C
  C17      1.0000 0.46410  0.87570  0.70764  Biso   1.000  C
  H10      1.0000 0.44670  0.91850  0.68780  Biso   1.000  H
  C18      1.0000 0.46070  0.87170  0.76337  Biso   1.000  C
  H11      1.0000 0.44120  0.91140  0.78080  Biso   1.000  H
  C19      1.0000 0.48690  0.80750  0.79200  Biso   1.000  C
  C20      1.0000 0.51480  0.74720  0.76686  Biso   1.000  C
  H12      1.0000 0.53110  0.70410  0.78670  Biso   1.000  H
  C21      1.0000 0.51820  0.75190  0.71106  Biso   1.000  C
  H13      1.0000 0.53720  0.71210  0.69360  Biso   1.000  H
  C22      1.0000 0.58640  0.77370  0.89540  Biso   1.000  C
  C23      1.0000 0.64810  0.82770  0.91561  Biso   1.000  C
  H14      1.0000 0.63340  0.87720  0.91270  Biso   1.000  H
  C24      1.0000 0.73090  0.80630  0.93984  Biso   1.000  C
  H15      1.0000 0.77240  0.84130  0.95410  Biso   1.000  H
  C25      1.0000 0.75150  0.73090  0.94263  Biso   1.000  C
  C26      1.0000 0.69070  0.67850  0.92177  Biso   1.000  C
  H16      1.0000 0.70560  0.62900  0.92290  Biso   1.000  H
  C27      1.0000 0.60620  0.70040  0.89873  Biso   1.000  C
  H17      1.0000 0.56410  0.66550  0.88580  Biso   1.000  H
  C28      1.0000 0.84220  0.70640  0.96958  Biso   1.000  C
  C29      1.0000 0.57760  0.03080  0.60033  Biso   1.000  C
  C30      1.0000 0.67100  0.02020  0.62847  Biso   1.000  C
  C31      1.0000 0.70690  0.06200  0.67484  Biso   1.000  C
  H18      1.0000 0.67240  0.09380  0.68960  Biso   1.000  H
  C32      1.0000 0.79350  0.05660  0.69928  Biso   1.000  C
  H19      1.0000 0.81790  0.08570  0.72950  Biso   1.000  H
  C33      1.0000 0.84260  0.00700  0.67779  Biso   1.000  C
  C34      1.0000 0.80650  0.96340  0.63259  Biso   1.000  C
  H20      1.0000 0.84020  0.92970  0.61890  Biso   1.000  H
  C35      1.0000 0.72020  0.97040  0.60792  Biso   1.000  C
  H21      1.0000 0.69570  0.94140  0.57760  Biso   1.000  H
  C36      1.0000 0.97130  0.93340  0.75663  Biso   1.000  C
  C37      1.0000 0.96040  0.94920  0.80930  Biso   1.000  C
  H22      1.0000 0.93970  0.99490  0.81710  Biso   1.000  H
  C38      1.0000 0.98070  0.89600  0.85000  Biso   1.000  C
  H23      1.0000 0.97520  0.90670  0.88570  Biso   1.000  H
  C39      1.0000 0.00900  0.82750  0.83840  Biso   1.000  C
  C40      1.0000 0.01680  0.81200  0.78519  Biso   1.000  C
  H24      1.0000 0.03530  0.76570  0.77690  Biso   1.000  H
  C41      1.0000 0.99700  0.86550  0.74390  Biso   1.000  C
  H25      1.0000 0.00140  0.85490  0.70800  Biso   1.000  H
  C42      1.0000 0.03310  0.77070  0.88300  Biso   1.000  C
  Mn4      1.0000 0.05386  0.42938  0.97943  Biso   1.000  Mn
  Mn5      1.0000 0.90930  0.38112  0.07683  Biso   1.000  Mn
  Mn6      1.0000 0.96456  0.25007  0.98520  Biso   1.000  Mn
  S4       1.0000 0.40145  0.24178  0.87902  Biso   1.000  S
  S5       1.0000 0.01856  0.30093  0.63740  Biso   1.000  S
  S6       1.0000 0.54554  0.50258  0.79436  Biso   1.000  S
  O20      1.0000 0.03928  0.37809  0.90292  Biso   1.000  O
  O21      1.0000 0.64627  0.13772  0.53072  Biso   1.000  O
  O22      1.0000 0.96301  0.36308  0.00896  Biso   1.000  O
  H26      1.0000 0.91260  0.37750  0.98060  Biso   1.000  H
  O23      1.0000 0.94638  0.50197  0.94781  Biso   1.000  O
  O24      1.0000 0.14687  0.50168  0.95117  Biso   1.000  O
  O25      1.0000 0.44400  0.20850  0.63102  Biso   1.000  O
  O26      1.0000 0.79165  0.33110  0.03137  Biso   1.000  O
  O27      1.0000 0.96978  0.56763  0.87616  Biso   1.000  O
  O28      1.0000 0.16555  0.55156  0.87409  Biso   1.000  O
  O29      1.0000 0.47050  0.28820  0.56852  Biso   1.000  O
  O30      1.0000 0.82624  0.26009  0.96524  Biso   1.000  O
  O31      1.0000 0.60410  0.25413  0.50955  Biso   1.000  O
  O32      1.0000 0.96742  0.27201  0.89872  Biso   1.000  O
  O33      1.0000 0.37560  0.18238  0.90966  Biso   1.000  O
  O34      1.0000 0.39720  0.23250  0.82017  Biso   1.000  O
  O35      1.0000 0.07450  0.24110  0.63116  Biso   1.000  O
  O36      1.0000 0.03560  0.37270  0.61878  Biso   1.000  O
  O37      1.0000 0.52060  0.57210  0.76729  Biso   1.000  O
  O38      1.0000 0.50510  0.47810  0.83794  Biso   1.000  O
  C43      1.0000 0.17830  0.50050  0.90888  Biso   1.000  C
  C44      1.0000 0.23550  0.43650  0.90083  Biso   1.000  C
  C45      1.0000 0.26250  0.38700  0.94301  Biso   1.000  C
  H27      1.0000 0.24590  0.39290  0.97630  Biso   1.000  H
  C46      1.0000 0.31380  0.32880  0.93621  Biso   1.000  C
  H28      1.0000 0.33120  0.29520  0.96480  Biso   1.000  H
  C47      1.0000 0.33940  0.31980  0.88767  Biso   1.000  C
  C48      1.0000 0.31380  0.36880  0.84530  Biso   1.000  C
  H29      1.0000 0.33190  0.36270  0.81250  Biso   1.000  H
  C49      1.0000 0.26090  0.42810  0.85095  Biso   1.000  C
  H30      1.0000 0.24300  0.46110  0.82210  Biso   1.000  H
  C50      1.0000 0.50910  0.26230  0.91170  Biso   1.000  C
  C51      1.0000 0.53150  0.28320  0.96550  Biso   1.000  C
  H31      1.0000 0.48950  0.28960  0.98550  Biso   1.000  H
  C52      1.0000 0.61750  0.29510  0.99080  Biso   1.000  C
  H32      1.0000 0.63270  0.31160  0.02720  Biso   1.000  H
  C53      1.0000 0.68070  0.28200  0.96117  Biso   1.000  C
  C54      1.0000 0.65790  0.25830  0.90810  Biso   1.000  C
  H33      1.0000 0.70030  0.24740  0.88910  Biso   1.000  H
  C55      1.0000 0.57130  0.24990  0.88129  Biso   1.000  C
  H34      1.0000 0.55590  0.23640  0.84420  Biso   1.000  H
  C56      1.0000 0.77500  0.29210  0.98879  Biso   1.000  C
  C57      1.0000 0.00410  0.32170  0.87838  Biso   1.000  C
  C58      1.0000 0.00700  0.31680  0.81812  Biso   1.000  C
  C59      1.0000 0.03590  0.37570  0.79236  Biso   1.000  C
  H35      1.0000 0.05330  0.41850  0.81220  Biso   1.000  H
  C60      1.0000 0.03930  0.37170  0.73663  Biso   1.000  C
  H36      1.0000 0.05880  0.41140  0.71920  Biso   1.000  H
  C61      1.0000 0.01310  0.30750  0.70800  Biso   1.000  C
  C62      1.0000 0.98520  0.24720  0.73314  Biso   1.000  C
  H37      1.0000 0.96890  0.20410  0.71330  Biso   1.000  H
  C63      1.0000 0.98180  0.25190  0.78894  Biso   1.000  C
  H38      1.0000 0.96280  0.21210  0.80640  Biso   1.000  H
  C64      1.0000 0.91360  0.27370  0.60460  Biso   1.000  C
  C65      1.0000 0.85190  0.32770  0.58439  Biso   1.000  C
  H39      1.0000 0.86660  0.37720  0.58730  Biso   1.000  H
  C66      1.0000 0.76910  0.30630  0.56016  Biso   1.000  C
  H40      1.0000 0.72760  0.34130  0.54590  Biso   1.000  H
  C67      1.0000 0.74850  0.23090  0.55737  Biso   1.000  C
  C68      1.0000 0.80930  0.17850  0.57823  Biso   1.000  C
  H41      1.0000 0.79440  0.12900  0.57710  Biso   1.000  H
  C69      1.0000 0.89380  0.20040  0.60127  Biso   1.000  C
  H42      1.0000 0.93590  0.16550  0.61420  Biso   1.000  H
  C70      1.0000 0.65780  0.20640  0.53042  Biso   1.000  C
  C71      1.0000 0.92240  0.53080  0.89967  Biso   1.000  C
  C72      1.0000 0.82900  0.52020  0.87153  Biso   1.000  C
  C73      1.0000 0.79310  0.56200  0.82516  Biso   1.000  C
  H43      1.0000 0.82760  0.59380  0.81040  Biso   1.000  H
  C74      1.0000 0.70650  0.55660  0.80072  Biso   1.000  C
  H44      1.0000 0.68210  0.58570  0.77050  Biso   1.000  H
  C75      1.0000 0.65740  0.50700  0.82221  Biso   1.000  C
  C76      1.0000 0.69350  0.46340  0.86741  Biso   1.000  C
  H45      1.0000 0.65980  0.42970  0.88110  Biso   1.000  H
  C77      1.0000 0.77980  0.47040  0.89208  Biso   1.000  C
  H46      1.0000 0.80430  0.44140  0.92240  Biso   1.000  H
  C78      1.0000 0.52870  0.43340  0.74337  Biso   1.000  C
  C79      1.0000 0.53960  0.44920  0.69070  Biso   1.000  C
  H47      1.0000 0.56030  0.49490  0.68290  Biso   1.000  H
  C80      1.0000 0.51930  0.39600  0.65000  Biso   1.000  C
  H48      1.0000 0.52480  0.40670  0.61430  Biso   1.000  H
  C81      1.0000 0.49100  0.32750  0.66160  Biso   1.000  C
  C82      1.0000 0.48320  0.31200  0.71481  Biso   1.000  C
  H49      1.0000 0.46470  0.26570  0.72310  Biso   1.000  H
  C83      1.0000 0.50300  0.36550  0.75610  Biso   1.000  C
  H50      1.0000 0.49860  0.35490  0.79200  Biso   1.000  H
  C84      1.0000 0.46690  0.27070  0.61700  Biso   1.000  C
  Mn7      1.0000 0.55386  0.07062  0.47943  Biso   1.000  Mn
  Mn8      1.0000 0.40930  0.11888  0.57683  Biso   1.000  Mn
  Mn9      1.0000 0.46456  0.24993  0.48520  Biso   1.000  Mn
  S7       1.0000 0.90145  0.25822  0.37902  Biso   1.000  S
  S8       1.0000 0.51856  0.19907  0.13740  Biso   1.000  S
  S9       1.0000 0.04554  0.99742  0.29436  Biso   1.000  S
  O39      1.0000 0.53928  0.12191  0.40292  Biso   1.000  O
  O40      1.0000 0.14627  0.36228  0.03072  Biso   1.000  O
  O41      1.0000 0.46301  0.13692  0.50896  Biso   1.000  O
  H51      1.0000 0.41260  0.12250  0.48060  Biso   1.000  H
  O42      1.0000 0.44638  0.99803  0.44781  Biso   1.000  O
  O43      1.0000 0.64687  0.99832  0.45117  Biso   1.000  O
  O44      1.0000 0.94400  0.29150  0.13102  Biso   1.000  O
  O45      1.0000 0.29165  0.16890  0.53137  Biso   1.000  O
  O46      1.0000 0.46978  0.93237  0.37616  Biso   1.000  O
  O47      1.0000 0.66555  0.94844  0.37409  Biso   1.000  O
  O48      1.0000 0.97050  0.21180  0.06852  Biso   1.000  O
  O49      1.0000 0.32624  0.23991  0.46524  Biso   1.000  O
  O50      1.0000 0.10410  0.24587  0.00955  Biso   1.000  O
  O51      1.0000 0.46742  0.22799  0.39872  Biso   1.000  O
  O52      1.0000 0.87560  0.31762  0.40966  Biso   1.000  O
  O53      1.0000 0.89720  0.26750  0.32017  Biso   1.000  O
  O54      1.0000 0.57450  0.25890  0.13116  Biso   1.000  O
  O55      1.0000 0.53560  0.12730  0.11878  Biso   1.000  O
  O56      1.0000 0.02060  0.92790  0.26729  Biso   1.000  O
  O57      1.0000 0.00510  0.02190  0.33794  Biso   1.000  O
  C85      1.0000 0.67830  0.99950  0.40888  Biso   1.000  C
  C86      1.0000 0.73550  0.06350  0.40083  Biso   1.000  C
  C87      1.0000 0.76250  0.11300  0.44301  Biso   1.000  C
  H52      1.0000 0.74590  0.10710  0.47630  Biso   1.000  H
  C88      1.0000 0.81380  0.17120  0.43621  Biso   1.000  C
  H53      1.0000 0.83120  0.20480  0.46480  Biso   1.000  H
  C89      1.0000 0.83940  0.18020  0.38767  Biso   1.000  C
  C90      1.0000 0.81380  0.13120  0.34530  Biso   1.000  C
  H54      1.0000 0.83190  0.13730  0.31250  Biso   1.000  H
  C91      1.0000 0.76090  0.07190  0.35095  Biso   1.000  C
  H55      1.0000 0.74300  0.03890  0.32210  Biso   1.000  H
  C92      1.0000 0.00910  0.23770  0.41170  Biso   1.000  C
  C93      1.0000 0.03150  0.21680  0.46550  Biso   1.000  C
  H56      1.0000 0.98950  0.21040  0.48550  Biso   1.000  H
  C94      1.0000 0.11750  0.20490  0.49080  Biso   1.000  C
  H57      1.0000 0.13270  0.18840  0.52720  Biso   1.000  H
  C95      1.0000 0.18070  0.21800  0.46117  Biso   1.000  C
  C96      1.0000 0.15790  0.24170  0.40810  Biso   1.000  C
  H58      1.0000 0.20030  0.25260  0.38910  Biso   1.000  H
  C97      1.0000 0.07130  0.25010  0.38129  Biso   1.000  C
  H59      1.0000 0.05590  0.26360  0.34420  Biso   1.000  H
  C98      1.0000 0.27500  0.20790  0.48879  Biso   1.000  C
  C99      1.0000 0.50410  0.17830  0.37838  Biso   1.000  C
  C100     1.0000 0.50700  0.18320  0.31812  Biso   1.000  C
  C101     1.0000 0.53590  0.12430  0.29236  Biso   1.000  C
  H60      1.0000 0.55330  0.08150  0.31220  Biso   1.000  H
  C102     1.0000 0.53930  0.12830  0.23663  Biso   1.000  C
  H61      1.0000 0.55880  0.08860  0.21920  Biso   1.000  H
  C103     1.0000 0.51310  0.19250  0.20800  Biso   1.000  C
  C104     1.0000 0.48520  0.25280  0.23314  Biso   1.000  C
  H62      1.0000 0.46890  0.29590  0.21330  Biso   1.000  H
  C105     1.0000 0.48180  0.24810  0.28894  Biso   1.000  C
  H63      1.0000 0.46280  0.28790  0.30640  Biso   1.000  H
  C106     1.0000 0.41360  0.22630  0.10460  Biso   1.000  C
  C107     1.0000 0.35190  0.17230  0.08439  Biso   1.000  C
  H64      1.0000 0.36660  0.12280  0.08730  Biso   1.000  H
  C108     1.0000 0.26910  0.19370  0.06016  Biso   1.000  C
  H65      1.0000 0.22760  0.15870  0.04590  Biso   1.000  H
  C109     1.0000 0.24850  0.26910  0.05737  Biso   1.000  C
  C110     1.0000 0.30930  0.32150  0.07823  Biso   1.000  C
  H66      1.0000 0.29440  0.37100  0.07710  Biso   1.000  H
  C111     1.0000 0.39380  0.29960  0.10127  Biso   1.000  C
  H67      1.0000 0.43590  0.33450  0.11420  Biso   1.000  H
  C112     1.0000 0.15780  0.29360  0.03042  Biso   1.000  C
  C113     1.0000 0.42240  0.96920  0.39967  Biso   1.000  C
  C114     1.0000 0.32900  0.97980  0.37153  Biso   1.000  C
  C115     1.0000 0.29310  0.93800  0.32516  Biso   1.000  C
  H68      1.0000 0.32760  0.90620  0.31040  Biso   1.000  H
  C116     1.0000 0.20650  0.94340  0.30072  Biso   1.000  C
  H69      1.0000 0.18210  0.91430  0.27050  Biso   1.000  H
  C117     1.0000 0.15740  0.99300  0.32221  Biso   1.000  C
  C118     1.0000 0.19350  0.03660  0.36741  Biso   1.000  C
  H70      1.0000 0.15980  0.07030  0.38110  Biso   1.000  H
  C119     1.0000 0.27980  0.02960  0.39208  Biso   1.000  C
  H71      1.0000 0.30430  0.05860  0.42240  Biso   1.000  H
  C120     1.0000 0.02870  0.06660  0.24337  Biso   1.000  C
  C121     1.0000 0.03960  0.05080  0.19070  Biso   1.000  C
  H72      1.0000 0.06030  0.00510  0.18290  Biso   1.000  H
  C122     1.0000 0.01930  0.10400  0.15000  Biso   1.000  C
  H73      1.0000 0.02480  0.09330  0.11430  Biso   1.000  H
  C123     1.0000 0.99100  0.17250  0.16160  Biso   1.000  C
  C124     1.0000 0.98320  0.18800  0.21481  Biso   1.000  C
  H74      1.0000 0.96470  0.23430  0.22310  Biso   1.000  H
  C125     1.0000 0.00300  0.13450  0.25610  Biso   1.000  C
  H75      1.0000 0.99860  0.14510  0.29200  Biso   1.000  H
  C126     1.0000 0.96690  0.22930  0.11700  Biso   1.000  C
  Mn10     1.0000 0.94614  0.57062  0.02057  Biso   1.000  Mn
  Mn11     1.0000 0.09070  0.61888  0.92317  Biso   1.000  Mn
  Mn12     1.0000 0.03544  0.74993  0.01480  Biso   1.000  Mn
  S10      1.0000 0.59855  0.75822  0.12098  Biso   1.000  S
  S11      1.0000 0.98144  0.69907  0.36260  Biso   1.000  S
  S12      1.0000 0.45446  0.49742  0.20564  Biso   1.000  S
  O58      1.0000 0.96072  0.62191  0.09708  Biso   1.000  O
  O59      1.0000 0.35373  0.86228  0.46928  Biso   1.000  O
  O60      1.0000 0.03699  0.63692  0.99104  Biso   1.000  O
  H76      1.0000 0.08740  0.62250  0.01940  Biso   1.000  H
  O61      1.0000 0.05362  0.49803  0.05219  Biso   1.000  O
  O62      1.0000 0.85313  0.49832  0.04883  Biso   1.000  O
  O63      1.0000 0.55600  0.79150  0.36898  Biso   1.000  O
  O64      1.0000 0.20835  0.66890  0.96863  Biso   1.000  O
  O65      1.0000 0.03022  0.43237  0.12384  Biso   1.000  O
  O66      1.0000 0.83445  0.44844  0.12591  Biso   1.000  O
  O67      1.0000 0.52950  0.71180  0.43148  Biso   1.000  O
  O68      1.0000 0.17376  0.73991  0.03476  Biso   1.000  O
  O69      1.0000 0.39590  0.74587  0.49045  Biso   1.000  O
  O70      1.0000 0.03258  0.72799  0.10128  Biso   1.000  O
  O71      1.0000 0.62440  0.81762  0.09034  Biso   1.000  O
  O72      1.0000 0.60280  0.76750  0.17983  Biso   1.000  O
  O73      1.0000 0.92550  0.75890  0.36884  Biso   1.000  O
  O74      1.0000 0.96440  0.62730  0.38122  Biso   1.000  O
  O75      1.0000 0.47940  0.42790  0.23271  Biso   1.000  O
  O76      1.0000 0.49490  0.52190  0.16206  Biso   1.000  O
  C127     1.0000 0.82170  0.49950  0.09112  Biso   1.000  C
  C128     1.0000 0.76450  0.56350  0.09917  Biso   1.000  C
  C129     1.0000 0.73750  0.61300  0.05699  Biso   1.000  C
  H77      1.0000 0.75410  0.60710  0.02370  Biso   1.000  H
  C130     1.0000 0.68620  0.67120  0.06379  Biso   1.000  C
  H78      1.0000 0.66880  0.70480  0.03520  Biso   1.000  H
  C131     1.0000 0.66060  0.68020  0.11233  Biso   1.000  C
  C132     1.0000 0.68620  0.63120  0.15470  Biso   1.000  C
  H79      1.0000 0.66810  0.63730  0.18750  Biso   1.000  H
  C133     1.0000 0.73910  0.57190  0.14905  Biso   1.000  C
  H80      1.0000 0.75700  0.53890  0.17790  Biso   1.000  H
  C134     1.0000 0.49090  0.73770  0.08830  Biso   1.000  C
  C135     1.0000 0.46850  0.71680  0.03450  Biso   1.000  C
  H81      1.0000 0.51050  0.71040  0.01450  Biso   1.000  H
  C136     1.0000 0.38250  0.70490  0.00920  Biso   1.000  C
  H82      1.0000 0.36730  0.68840  0.97280  Biso   1.000  H
  C137     1.0000 0.31930  0.71800  0.03883  Biso   1.000  C
  C138     1.0000 0.34210  0.74170  0.09190  Biso   1.000  C
  H83      1.0000 0.29970  0.75260  0.11090  Biso   1.000  H
  C139     1.0000 0.42870  0.75010  0.11871  Biso   1.000  C
  H84      1.0000 0.44410  0.76360  0.15580  Biso   1.000  H
  C140     1.0000 0.22500  0.70790  0.01121  Biso   1.000  C
  C141     1.0000 0.99590  0.67830  0.12162  Biso   1.000  C
  C142     1.0000 0.99300  0.68320  0.18188  Biso   1.000  C
  C143     1.0000 0.96410  0.62430  0.20764  Biso   1.000  C
  H85      1.0000 0.94670  0.58150  0.18780  Biso   1.000  H
  C144     1.0000 0.96070  0.62830  0.26337  Biso   1.000  C
  H86      1.0000 0.94120  0.58860  0.28080  Biso   1.000  H
  C145     1.0000 0.98690  0.69250  0.29200  Biso   1.000  C
  C146     1.0000 0.01480  0.75280  0.26686  Biso   1.000  C
  H87      1.0000 0.03110  0.79590  0.28670  Biso   1.000  H
  C147     1.0000 0.01820  0.74810  0.21106  Biso   1.000  C
  H88      1.0000 0.03720  0.78790  0.19360  Biso   1.000  H
  C148     1.0000 0.08640  0.72630  0.39540  Biso   1.000  C
  C149     1.0000 0.14810  0.67230  0.41561  Biso   1.000  C
  H89      1.0000 0.13340  0.62280  0.41270  Biso   1.000  H
  C150     1.0000 0.23090  0.69370  0.43984  Biso   1.000  C
  H90      1.0000 0.27240  0.65870  0.45410  Biso   1.000  H
  C151     1.0000 0.25150  0.76910  0.44263  Biso   1.000  C
  C152     1.0000 0.19070  0.82150  0.42177  Biso   1.000  C
  H91      1.0000 0.20560  0.87100  0.42290  Biso   1.000  H
  C153     1.0000 0.10620  0.79960  0.39873  Biso   1.000  C
  H92      1.0000 0.06410  0.83450  0.38580  Biso   1.000  H
  C154     1.0000 0.34220  0.79360  0.46958  Biso   1.000  C
  C155     1.0000 0.07760  0.46920  0.10033  Biso   1.000  C
  C156     1.0000 0.17100  0.47980  0.12847  Biso   1.000  C
  C157     1.0000 0.20690  0.43800  0.17484  Biso   1.000  C
  H93      1.0000 0.17240  0.40620  0.18960  Biso   1.000  H
  C158     1.0000 0.29350  0.44340  0.19928  Biso   1.000  C
  H94      1.0000 0.31790  0.41430  0.22950  Biso   1.000  H
  C159     1.0000 0.34260  0.49300  0.17779  Biso   1.000  C
  C160     1.0000 0.30650  0.53660  0.13259  Biso   1.000  C
  H95      1.0000 0.34020  0.57030  0.11890  Biso   1.000  H
  C161     1.0000 0.22020  0.52960  0.10792  Biso   1.000  C
  H96      1.0000 0.19570  0.55860  0.07760  Biso   1.000  H
  C162     1.0000 0.47130  0.56660  0.25663  Biso   1.000  C
  C163     1.0000 0.46040  0.55080  0.30930  Biso   1.000  C
  H97      1.0000 0.43970  0.50510  0.31710  Biso   1.000  H
  C164     1.0000 0.48070  0.60400  0.35000  Biso   1.000  C
  H98      1.0000 0.47520  0.59330  0.38570  Biso   1.000  H
  C165     1.0000 0.50900  0.67250  0.33840  Biso   1.000  C
  C166     1.0000 0.51680  0.68800  0.28519  Biso   1.000  C
  H99      1.0000 0.53530  0.73430  0.27690  Biso   1.000  H
  C167     1.0000 0.49700  0.63450  0.24390  Biso   1.000  C
  H100     1.0000 0.50140  0.64510  0.20800  Biso   1.000  H
  C168     1.0000 0.53310  0.72930  0.38300  Biso   1.000  C
