data_image0
_cell_length_a       9.4611
_cell_length_b       13.424
_cell_length_c       13.453
_cell_angle_alpha    67.36
_cell_angle_beta     70.649
_cell_angle_gamma    88.418

_symmetry_space_group_name_H-M    "P 1"
_symmetry_int_tables_number       1

loop_
  _symmetry_equiv_pos_as_xyz
  'x, y, z'

loop_
  _atom_site_label
  _atom_site_occupancy
  _atom_site_fract_x
  _atom_site_fract_y
  _atom_site_fract_z
  _atom_site_thermal_displace_type
  _atom_site_B_iso_or_equiv
  _atom_site_type_symbol
  U1       1.0000 0.97713  0.07786  0.34607  Biso   1.000  U
  P1       1.0000 0.26631  0.14845  0.38341  Biso   1.000  P
  U2       1.0000 0.29129  0.32084  0.07727  Biso   1.000  U
  P2       1.0000 0.52524  0.43247  0.18082  Biso   1.000  P
  P3       1.0000 0.72121  0.94458  0.28023  Biso   1.000  P
  O1       1.0000 0.13590  0.05620  0.46680  Biso   1.000  O
  P4       1.0000 0.99951  0.25095  0.04756  Biso   1.000  P
  O2       1.0000 0.21560  0.19800  0.27780  Biso   1.000  O
  O3       1.0000 0.04800  0.19670  0.15480  Biso   1.000  O
  O4       1.0000 0.76580  0.02310  0.32480  Biso   1.000  O
  C1       1.0000 0.43070  0.01000  0.28980  Biso   1.000  C
  H1       1.0000 0.36400  0.03350  0.24370  Biso   1.000  H
  H2       1.0000 0.38520  0.93830  0.35260  Biso   1.000  H
  C2       1.0000 0.67710  0.38870  0.23320  Biso   1.000  C
  H3       1.0000 0.69390  0.43740  0.26890  Biso   1.000  H
  H4       1.0000 0.64350  0.31510  0.29500  Biso   1.000  H
  O5       1.0000 0.48530  0.35420  0.13460  Biso   1.000  O
  C3       1.0000 0.82940  0.38480  0.14800  Biso   1.000  C
  H5       1.0000 0.90390  0.36650  0.18760  Biso   1.000  H
  H6       1.0000 0.86450  0.45780  0.08510  Biso   1.000  H
  O6       1.0000 0.12980  0.33830  0.96400  Biso   1.000  O
  C4       1.0000 0.58540  0.99760  0.21330  Biso   1.000  C
  H7       1.0000 0.62950  0.06990  0.15130  Biso   1.000  H
  H8       1.0000 0.56950  0.94970  0.17650  Biso   1.000  H
  C5       1.0000 0.82430  0.30210  0.09600  Biso   1.000  C
  H9       1.0000 0.78900  0.33640  0.03030  Biso   1.000  H
  H10      1.0000 0.74870  0.24000  0.15430  Biso   1.000  H
  O7       1.0000 0.56260  0.54970  0.09590  Biso   1.000  O
  C6       1.0000 0.43840  0.09190  0.34210  Biso   1.000  C
  H11      1.0000 0.51850  0.15180  0.28570  Biso   1.000  H
  H12      1.0000 0.46780  0.05550  0.41060  Biso   1.000  H
  O8       1.0000 0.96690  0.16810  0.00410  Biso   1.000  O
  O9       1.0000 0.85430  0.92340  0.19360  Biso   1.000  O
  O10      1.0000 0.38930  0.43130  0.28780  Biso   1.000  O
  H13      1.0000 0.36300  0.36740  0.33740  Biso   1.000  H
  O11      1.0000 0.63980  0.83550  0.38250  Biso   1.000  O
  H14      1.0000 0.67090  0.82500  0.43700  Biso   1.000  H
  O12      1.0000 0.28860  0.22730  0.43320  Biso   1.000  O
  U3       1.0000 0.02287  0.92214  0.65393  Biso   1.000  U
  P5       1.0000 0.73369  0.85155  0.61659  Biso   1.000  P
  U4       1.0000 0.70871  0.67915  0.92273  Biso   1.000  U
  P6       1.0000 0.47476  0.56753  0.81918  Biso   1.000  P
  P7       1.0000 0.27879  0.05542  0.71977  Biso   1.000  P
  O13      1.0000 0.86410  0.94380  0.53320  Biso   1.000  O
  P8       1.0000 0.00049  0.74905  0.95244  Biso   1.000  P
  O14      1.0000 0.78440  0.80200  0.72220  Biso   1.000  O
  O15      1.0000 0.95200  0.80330  0.84520  Biso   1.000  O
  O16      1.0000 0.23420  0.97690  0.67520  Biso   1.000  O
  C7       1.0000 0.56930  0.99000  0.71020  Biso   1.000  C
  H15      1.0000 0.63600  0.96650  0.75630  Biso   1.000  H
  H16      1.0000 0.61480  0.06170  0.64740  Biso   1.000  H
  C8       1.0000 0.32290  0.61130  0.76680  Biso   1.000  C
  H17      1.0000 0.30610  0.56260  0.73110  Biso   1.000  H
  H18      1.0000 0.35650  0.68490  0.70500  Biso   1.000  H
  O17      1.0000 0.51470  0.64580  0.86540  Biso   1.000  O
  C9       1.0000 0.17060  0.61520  0.85200  Biso   1.000  C
  H19      1.0000 0.09610  0.63350  0.81240  Biso   1.000  H
  H20      1.0000 0.13550  0.54220  0.91490  Biso   1.000  H
  O18      1.0000 0.87020  0.66170  0.03600  Biso   1.000  O
  C10      1.0000 0.41460  0.00240  0.78670  Biso   1.000  C
  H21      1.0000 0.37050  0.93010  0.84870  Biso   1.000  H
  H22      1.0000 0.43050  0.05030  0.82350  Biso   1.000  H
  C11      1.0000 0.17570  0.69790  0.90400  Biso   1.000  C
  H23      1.0000 0.21100  0.66360  0.96970  Biso   1.000  H
  H24      1.0000 0.25130  0.76000  0.84570  Biso   1.000  H
  O19      1.0000 0.43740  0.45030  0.90410  Biso   1.000  O
  C12      1.0000 0.56160  0.90810  0.65790  Biso   1.000  C
  H25      1.0000 0.48150  0.84820  0.71430  Biso   1.000  H
  H26      1.0000 0.53220  0.94450  0.58940  Biso   1.000  H
  O20      1.0000 0.03310  0.83190  0.99590  Biso   1.000  O
  O21      1.0000 0.14570  0.07660  0.80640  Biso   1.000  O
  O22      1.0000 0.61070  0.56870  0.71220  Biso   1.000  O
  H27      1.0000 0.63700  0.63260  0.66260  Biso   1.000  H
  O23      1.0000 0.36020  0.16450  0.61750  Biso   1.000  O
  H28      1.0000 0.32910  0.17500  0.56300  Biso   1.000  H
  O24      1.0000 0.71140  0.77270  0.56680  Biso   1.000  O
  U5       1.0000 0.00000  0.00000  0.00000  Biso   1.000  U
