data_image0
_cell_length_a       9.7186
_cell_length_b       25.346
_cell_length_c       19.306
_cell_angle_alpha    90
_cell_angle_beta     90
_cell_angle_gamma    90

_symmetry_space_group_name_H-M    "P 1"
_symmetry_int_tables_number       1

loop_
  _symmetry_equiv_pos_as_xyz
  'x, y, z'

loop_
  _atom_site_label
  _atom_site_occupancy
  _atom_site_fract_x
  _atom_site_fract_y
  _atom_site_fract_z
  _atom_site_thermal_displace_type
  _atom_site_B_iso_or_equiv
  _atom_site_type_symbol
  Cu1      1.0000 0.60847  0.47555  0.55242  Biso   1.000  Cu
  Cu2      1.0000 0.80833  0.43433  0.44712  Biso   1.000  Cu
  C1       1.0000 0.83410  0.43469  0.86397  Biso   1.000  C
  H1       1.0000 0.82490  0.45550  0.82450  Biso   1.000  H
  C2       1.0000 0.89330  0.45435  0.92095  Biso   1.000  C
  H2       1.0000 0.92450  0.48900  0.92100  Biso   1.000  H
  C3       1.0000 0.90870  0.42403  0.97935  Biso   1.000  C
  H3       1.0000 0.95080  0.43810  0.01840  Biso   1.000  H
  C4       1.0000 0.86170  0.37250  0.98016  Biso   1.000  C
  C5       1.0000 0.79850  0.35340  0.92267  Biso   1.000  C
  H4       1.0000 0.76240  0.31940  0.92270  Biso   1.000  H
  C6       1.0000 0.78770  0.38433  0.86419  Biso   1.000  C
  H5       1.0000 0.74810  0.37040  0.82430  Biso   1.000  H
  C7       1.0000 0.84610  0.36181  0.10604  Biso   1.000  C
  C8       1.0000 0.73050  0.39317  0.11339  Biso   1.000  C
  H6       1.0000 0.67530  0.40020  0.07510  Biso   1.000  H
  C9       1.0000 0.69610  0.41431  0.17757  Biso   1.000  C
  H7       1.0000 0.61830  0.43540  0.18180  Biso   1.000  H
  C10      1.0000 0.77601  0.40430  0.23495  Biso   1.000  C
  C11      1.0000 0.89290  0.37283  0.22735  Biso   1.000  C
  H8       1.0000 0.94840  0.36580  0.26550  Biso   1.000  H
  C12      1.0000 0.92640  0.35206  0.16312  Biso   1.000  C
  H9       1.0000 0.00450  0.33120  0.15860  Biso   1.000  H
  C13      1.0000 0.93579  0.28956  0.03367  Biso   1.000  C
  C14      1.0000 0.90464  0.25002  0.08042  Biso   1.000  C
  H10      1.0000 0.84810  0.25750  0.11800  Biso   1.000  H
  C15      1.0000 0.95649  0.19932  0.07212  Biso   1.000  C
  H11      1.0000 0.93340  0.17320  0.10390  Biso   1.000  H
  C16      1.0000 0.04163  0.18734  0.01739  Biso   1.000  C
  C17      1.0000 0.07450  0.22698  0.97030  Biso   1.000  C
  H12      1.0000 0.13190  0.21960  0.93300  Biso   1.000  H
  C18      1.0000 0.02240  0.27723  0.97865  Biso   1.000  C
  H13      1.0000 0.04560  0.30330  0.94690  Biso   1.000  H
  C19      1.0000 0.09764  0.13325  0.00810  Biso   1.000  C
  C20      1.0000 0.73652  0.42531  0.30457  Biso   1.000  C
  N1       1.0000 0.88011  0.34043  0.04060  Biso   1.000  N
  O1       1.0000 0.04499  0.09702  0.04532  Biso   1.000  O
  O2       1.0000 0.19273  0.12684  0.96461  Biso   1.000  O
  O3       1.0000 0.62898  0.45007  0.31234  Biso   1.000  O
  O4       1.0000 0.82408  0.41538  0.35204  Biso   1.000  O
  O5       1.0000 0.80237  0.45422  0.54609  Biso   1.000  O
  H14      1.0000 0.86500  0.45360  0.57680  Biso   1.000  H
  O6       1.0000 0.41886  0.49808  0.56426  Biso   1.000  O
  H15      1.0000 0.40590  0.50730  0.60610  Biso   1.000  H
  Cu3      1.0000 0.89153  0.52445  0.55242  Biso   1.000  Cu
  Cu4      1.0000 0.69167  0.56567  0.44712  Biso   1.000  Cu
  C21      1.0000 0.66590  0.56531  0.86397  Biso   1.000  C
  H16      1.0000 0.67510  0.54450  0.82450  Biso   1.000  H
  C22      1.0000 0.60670  0.54565  0.92095  Biso   1.000  C
  H17      1.0000 0.57550  0.51100  0.92100  Biso   1.000  H
  C23      1.0000 0.59130  0.57597  0.97935  Biso   1.000  C
  H18      1.0000 0.54920  0.56190  0.01840  Biso   1.000  H
  C24      1.0000 0.63830  0.62750  0.98016  Biso   1.000  C
  C25      1.0000 0.70150  0.64660  0.92267  Biso   1.000  C
  H19      1.0000 0.73760  0.68060  0.92270  Biso   1.000  H
  C26      1.0000 0.71230  0.61567  0.86419  Biso   1.000  C
  H20      1.0000 0.75190  0.62960  0.82430  Biso   1.000  H
  C27      1.0000 0.65390  0.63819  0.10604  Biso   1.000  C
  C28      1.0000 0.76950  0.60683  0.11339  Biso   1.000  C
  H21      1.0000 0.82470  0.59980  0.07510  Biso   1.000  H
  C29      1.0000 0.80390  0.58569  0.17757  Biso   1.000  C
  H22      1.0000 0.88170  0.56460  0.18180  Biso   1.000  H
  C30      1.0000 0.72399  0.59570  0.23495  Biso   1.000  C
  C31      1.0000 0.60710  0.62717  0.22735  Biso   1.000  C
  H23      1.0000 0.55160  0.63420  0.26550  Biso   1.000  H
  C32      1.0000 0.57360  0.64794  0.16312  Biso   1.000  C
  H24      1.0000 0.49550  0.66880  0.15860  Biso   1.000  H
  C33      1.0000 0.56421  0.71044  0.03367  Biso   1.000  C
  C34      1.0000 0.59536  0.74998  0.08042  Biso   1.000  C
  H25      1.0000 0.65190  0.74250  0.11800  Biso   1.000  H
  C35      1.0000 0.54351  0.80068  0.07212  Biso   1.000  C
  H26      1.0000 0.56660  0.82680  0.10390  Biso   1.000  H
  C36      1.0000 0.45837  0.81266  0.01739  Biso   1.000  C
  C37      1.0000 0.42550  0.77302  0.97030  Biso   1.000  C
  H27      1.0000 0.36810  0.78040  0.93300  Biso   1.000  H
  C38      1.0000 0.47760  0.72277  0.97865  Biso   1.000  C
  H28      1.0000 0.45440  0.69670  0.94690  Biso   1.000  H
  C39      1.0000 0.40236  0.86675  0.00810  Biso   1.000  C
  C40      1.0000 0.76348  0.57469  0.30457  Biso   1.000  C
  N2       1.0000 0.61989  0.65957  0.04060  Biso   1.000  N
  O7       1.0000 0.45501  0.90298  0.04532  Biso   1.000  O
  O8       1.0000 0.30727  0.87316  0.96461  Biso   1.000  O
  O9       1.0000 0.87102  0.54993  0.31234  Biso   1.000  O
  O10      1.0000 0.67592  0.58462  0.35204  Biso   1.000  O
  O11      1.0000 0.69763  0.54578  0.54609  Biso   1.000  O
  H29      1.0000 0.63500  0.54640  0.57680  Biso   1.000  H
  O12      1.0000 0.08114  0.50192  0.56426  Biso   1.000  O
  H30      1.0000 0.09410  0.49270  0.60610  Biso   1.000  H
  Cu5      1.0000 0.89153  0.97555  0.94758  Biso   1.000  Cu
  Cu6      1.0000 0.69167  0.93433  0.05288  Biso   1.000  Cu
  C41      1.0000 0.66590  0.93469  0.63603  Biso   1.000  C
  H31      1.0000 0.67510  0.95550  0.67550  Biso   1.000  H
  C42      1.0000 0.60670  0.95435  0.57905  Biso   1.000  C
  H32      1.0000 0.57550  0.98900  0.57900  Biso   1.000  H
  C43      1.0000 0.59130  0.92403  0.52065  Biso   1.000  C
  H33      1.0000 0.54920  0.93810  0.48160  Biso   1.000  H
  C44      1.0000 0.63830  0.87250  0.51984  Biso   1.000  C
  C45      1.0000 0.70150  0.85340  0.57733  Biso   1.000  C
  H34      1.0000 0.73760  0.81940  0.57730  Biso   1.000  H
  C46      1.0000 0.71230  0.88433  0.63581  Biso   1.000  C
  H35      1.0000 0.75190  0.87040  0.67570  Biso   1.000  H
  C47      1.0000 0.65390  0.86181  0.39396  Biso   1.000  C
  C48      1.0000 0.76950  0.89317  0.38661  Biso   1.000  C
  H36      1.0000 0.82470  0.90020  0.42490  Biso   1.000  H
  C49      1.0000 0.80390  0.91431  0.32243  Biso   1.000  C
  H37      1.0000 0.88170  0.93540  0.31820  Biso   1.000  H
  C50      1.0000 0.72399  0.90430  0.26505  Biso   1.000  C
  C51      1.0000 0.60710  0.87283  0.27265  Biso   1.000  C
  H38      1.0000 0.55160  0.86580  0.23450  Biso   1.000  H
  C52      1.0000 0.57360  0.85206  0.33688  Biso   1.000  C
  H39      1.0000 0.49550  0.83120  0.34140  Biso   1.000  H
  C53      1.0000 0.56421  0.78956  0.46633  Biso   1.000  C
  C54      1.0000 0.59536  0.75002  0.41958  Biso   1.000  C
  H40      1.0000 0.65190  0.75750  0.38200  Biso   1.000  H
  C55      1.0000 0.54351  0.69932  0.42788  Biso   1.000  C
  H41      1.0000 0.56660  0.67320  0.39610  Biso   1.000  H
  C56      1.0000 0.45837  0.68734  0.48261  Biso   1.000  C
  C57      1.0000 0.42550  0.72698  0.52970  Biso   1.000  C
  H42      1.0000 0.36810  0.71960  0.56700  Biso   1.000  H
  C58      1.0000 0.47760  0.77723  0.52135  Biso   1.000  C
  H43      1.0000 0.45440  0.80330  0.55310  Biso   1.000  H
  C59      1.0000 0.40236  0.63325  0.49190  Biso   1.000  C
  C60      1.0000 0.76348  0.92531  0.19543  Biso   1.000  C
  N3       1.0000 0.61989  0.84043  0.45940  Biso   1.000  N
  O13      1.0000 0.45501  0.59702  0.45468  Biso   1.000  O
  O14      1.0000 0.30727  0.62684  0.53539  Biso   1.000  O
  O15      1.0000 0.87102  0.95007  0.18766  Biso   1.000  O
  O16      1.0000 0.67592  0.91538  0.14796  Biso   1.000  O
  O17      1.0000 0.69763  0.95422  0.95391  Biso   1.000  O
  H44      1.0000 0.63500  0.95360  0.92320  Biso   1.000  H
  O18      1.0000 0.08114  0.99808  0.93574  Biso   1.000  O
  H45      1.0000 0.09410  0.00730  0.89390  Biso   1.000  H
  Cu7      1.0000 0.60847  0.02445  0.94758  Biso   1.000  Cu
  Cu8      1.0000 0.80833  0.06567  0.05288  Biso   1.000  Cu
  C61      1.0000 0.83410  0.06531  0.63603  Biso   1.000  C
  H46      1.0000 0.82490  0.04450  0.67550  Biso   1.000  H
  C62      1.0000 0.89330  0.04565  0.57905  Biso   1.000  C
  H47      1.0000 0.92450  0.01100  0.57900  Biso   1.000  H
  C63      1.0000 0.90870  0.07597  0.52065  Biso   1.000  C
  H48      1.0000 0.95080  0.06190  0.48160  Biso   1.000  H
  C64      1.0000 0.86170  0.12750  0.51984  Biso   1.000  C
  C65      1.0000 0.79850  0.14660  0.57733  Biso   1.000  C
  H49      1.0000 0.76240  0.18060  0.57730  Biso   1.000  H
  C66      1.0000 0.78770  0.11567  0.63581  Biso   1.000  C
  H50      1.0000 0.74810  0.12960  0.67570  Biso   1.000  H
  C67      1.0000 0.84610  0.13819  0.39396  Biso   1.000  C
  C68      1.0000 0.73050  0.10683  0.38661  Biso   1.000  C
  H51      1.0000 0.67530  0.09980  0.42490  Biso   1.000  H
  C69      1.0000 0.69610  0.08569  0.32243  Biso   1.000  C
  H52      1.0000 0.61830  0.06460  0.31820  Biso   1.000  H
  C70      1.0000 0.77601  0.09570  0.26505  Biso   1.000  C
  C71      1.0000 0.89290  0.12717  0.27265  Biso   1.000  C
  H53      1.0000 0.94840  0.13420  0.23450  Biso   1.000  H
  C72      1.0000 0.92640  0.14794  0.33688  Biso   1.000  C
  H54      1.0000 0.00450  0.16880  0.34140  Biso   1.000  H
  C73      1.0000 0.93579  0.21044  0.46633  Biso   1.000  C
  C74      1.0000 0.90464  0.24998  0.41958  Biso   1.000  C
  H55      1.0000 0.84810  0.24250  0.38200  Biso   1.000  H
  C75      1.0000 0.95649  0.30068  0.42788  Biso   1.000  C
  H56      1.0000 0.93340  0.32680  0.39610  Biso   1.000  H
  C76      1.0000 0.04163  0.31266  0.48261  Biso   1.000  C
  C77      1.0000 0.07450  0.27302  0.52970  Biso   1.000  C
  H57      1.0000 0.13190  0.28040  0.56700  Biso   1.000  H
  C78      1.0000 0.02240  0.22277  0.52135  Biso   1.000  C
  H58      1.0000 0.04560  0.19670  0.55310  Biso   1.000  H
  C79      1.0000 0.09764  0.36675  0.49190  Biso   1.000  C
  C80      1.0000 0.73652  0.07469  0.19543  Biso   1.000  C
  N4       1.0000 0.88011  0.15957  0.45940  Biso   1.000  N
  O19      1.0000 0.04499  0.40298  0.45468  Biso   1.000  O
  O20      1.0000 0.19273  0.37316  0.53539  Biso   1.000  O
  O21      1.0000 0.62898  0.04993  0.18766  Biso   1.000  O
  O22      1.0000 0.82408  0.08462  0.14796  Biso   1.000  O
  O23      1.0000 0.80237  0.04578  0.95391  Biso   1.000  O
  H59      1.0000 0.86500  0.04640  0.92320  Biso   1.000  H
  O24      1.0000 0.41886  0.00192  0.93574  Biso   1.000  O
  H60      1.0000 0.40590  0.99270  0.89390  Biso   1.000  H
  Cu9      1.0000 0.39153  0.52445  0.44758  Biso   1.000  Cu
  Cu10     1.0000 0.19167  0.56567  0.55288  Biso   1.000  Cu
  C81      1.0000 0.16590  0.56531  0.13603  Biso   1.000  C
  H61      1.0000 0.17510  0.54450  0.17550  Biso   1.000  H
  C82      1.0000 0.10670  0.54565  0.07905  Biso   1.000  C
  H62      1.0000 0.07550  0.51100  0.07900  Biso   1.000  H
  C83      1.0000 0.09130  0.57597  0.02065  Biso   1.000  C
  H63      1.0000 0.04920  0.56190  0.98160  Biso   1.000  H
  C84      1.0000 0.13830  0.62750  0.01984  Biso   1.000  C
  C85      1.0000 0.20150  0.64660  0.07733  Biso   1.000  C
  H64      1.0000 0.23760  0.68060  0.07730  Biso   1.000  H
  C86      1.0000 0.21230  0.61567  0.13581  Biso   1.000  C
  H65      1.0000 0.25190  0.62960  0.17570  Biso   1.000  H
  C87      1.0000 0.15390  0.63819  0.89396  Biso   1.000  C
  C88      1.0000 0.26950  0.60683  0.88661  Biso   1.000  C
  H66      1.0000 0.32470  0.59980  0.92490  Biso   1.000  H
  C89      1.0000 0.30390  0.58569  0.82243  Biso   1.000  C
  H67      1.0000 0.38170  0.56460  0.81820  Biso   1.000  H
  C90      1.0000 0.22399  0.59570  0.76505  Biso   1.000  C
  C91      1.0000 0.10710  0.62717  0.77265  Biso   1.000  C
  H68      1.0000 0.05160  0.63420  0.73450  Biso   1.000  H
  C92      1.0000 0.07360  0.64794  0.83688  Biso   1.000  C
  H69      1.0000 0.99550  0.66880  0.84140  Biso   1.000  H
  C93      1.0000 0.06421  0.71044  0.96633  Biso   1.000  C
  C94      1.0000 0.09536  0.74998  0.91958  Biso   1.000  C
  H70      1.0000 0.15190  0.74250  0.88200  Biso   1.000  H
  C95      1.0000 0.04351  0.80068  0.92788  Biso   1.000  C
  H71      1.0000 0.06660  0.82680  0.89610  Biso   1.000  H
  C96      1.0000 0.95837  0.81266  0.98261  Biso   1.000  C
  C97      1.0000 0.92550  0.77302  0.02970  Biso   1.000  C
  H72      1.0000 0.86810  0.78040  0.06700  Biso   1.000  H
  C98      1.0000 0.97760  0.72277  0.02135  Biso   1.000  C
  H73      1.0000 0.95440  0.69670  0.05310  Biso   1.000  H
  C99      1.0000 0.90236  0.86675  0.99190  Biso   1.000  C
  C100     1.0000 0.26348  0.57469  0.69543  Biso   1.000  C
  N5       1.0000 0.11989  0.65957  0.95940  Biso   1.000  N
  O25      1.0000 0.95501  0.90298  0.95468  Biso   1.000  O
  O26      1.0000 0.80727  0.87316  0.03539  Biso   1.000  O
  O27      1.0000 0.37102  0.54993  0.68766  Biso   1.000  O
  O28      1.0000 0.17592  0.58462  0.64796  Biso   1.000  O
  O29      1.0000 0.19763  0.54578  0.45391  Biso   1.000  O
  H74      1.0000 0.13500  0.54640  0.42320  Biso   1.000  H
  O30      1.0000 0.58114  0.50192  0.43574  Biso   1.000  O
  H75      1.0000 0.59410  0.49270  0.39390  Biso   1.000  H
  Cu11     1.0000 0.10847  0.47555  0.44758  Biso   1.000  Cu
  Cu12     1.0000 0.30833  0.43433  0.55288  Biso   1.000  Cu
  C101     1.0000 0.33410  0.43469  0.13603  Biso   1.000  C
  H76      1.0000 0.32490  0.45550  0.17550  Biso   1.000  H
  C102     1.0000 0.39330  0.45435  0.07905  Biso   1.000  C
  H77      1.0000 0.42450  0.48900  0.07900  Biso   1.000  H
  C103     1.0000 0.40870  0.42403  0.02065  Biso   1.000  C
  H78      1.0000 0.45080  0.43810  0.98160  Biso   1.000  H
  C104     1.0000 0.36170  0.37250  0.01984  Biso   1.000  C
  C105     1.0000 0.29850  0.35340  0.07733  Biso   1.000  C
  H79      1.0000 0.26240  0.31940  0.07730  Biso   1.000  H
  C106     1.0000 0.28770  0.38433  0.13581  Biso   1.000  C
  H80      1.0000 0.24810  0.37040  0.17570  Biso   1.000  H
  C107     1.0000 0.34610  0.36181  0.89396  Biso   1.000  C
  C108     1.0000 0.23050  0.39317  0.88661  Biso   1.000  C
  H81      1.0000 0.17530  0.40020  0.92490  Biso   1.000  H
  C109     1.0000 0.19610  0.41431  0.82243  Biso   1.000  C
  H82      1.0000 0.11830  0.43540  0.81820  Biso   1.000  H
  C110     1.0000 0.27601  0.40430  0.76505  Biso   1.000  C
  C111     1.0000 0.39290  0.37283  0.77265  Biso   1.000  C
  H83      1.0000 0.44840  0.36580  0.73450  Biso   1.000  H
  C112     1.0000 0.42640  0.35206  0.83688  Biso   1.000  C
  H84      1.0000 0.50450  0.33120  0.84140  Biso   1.000  H
  C113     1.0000 0.43579  0.28956  0.96633  Biso   1.000  C
  C114     1.0000 0.40464  0.25002  0.91958  Biso   1.000  C
  H85      1.0000 0.34810  0.25750  0.88200  Biso   1.000  H
  C115     1.0000 0.45649  0.19932  0.92788  Biso   1.000  C
  H86      1.0000 0.43340  0.17320  0.89610  Biso   1.000  H
  C116     1.0000 0.54163  0.18734  0.98261  Biso   1.000  C
  C117     1.0000 0.57450  0.22698  0.02970  Biso   1.000  C
  H87      1.0000 0.63190  0.21960  0.06700  Biso   1.000  H
  C118     1.0000 0.52240  0.27723  0.02135  Biso   1.000  C
  H88      1.0000 0.54560  0.30330  0.05310  Biso   1.000  H
  C119     1.0000 0.59764  0.13325  0.99190  Biso   1.000  C
  C120     1.0000 0.23652  0.42531  0.69543  Biso   1.000  C
  N6       1.0000 0.38011  0.34043  0.95940  Biso   1.000  N
  O31      1.0000 0.54499  0.09702  0.95468  Biso   1.000  O
  O32      1.0000 0.69273  0.12684  0.03539  Biso   1.000  O
  O33      1.0000 0.12898  0.45007  0.68766  Biso   1.000  O
  O34      1.0000 0.32408  0.41538  0.64796  Biso   1.000  O
  O35      1.0000 0.30237  0.45422  0.45391  Biso   1.000  O
  H89      1.0000 0.36500  0.45360  0.42320  Biso   1.000  H
  O36      1.0000 0.91886  0.49808  0.43574  Biso   1.000  O
  H90      1.0000 0.90590  0.50730  0.39390  Biso   1.000  H
  Cu13     1.0000 0.10847  0.02445  0.05242  Biso   1.000  Cu
  Cu14     1.0000 0.30833  0.06567  0.94712  Biso   1.000  Cu
  C121     1.0000 0.33410  0.06531  0.36397  Biso   1.000  C
  H91      1.0000 0.32490  0.04450  0.32450  Biso   1.000  H
  C122     1.0000 0.39330  0.04565  0.42095  Biso   1.000  C
  H92      1.0000 0.42450  0.01100  0.42100  Biso   1.000  H
  C123     1.0000 0.40870  0.07597  0.47935  Biso   1.000  C
  H93      1.0000 0.45080  0.06190  0.51840  Biso   1.000  H
  C124     1.0000 0.36170  0.12750  0.48016  Biso   1.000  C
  C125     1.0000 0.29850  0.14660  0.42267  Biso   1.000  C
  H94      1.0000 0.26240  0.18060  0.42270  Biso   1.000  H
  C126     1.0000 0.28770  0.11567  0.36419  Biso   1.000  C
  H95      1.0000 0.24810  0.12960  0.32430  Biso   1.000  H
  C127     1.0000 0.34610  0.13819  0.60604  Biso   1.000  C
  C128     1.0000 0.23050  0.10683  0.61339  Biso   1.000  C
  H96      1.0000 0.17530  0.09980  0.57510  Biso   1.000  H
  C129     1.0000 0.19610  0.08569  0.67757  Biso   1.000  C
  H97      1.0000 0.11830  0.06460  0.68180  Biso   1.000  H
  C130     1.0000 0.27601  0.09570  0.73495  Biso   1.000  C
  C131     1.0000 0.39290  0.12717  0.72735  Biso   1.000  C
  H98      1.0000 0.44840  0.13420  0.76550  Biso   1.000  H
  C132     1.0000 0.42640  0.14794  0.66312  Biso   1.000  C
  H99      1.0000 0.50450  0.16880  0.65860  Biso   1.000  H
  C133     1.0000 0.43579  0.21044  0.53367  Biso   1.000  C
  C134     1.0000 0.40464  0.24998  0.58042  Biso   1.000  C
  H100     1.0000 0.34810  0.24250  0.61800  Biso   1.000  H
  C135     1.0000 0.45649  0.30068  0.57212  Biso   1.000  C
  H101     1.0000 0.43340  0.32680  0.60390  Biso   1.000  H
  C136     1.0000 0.54163  0.31266  0.51739  Biso   1.000  C
  C137     1.0000 0.57450  0.27302  0.47030  Biso   1.000  C
  H102     1.0000 0.63190  0.28040  0.43300  Biso   1.000  H
  C138     1.0000 0.52240  0.22277  0.47865  Biso   1.000  C
  H103     1.0000 0.54560  0.19670  0.44690  Biso   1.000  H
  C139     1.0000 0.59764  0.36675  0.50810  Biso   1.000  C
  C140     1.0000 0.23652  0.07469  0.80457  Biso   1.000  C
  N7       1.0000 0.38011  0.15957  0.54060  Biso   1.000  N
  O37      1.0000 0.54499  0.40298  0.54532  Biso   1.000  O
  O38      1.0000 0.69273  0.37316  0.46461  Biso   1.000  O
  O39      1.0000 0.12898  0.04993  0.81234  Biso   1.000  O
  O40      1.0000 0.32408  0.08462  0.85204  Biso   1.000  O
  O41      1.0000 0.30237  0.04578  0.04609  Biso   1.000  O
  H104     1.0000 0.36500  0.04640  0.07680  Biso   1.000  H
  O42      1.0000 0.91886  0.00192  0.06426  Biso   1.000  O
  H105     1.0000 0.90590  0.99270  0.10610  Biso   1.000  H
  Cu15     1.0000 0.39153  0.97555  0.05242  Biso   1.000  Cu
  Cu16     1.0000 0.19167  0.93433  0.94712  Biso   1.000  Cu
  C141     1.0000 0.16590  0.93469  0.36397  Biso   1.000  C
  H106     1.0000 0.17510  0.95550  0.32450  Biso   1.000  H
  C142     1.0000 0.10670  0.95435  0.42095  Biso   1.000  C
  H107     1.0000 0.07550  0.98900  0.42100  Biso   1.000  H
  C143     1.0000 0.09130  0.92403  0.47935  Biso   1.000  C
  H108     1.0000 0.04920  0.93810  0.51840  Biso   1.000  H
  C144     1.0000 0.13830  0.87250  0.48016  Biso   1.000  C
  C145     1.0000 0.20150  0.85340  0.42267  Biso   1.000  C
  H109     1.0000 0.23760  0.81940  0.42270  Biso   1.000  H
  C146     1.0000 0.21230  0.88433  0.36419  Biso   1.000  C
  H110     1.0000 0.25190  0.87040  0.32430  Biso   1.000  H
  C147     1.0000 0.15390  0.86181  0.60604  Biso   1.000  C
  C148     1.0000 0.26950  0.89317  0.61339  Biso   1.000  C
  H111     1.0000 0.32470  0.90020  0.57510  Biso   1.000  H
  C149     1.0000 0.30390  0.91431  0.67757  Biso   1.000  C
  H112     1.0000 0.38170  0.93540  0.68180  Biso   1.000  H
  C150     1.0000 0.22399  0.90430  0.73495  Biso   1.000  C
  C151     1.0000 0.10710  0.87283  0.72735  Biso   1.000  C
  H113     1.0000 0.05160  0.86580  0.76550  Biso   1.000  H
  C152     1.0000 0.07360  0.85206  0.66312  Biso   1.000  C
  H114     1.0000 0.99550  0.83120  0.65860  Biso   1.000  H
  C153     1.0000 0.06421  0.78956  0.53367  Biso   1.000  C
  C154     1.0000 0.09536  0.75002  0.58042  Biso   1.000  C
  H115     1.0000 0.15190  0.75750  0.61800  Biso   1.000  H
  C155     1.0000 0.04351  0.69932  0.57212  Biso   1.000  C
  H116     1.0000 0.06660  0.67320  0.60390  Biso   1.000  H
  C156     1.0000 0.95837  0.68734  0.51739  Biso   1.000  C
  C157     1.0000 0.92550  0.72698  0.47030  Biso   1.000  C
  H117     1.0000 0.86810  0.71960  0.43300  Biso   1.000  H
  C158     1.0000 0.97760  0.77723  0.47865  Biso   1.000  C
  H118     1.0000 0.95440  0.80330  0.44690  Biso   1.000  H
  C159     1.0000 0.90236  0.63325  0.50810  Biso   1.000  C
  C160     1.0000 0.26348  0.92531  0.80457  Biso   1.000  C
  N8       1.0000 0.11989  0.84043  0.54060  Biso   1.000  N
  O43      1.0000 0.95501  0.59702  0.54532  Biso   1.000  O
  O44      1.0000 0.80727  0.62684  0.46461  Biso   1.000  O
  O45      1.0000 0.37102  0.95007  0.81234  Biso   1.000  O
  O46      1.0000 0.17592  0.91538  0.85204  Biso   1.000  O
  O47      1.0000 0.19763  0.95422  0.04609  Biso   1.000  O
  H119     1.0000 0.13500  0.95360  0.07680  Biso   1.000  H
  O48      1.0000 0.58114  0.99808  0.06426  Biso   1.000  O
  H120     1.0000 0.59410  0.00730  0.10610  Biso   1.000  H
