data_image0
_cell_length_a       10.8968
_cell_length_b       23.0553
_cell_length_c       23.287
_cell_angle_alpha    90
_cell_angle_beta     90
_cell_angle_gamma    90

_symmetry_space_group_name_H-M    "P 1"
_symmetry_int_tables_number       1

loop_
  _symmetry_equiv_pos_as_xyz
  'x, y, z'

loop_
  _atom_site_label
  _atom_site_occupancy
  _atom_site_fract_x
  _atom_site_fract_y
  _atom_site_fract_z
  _atom_site_thermal_displace_type
  _atom_site_B_iso_or_equiv
  _atom_site_type_symbol
  S1       1.0000 0.25869  0.93033  0.42980  Biso   1.000  S
  N1       1.0000 0.27410  0.82293  0.54209  Biso   1.000  N
  C1       1.0000 0.22590  0.07293  0.29209  Biso   1.000  C
  C2       1.0000 0.27680  0.04291  0.32269  Biso   1.000  C
  S2       1.0000 0.25869  0.43033  0.92980  Biso   1.000  S
  N2       1.0000 0.27410  0.32293  0.04209  Biso   1.000  N
  C3       1.0000 0.22590  0.57293  0.79209  Biso   1.000  C
  C4       1.0000 0.27680  0.54291  0.82269  Biso   1.000  C
  S3       1.0000 0.75869  0.93033  0.92980  Biso   1.000  S
  N3       1.0000 0.77410  0.82293  0.04209  Biso   1.000  N
  C5       1.0000 0.72590  0.07293  0.79209  Biso   1.000  C
  C6       1.0000 0.77680  0.04291  0.82269  Biso   1.000  C
  S4       1.0000 0.75869  0.43033  0.42980  Biso   1.000  S
  N4       1.0000 0.77410  0.32293  0.54209  Biso   1.000  N
  C7       1.0000 0.72590  0.57293  0.29209  Biso   1.000  C
  C8       1.0000 0.77680  0.54291  0.32269  Biso   1.000  C
  S5       1.0000 0.49131  0.81967  0.42980  Biso   1.000  S
  N5       1.0000 0.47590  0.92707  0.54209  Biso   1.000  N
  C9       1.0000 0.52410  0.67707  0.29209  Biso   1.000  C
  C10      1.0000 0.47320  0.70709  0.32269  Biso   1.000  C
  S6       1.0000 0.49131  0.31967  0.92980  Biso   1.000  S
  N6       1.0000 0.47590  0.42707  0.04209  Biso   1.000  N
  C11      1.0000 0.52410  0.17707  0.79209  Biso   1.000  C
  C12      1.0000 0.47320  0.20709  0.82269  Biso   1.000  C
  S7       1.0000 0.99131  0.81967  0.92980  Biso   1.000  S
  N7       1.0000 0.97590  0.92707  0.04209  Biso   1.000  N
  C13      1.0000 0.02410  0.67707  0.79209  Biso   1.000  C
  C14      1.0000 0.97320  0.70709  0.82269  Biso   1.000  C
  S8       1.0000 0.99131  0.31967  0.42980  Biso   1.000  S
  N8       1.0000 0.97590  0.42707  0.54209  Biso   1.000  N
  C15      1.0000 0.02410  0.17707  0.29209  Biso   1.000  C
  C16      1.0000 0.97320  0.20709  0.32269  Biso   1.000  C
  S9       1.0000 0.49131  0.93033  0.32020  Biso   1.000  S
  N9       1.0000 0.47590  0.82293  0.20791  Biso   1.000  N
  C17      1.0000 0.52410  0.07293  0.45791  Biso   1.000  C
  C18      1.0000 0.47320  0.04291  0.42731  Biso   1.000  C
  S10      1.0000 0.49131  0.43033  0.82020  Biso   1.000  S
  N10      1.0000 0.47590  0.32293  0.70791  Biso   1.000  N
  C19      1.0000 0.52410  0.57293  0.95791  Biso   1.000  C
  C20      1.0000 0.47320  0.54291  0.92731  Biso   1.000  C
  S11      1.0000 0.99131  0.93033  0.82020  Biso   1.000  S
  N11      1.0000 0.97590  0.82293  0.70791  Biso   1.000  N
  C21      1.0000 0.02410  0.07293  0.95791  Biso   1.000  C
  C22      1.0000 0.97320  0.04291  0.92731  Biso   1.000  C
  S12      1.0000 0.99131  0.43033  0.32020  Biso   1.000  S
  N12      1.0000 0.97590  0.32293  0.20791  Biso   1.000  N
  C23      1.0000 0.02410  0.57293  0.45791  Biso   1.000  C
  C24      1.0000 0.97320  0.54291  0.42731  Biso   1.000  C
  S13      1.0000 0.25869  0.81967  0.32020  Biso   1.000  S
  N13      1.0000 0.27410  0.92707  0.20791  Biso   1.000  N
  C25      1.0000 0.22590  0.67707  0.45791  Biso   1.000  C
  C26      1.0000 0.27680  0.70709  0.42731  Biso   1.000  C
  S14      1.0000 0.25869  0.31967  0.82020  Biso   1.000  S
  N14      1.0000 0.27410  0.42707  0.70791  Biso   1.000  N
  C27      1.0000 0.22590  0.17707  0.95791  Biso   1.000  C
  C28      1.0000 0.27680  0.20709  0.92731  Biso   1.000  C
  S15      1.0000 0.75869  0.81967  0.82020  Biso   1.000  S
  N15      1.0000 0.77410  0.92707  0.70791  Biso   1.000  N
  C29      1.0000 0.72590  0.67707  0.95791  Biso   1.000  C
  C30      1.0000 0.77680  0.70709  0.92731  Biso   1.000  C
  S16      1.0000 0.75869  0.31967  0.32020  Biso   1.000  S
  N16      1.0000 0.77410  0.42707  0.20791  Biso   1.000  N
  C31      1.0000 0.72590  0.17707  0.45791  Biso   1.000  C
  C32      1.0000 0.77680  0.20709  0.42731  Biso   1.000  C
  S17      1.0000 0.74131  0.06967  0.57020  Biso   1.000  S
  C33      1.0000 0.72320  0.95709  0.67731  Biso   1.000  C
  S18      1.0000 0.74131  0.56967  0.07020  Biso   1.000  S
  C34      1.0000 0.72320  0.45709  0.17731  Biso   1.000  C
  S19      1.0000 0.24131  0.06967  0.07020  Biso   1.000  S
  C35      1.0000 0.22320  0.95709  0.17731  Biso   1.000  C
  S20      1.0000 0.24131  0.56967  0.57020  Biso   1.000  S
  C36      1.0000 0.22320  0.45709  0.67731  Biso   1.000  C
  S21      1.0000 0.50869  0.18033  0.57020  Biso   1.000  S
  C37      1.0000 0.52680  0.29291  0.67731  Biso   1.000  C
  S22      1.0000 0.50869  0.68033  0.07020  Biso   1.000  S
  C38      1.0000 0.52680  0.79291  0.17731  Biso   1.000  C
  S23      1.0000 0.00869  0.18033  0.07020  Biso   1.000  S
  C39      1.0000 0.02680  0.29291  0.17731  Biso   1.000  C
  S24      1.0000 0.00869  0.68033  0.57020  Biso   1.000  S
  C40      1.0000 0.02680  0.79291  0.67731  Biso   1.000  C
  S25      1.0000 0.50869  0.06967  0.67980  Biso   1.000  S
  C41      1.0000 0.52680  0.95709  0.57269  Biso   1.000  C
  S26      1.0000 0.50869  0.56967  0.17980  Biso   1.000  S
  C42      1.0000 0.52680  0.45709  0.07269  Biso   1.000  C
  S27      1.0000 0.00869  0.06967  0.17980  Biso   1.000  S
  C43      1.0000 0.02680  0.95709  0.07269  Biso   1.000  C
  S28      1.0000 0.00869  0.56967  0.67980  Biso   1.000  S
  C44      1.0000 0.02680  0.45709  0.57269  Biso   1.000  C
  S29      1.0000 0.74131  0.18033  0.67980  Biso   1.000  S
  C45      1.0000 0.72320  0.29291  0.57269  Biso   1.000  C
  S30      1.0000 0.74131  0.68033  0.17980  Biso   1.000  S
  C46      1.0000 0.72320  0.79291  0.07269  Biso   1.000  C
  S31      1.0000 0.24131  0.18033  0.17980  Biso   1.000  S
  C47      1.0000 0.22320  0.29291  0.07269  Biso   1.000  C
  S32      1.0000 0.24131  0.68033  0.67980  Biso   1.000  S
  C48      1.0000 0.22320  0.79291  0.57269  Biso   1.000  C
  W1       1.0000 0.37500  0.87500  0.37500  Biso   1.000  W
  W2       1.0000 0.37500  0.37500  0.87500  Biso   1.000  W
  W3       1.0000 0.87500  0.87500  0.87500  Biso   1.000  W
  W4       1.0000 0.87500  0.37500  0.37500  Biso   1.000  W
  W5       1.0000 0.62500  0.12500  0.62500  Biso   1.000  W
  W6       1.0000 0.62500  0.62500  0.12500  Biso   1.000  W
  W7       1.0000 0.12500  0.12500  0.12500  Biso   1.000  W
  W8       1.0000 0.12500  0.62500  0.62500  Biso   1.000  W
  Cu1      1.0000 0.37500  0.87500  0.49492  Biso   1.000  Cu
  Cu2      1.0000 0.37500  0.37500  0.99492  Biso   1.000  Cu
  Cu3      1.0000 0.87500  0.87500  0.99492  Biso   1.000  Cu
  Cu4      1.0000 0.87500  0.37500  0.49492  Biso   1.000  Cu
  Cu5      1.0000 0.37500  0.87500  0.25508  Biso   1.000  Cu
  Cu6      1.0000 0.37500  0.37500  0.75508  Biso   1.000  Cu
  Cu7      1.0000 0.87500  0.87500  0.75508  Biso   1.000  Cu
  Cu8      1.0000 0.87500  0.37500  0.25508  Biso   1.000  Cu
  Cu9      1.0000 0.62500  0.12500  0.50508  Biso   1.000  Cu
  Cu10     1.0000 0.62500  0.62500  0.00508  Biso   1.000  Cu
  Cu11     1.0000 0.12500  0.12500  0.00508  Biso   1.000  Cu
  Cu12     1.0000 0.12500  0.62500  0.50508  Biso   1.000  Cu
  Cu13     1.0000 0.62500  0.12500  0.74492  Biso   1.000  Cu
  Cu14     1.0000 0.62500  0.62500  0.24492  Biso   1.000  Cu
  Cu15     1.0000 0.12500  0.12500  0.24492  Biso   1.000  Cu
  Cu16     1.0000 0.12500  0.62500  0.74492  Biso   1.000  Cu
  Cu17     1.0000 0.37500  0.99487  0.37500  Biso   1.000  Cu
  Cu18     1.0000 0.37500  0.49487  0.87500  Biso   1.000  Cu
  Cu19     1.0000 0.87500  0.99487  0.87500  Biso   1.000  Cu
  Cu20     1.0000 0.87500  0.49487  0.37500  Biso   1.000  Cu
  Cu21     1.0000 0.37500  0.75513  0.37500  Biso   1.000  Cu
  Cu22     1.0000 0.37500  0.25513  0.87500  Biso   1.000  Cu
  Cu23     1.0000 0.87500  0.75513  0.87500  Biso   1.000  Cu
  Cu24     1.0000 0.87500  0.25513  0.37500  Biso   1.000  Cu
  Cu25     1.0000 0.62500  0.00513  0.62500  Biso   1.000  Cu
  Cu26     1.0000 0.62500  0.50513  0.12500  Biso   1.000  Cu
  Cu27     1.0000 0.12500  0.00513  0.12500  Biso   1.000  Cu
  Cu28     1.0000 0.12500  0.50513  0.62500  Biso   1.000  Cu
  Cu29     1.0000 0.62500  0.24487  0.62500  Biso   1.000  Cu
  Cu30     1.0000 0.62500  0.74487  0.12500  Biso   1.000  Cu
  Cu31     1.0000 0.12500  0.24487  0.12500  Biso   1.000  Cu
  Cu32     1.0000 0.12500  0.74487  0.62500  Biso   1.000  Cu
