data_image0
_cell_length_a       10.9696
_cell_length_b       23.0792
_cell_length_c       23.3276
_cell_angle_alpha    90
_cell_angle_beta     90
_cell_angle_gamma    90

_symmetry_space_group_name_H-M    "P 1"
_symmetry_int_tables_number       1

loop_
  _symmetry_equiv_pos_as_xyz
  'x, y, z'

loop_
  _atom_site_label
  _atom_site_occupancy
  _atom_site_fract_x
  _atom_site_fract_y
  _atom_site_fract_z
  _atom_site_thermal_displace_type
  _atom_site_B_iso_or_equiv
  _atom_site_type_symbol
  S1       1.0000 0.25941  0.93063  0.43014  Biso   1.000  S
  C1       1.0000 0.27410  0.82323  0.54215  Biso   1.000  C
  C2       1.0000 0.27710  0.04318  0.32250  Biso   1.000  C
  N1       1.0000 0.27710  0.70682  0.42750  Biso   1.000  N
  S2       1.0000 0.25941  0.43063  0.93014  Biso   1.000  S
  C3       1.0000 0.27410  0.32323  0.04215  Biso   1.000  C
  C4       1.0000 0.27710  0.54318  0.82250  Biso   1.000  C
  N2       1.0000 0.27710  0.20682  0.92750  Biso   1.000  N
  S3       1.0000 0.75941  0.93063  0.93014  Biso   1.000  S
  C5       1.0000 0.77410  0.82323  0.04215  Biso   1.000  C
  C6       1.0000 0.77710  0.04318  0.82250  Biso   1.000  C
  N3       1.0000 0.77710  0.70682  0.92750  Biso   1.000  N
  S4       1.0000 0.75941  0.43063  0.43014  Biso   1.000  S
  C7       1.0000 0.77410  0.32323  0.54215  Biso   1.000  C
  C8       1.0000 0.77710  0.54318  0.32250  Biso   1.000  C
  N4       1.0000 0.77710  0.20682  0.42750  Biso   1.000  N
  S5       1.0000 0.49059  0.81937  0.43014  Biso   1.000  S
  C9       1.0000 0.47590  0.92677  0.54215  Biso   1.000  C
  C10      1.0000 0.47290  0.70682  0.32250  Biso   1.000  C
  N5       1.0000 0.47290  0.04318  0.42750  Biso   1.000  N
  S6       1.0000 0.49059  0.31937  0.93014  Biso   1.000  S
  C11      1.0000 0.47590  0.42677  0.04215  Biso   1.000  C
  C12      1.0000 0.47290  0.20682  0.82250  Biso   1.000  C
  N6       1.0000 0.47290  0.54318  0.92750  Biso   1.000  N
  S7       1.0000 0.99059  0.81937  0.93014  Biso   1.000  S
  C13      1.0000 0.97590  0.92677  0.04215  Biso   1.000  C
  C14      1.0000 0.97290  0.70682  0.82250  Biso   1.000  C
  N7       1.0000 0.97290  0.04318  0.92750  Biso   1.000  N
  S8       1.0000 0.99059  0.31937  0.43014  Biso   1.000  S
  C15      1.0000 0.97590  0.42677  0.54215  Biso   1.000  C
  C16      1.0000 0.97290  0.20682  0.32250  Biso   1.000  C
  N8       1.0000 0.97290  0.54318  0.42750  Biso   1.000  N
  S9       1.0000 0.49059  0.93063  0.31986  Biso   1.000  S
  C17      1.0000 0.47590  0.82323  0.20785  Biso   1.000  C
  S10      1.0000 0.49059  0.43063  0.81986  Biso   1.000  S
  C18      1.0000 0.47590  0.32323  0.70785  Biso   1.000  C
  S11      1.0000 0.99059  0.93063  0.81986  Biso   1.000  S
  C19      1.0000 0.97590  0.82323  0.70785  Biso   1.000  C
  S12      1.0000 0.99059  0.43063  0.31986  Biso   1.000  S
  C20      1.0000 0.97590  0.32323  0.20785  Biso   1.000  C
  S13      1.0000 0.25941  0.81937  0.31986  Biso   1.000  S
  C21      1.0000 0.27410  0.92677  0.20785  Biso   1.000  C
  S14      1.0000 0.25941  0.31937  0.81986  Biso   1.000  S
  C22      1.0000 0.27410  0.42677  0.70785  Biso   1.000  C
  S15      1.0000 0.75941  0.81937  0.81986  Biso   1.000  S
  C23      1.0000 0.77410  0.92677  0.70785  Biso   1.000  C
  S16      1.0000 0.75941  0.31937  0.31986  Biso   1.000  S
  C24      1.0000 0.77410  0.42677  0.20785  Biso   1.000  C
  S17      1.0000 0.74059  0.06937  0.56986  Biso   1.000  S
  C25      1.0000 0.72590  0.17677  0.45785  Biso   1.000  C
  C26      1.0000 0.72290  0.95682  0.67750  Biso   1.000  C
  N9       1.0000 0.72290  0.29318  0.57250  Biso   1.000  N
  S18      1.0000 0.74059  0.56937  0.06986  Biso   1.000  S
  C27      1.0000 0.72590  0.67677  0.95785  Biso   1.000  C
  C28      1.0000 0.72290  0.45682  0.17750  Biso   1.000  C
  N10      1.0000 0.72290  0.79318  0.07250  Biso   1.000  N
  S19      1.0000 0.24059  0.06937  0.06986  Biso   1.000  S
  C29      1.0000 0.22590  0.17677  0.95785  Biso   1.000  C
  C30      1.0000 0.22290  0.95682  0.17750  Biso   1.000  C
  N11      1.0000 0.22290  0.29318  0.07250  Biso   1.000  N
  S20      1.0000 0.24059  0.56937  0.56986  Biso   1.000  S
  C31      1.0000 0.22590  0.67677  0.45785  Biso   1.000  C
  C32      1.0000 0.22290  0.45682  0.67750  Biso   1.000  C
  N12      1.0000 0.22290  0.79318  0.57250  Biso   1.000  N
  S21      1.0000 0.50941  0.18063  0.56986  Biso   1.000  S
  C33      1.0000 0.52410  0.07323  0.45785  Biso   1.000  C
  C34      1.0000 0.52710  0.29318  0.67750  Biso   1.000  C
  N13      1.0000 0.52710  0.95682  0.57250  Biso   1.000  N
  S22      1.0000 0.50941  0.68063  0.06986  Biso   1.000  S
  C35      1.0000 0.52410  0.57323  0.95785  Biso   1.000  C
  C36      1.0000 0.52710  0.79318  0.17750  Biso   1.000  C
  N14      1.0000 0.52710  0.45682  0.07250  Biso   1.000  N
  S23      1.0000 0.00941  0.18063  0.06986  Biso   1.000  S
  C37      1.0000 0.02410  0.07323  0.95785  Biso   1.000  C
  C38      1.0000 0.02710  0.29318  0.17750  Biso   1.000  C
  N15      1.0000 0.02710  0.95682  0.07250  Biso   1.000  N
  S24      1.0000 0.00941  0.68063  0.56986  Biso   1.000  S
  C39      1.0000 0.02410  0.57323  0.45785  Biso   1.000  C
  C40      1.0000 0.02710  0.79318  0.67750  Biso   1.000  C
  N16      1.0000 0.02710  0.45682  0.57250  Biso   1.000  N
  S25      1.0000 0.50941  0.06937  0.68014  Biso   1.000  S
  C41      1.0000 0.52410  0.17677  0.79215  Biso   1.000  C
  S26      1.0000 0.50941  0.56937  0.18014  Biso   1.000  S
  C42      1.0000 0.52410  0.67677  0.29215  Biso   1.000  C
  S27      1.0000 0.00941  0.06937  0.18014  Biso   1.000  S
  C43      1.0000 0.02410  0.17677  0.29215  Biso   1.000  C
  S28      1.0000 0.00941  0.56937  0.68014  Biso   1.000  S
  C44      1.0000 0.02410  0.67677  0.79215  Biso   1.000  C
  S29      1.0000 0.74059  0.18063  0.68014  Biso   1.000  S
  C45      1.0000 0.72590  0.07323  0.79215  Biso   1.000  C
  S30      1.0000 0.74059  0.68063  0.18014  Biso   1.000  S
  C46      1.0000 0.72590  0.57323  0.29215  Biso   1.000  C
  S31      1.0000 0.24059  0.18063  0.18014  Biso   1.000  S
  C47      1.0000 0.22590  0.07323  0.29215  Biso   1.000  C
  S32      1.0000 0.24059  0.68063  0.68014  Biso   1.000  S
  C48      1.0000 0.22590  0.57323  0.79215  Biso   1.000  C
  Mo1      1.0000 0.37500  0.87500  0.37500  Biso   1.000  Mo
  Mo2      1.0000 0.37500  0.37500  0.87500  Biso   1.000  Mo
  Mo3      1.0000 0.87500  0.87500  0.87500  Biso   1.000  Mo
  Mo4      1.0000 0.87500  0.37500  0.37500  Biso   1.000  Mo
  Mo5      1.0000 0.62500  0.12500  0.62500  Biso   1.000  Mo
  Mo6      1.0000 0.62500  0.62500  0.12500  Biso   1.000  Mo
  Mo7      1.0000 0.12500  0.12500  0.12500  Biso   1.000  Mo
  Mo8      1.0000 0.12500  0.62500  0.62500  Biso   1.000  Mo
  Cu1      1.0000 0.37500  0.87500  0.49411  Biso   1.000  Cu
  Cu2      1.0000 0.37500  0.37500  0.99411  Biso   1.000  Cu
  Cu3      1.0000 0.87500  0.87500  0.99411  Biso   1.000  Cu
  Cu4      1.0000 0.87500  0.37500  0.49411  Biso   1.000  Cu
  Cu5      1.0000 0.37500  0.87500  0.25589  Biso   1.000  Cu
  Cu6      1.0000 0.37500  0.37500  0.75589  Biso   1.000  Cu
  Cu7      1.0000 0.87500  0.87500  0.75589  Biso   1.000  Cu
  Cu8      1.0000 0.87500  0.37500  0.25589  Biso   1.000  Cu
  Cu9      1.0000 0.62500  0.12500  0.50589  Biso   1.000  Cu
  Cu10     1.0000 0.62500  0.62500  0.00589  Biso   1.000  Cu
  Cu11     1.0000 0.12500  0.12500  0.00589  Biso   1.000  Cu
  Cu12     1.0000 0.12500  0.62500  0.50589  Biso   1.000  Cu
  Cu13     1.0000 0.62500  0.12500  0.74411  Biso   1.000  Cu
  Cu14     1.0000 0.62500  0.62500  0.24411  Biso   1.000  Cu
  Cu15     1.0000 0.12500  0.12500  0.24411  Biso   1.000  Cu
  Cu16     1.0000 0.12500  0.62500  0.74411  Biso   1.000  Cu
  Cu17     1.0000 0.37500  0.99421  0.37500  Biso   1.000  Cu
  Cu18     1.0000 0.37500  0.49421  0.87500  Biso   1.000  Cu
  Cu19     1.0000 0.87500  0.99421  0.87500  Biso   1.000  Cu
  Cu20     1.0000 0.87500  0.49421  0.37500  Biso   1.000  Cu
  Cu21     1.0000 0.37500  0.75579  0.37500  Biso   1.000  Cu
  Cu22     1.0000 0.37500  0.25579  0.87500  Biso   1.000  Cu
  Cu23     1.0000 0.87500  0.75579  0.87500  Biso   1.000  Cu
  Cu24     1.0000 0.87500  0.25579  0.37500  Biso   1.000  Cu
  Cu25     1.0000 0.62500  0.00579  0.62500  Biso   1.000  Cu
  Cu26     1.0000 0.62500  0.50579  0.12500  Biso   1.000  Cu
  Cu27     1.0000 0.12500  0.00579  0.12500  Biso   1.000  Cu
  Cu28     1.0000 0.12500  0.50579  0.62500  Biso   1.000  Cu
  Cu29     1.0000 0.62500  0.24421  0.62500  Biso   1.000  Cu
  Cu30     1.0000 0.62500  0.74421  0.12500  Biso   1.000  Cu
  Cu31     1.0000 0.12500  0.24421  0.12500  Biso   1.000  Cu
  Cu32     1.0000 0.12500  0.74421  0.62500  Biso   1.000  Cu
