data_image0
_cell_length_a       9.1314
_cell_length_b       12.7496
_cell_length_c       14.7479
_cell_angle_alpha    89.48
_cell_angle_beta     86.249
_cell_angle_gamma    72.419

_symmetry_space_group_name_H-M    "P 1"
_symmetry_int_tables_number       1

loop_
  _symmetry_equiv_pos_as_xyz
  'x, y, z'

loop_
  _atom_site_label
  _atom_site_occupancy
  _atom_site_fract_x
  _atom_site_fract_y
  _atom_site_fract_z
  _atom_site_thermal_displace_type
  _atom_site_B_iso_or_equiv
  _atom_site_type_symbol
  Ga1      1.0000 0.95703  0.13329  0.38984  Biso   1.000  Ga
  Ga2      1.0000 0.94281  0.12796  0.13990  Biso   1.000  Ga
  Ga3      1.0000 0.31459  0.30723  0.24511  Biso   1.000  Ga
  Ga4      1.0000 0.94357  0.64475  0.38006  Biso   1.000  Ga
  Ga5      1.0000 0.32004  0.80991  0.23424  Biso   1.000  Ga
  Mn1      1.0000 0.81969  0.43532  0.25679  Biso   1.000  Mn
  Mn2      1.0000 0.03684  0.29938  0.89313  Biso   1.000  Mn
  P1       1.0000 0.67311  0.26447  0.28271  Biso   1.000  P
  P2       1.0000 0.22023  0.07464  0.28312  Biso   1.000  P
  P3       1.0000 0.04257  0.36938  0.39916  Biso   1.000  P
  P4       1.0000 0.09210  0.32687  0.09304  Biso   1.000  P
  P5       1.0000 0.68608  0.69280  0.24489  Biso   1.000  P
  P6       1.0000 0.23305  0.57554  0.23019  Biso   1.000  P
  P7       1.0000 0.03712  0.86590  0.39481  Biso   1.000  P
  P8       1.0000 0.85680  0.12092  0.93723  Biso   1.000  P
  O1       1.0000 0.64620  0.38250  0.31660  Biso   1.000  O
  O2       1.0000 0.74420  0.17990  0.35530  Biso   1.000  O
  O3       1.0000 0.52340  0.24730  0.25890  Biso   1.000  O
  O4       1.0000 0.78670  0.25140  0.19900  Biso   1.000  O
  O5       1.0000 0.05140  0.10650  0.25380  Biso   1.000  O
  O6       1.0000 0.31730  0.96410  0.24520  Biso   1.000  O
  O7       1.0000 0.18940  0.07640  0.38760  Biso   1.000  O
  O8       1.0000 0.30160  0.15740  0.24990  Biso   1.000  O
  O9       1.0000 0.93950  0.47820  0.36020  Biso   1.000  O
  O10      1.0000 0.95460  0.61660  0.50010  Biso   1.000  O
  O11      1.0000 0.96900  0.28390  0.37200  Biso   1.000  O
  O12      1.0000 0.20900  0.34510  0.35890  Biso   1.000  O
  O13      1.0000 0.97510  0.40870  0.15280  Biso   1.000  O
  O14      1.0000 0.25550  0.31090  0.12290  Biso   1.000  O
  O15      1.0000 0.06500  0.21540  0.08810  Biso   1.000  O
  O16      1.0000 0.09280  0.36970  0.99450  Biso   1.000  O
  O17      1.0000 0.69360  0.58200  0.20490  Biso   1.000  O
  O18      1.0000 0.21320  0.25340  0.81450  Biso   1.000  O
  O19      1.0000 0.74700  0.67720  0.33970  Biso   1.000  O
  O20      1.0000 0.52540  0.77230  0.25580  Biso   1.000  O
  O21      1.0000 0.33100  0.45680  0.22720  Biso   1.000  O
  O22      1.0000 0.86200  0.40270  0.85330  Biso   1.000  O
  O23      1.0000 0.13530  0.59740  0.31950  Biso   1.000  O
  O24      1.0000 0.33860  0.64860  0.22770  Biso   1.000  O
  O25      1.0000 0.92990  0.79480  0.38850  Biso   1.000  O
  O26      1.0000 0.16980  0.82870  0.32420  Biso   1.000  O
  O27      1.0000 0.89380  0.14570  0.51410  Biso   1.000  O
  O28      1.0000 0.93770  0.98330  0.37910  Biso   1.000  O
  O29      1.0000 0.98980  0.16410  0.90000  Biso   1.000  O
  O30      1.0000 0.29050  0.82130  0.11130  Biso   1.000  O
  O31      1.0000 0.81650  0.14840  0.03710  Biso   1.000  O
  O32      1.0000 0.09880  0.00180  0.08120  Biso   1.000  O
  Ga6      1.0000 0.04297  0.86671  0.61016  Biso   1.000  Ga
  Ga7      1.0000 0.05719  0.87204  0.86010  Biso   1.000  Ga
  Ga8      1.0000 0.68541  0.69277  0.75489  Biso   1.000  Ga
  Ga9      1.0000 0.05643  0.35525  0.61994  Biso   1.000  Ga
  Ga10     1.0000 0.67996  0.19009  0.76576  Biso   1.000  Ga
  Mn3      1.0000 0.18031  0.56468  0.74321  Biso   1.000  Mn
  Mn4      1.0000 0.96316  0.70062  0.10687  Biso   1.000  Mn
  P9       1.0000 0.32689  0.73553  0.71729  Biso   1.000  P
  P10      1.0000 0.77977  0.92536  0.71688  Biso   1.000  P
  P11      1.0000 0.95743  0.63062  0.60084  Biso   1.000  P
  P12      1.0000 0.90790  0.67313  0.90696  Biso   1.000  P
  P13      1.0000 0.31392  0.30720  0.75511  Biso   1.000  P
  P14      1.0000 0.76695  0.42446  0.76981  Biso   1.000  P
  P15      1.0000 0.96288  0.13410  0.60519  Biso   1.000  P
  P16      1.0000 0.14320  0.87908  0.06277  Biso   1.000  P
  O33      1.0000 0.35380  0.61750  0.68340  Biso   1.000  O
  O34      1.0000 0.25580  0.82010  0.64470  Biso   1.000  O
  O35      1.0000 0.47660  0.75270  0.74110  Biso   1.000  O
  O36      1.0000 0.21330  0.74860  0.80100  Biso   1.000  O
  O37      1.0000 0.94860  0.89350  0.74620  Biso   1.000  O
  O38      1.0000 0.68270  0.03590  0.75480  Biso   1.000  O
  O39      1.0000 0.81060  0.92360  0.61240  Biso   1.000  O
  O40      1.0000 0.69840  0.84260  0.75010  Biso   1.000  O
  O41      1.0000 0.06050  0.52180  0.63980  Biso   1.000  O
  O42      1.0000 0.04540  0.38340  0.49990  Biso   1.000  O
  O43      1.0000 0.03100  0.71610  0.62800  Biso   1.000  O
  O44      1.0000 0.79100  0.65490  0.64110  Biso   1.000  O
  O45      1.0000 0.02490  0.59130  0.84720  Biso   1.000  O
  O46      1.0000 0.74450  0.68910  0.87710  Biso   1.000  O
  O47      1.0000 0.93500  0.78460  0.91190  Biso   1.000  O
  O48      1.0000 0.90720  0.63030  0.00550  Biso   1.000  O
  O49      1.0000 0.30640  0.41800  0.79510  Biso   1.000  O
  O50      1.0000 0.78680  0.74660  0.18550  Biso   1.000  O
  O51      1.0000 0.25300  0.32280  0.66030  Biso   1.000  O
  O52      1.0000 0.47460  0.22770  0.74420  Biso   1.000  O
  O53      1.0000 0.66900  0.54320  0.77280  Biso   1.000  O
  O54      1.0000 0.13800  0.59730  0.14670  Biso   1.000  O
  O55      1.0000 0.86470  0.40260  0.68050  Biso   1.000  O
  O56      1.0000 0.66140  0.35140  0.77230  Biso   1.000  O
  O57      1.0000 0.07010  0.20520  0.61150  Biso   1.000  O
  O58      1.0000 0.83020  0.17130  0.67580  Biso   1.000  O
  O59      1.0000 0.10620  0.85430  0.48590  Biso   1.000  O
  O60      1.0000 0.06230  0.01670  0.62090  Biso   1.000  O
  O61      1.0000 0.01020  0.83590  0.10000  Biso   1.000  O
  O62      1.0000 0.70950  0.17870  0.88870  Biso   1.000  O
  O63      1.0000 0.18350  0.85160  0.96290  Biso   1.000  O
  O64      1.0000 0.90120  0.99820  0.91880  Biso   1.000  O
