data_WIYMOG_charged
_audit_creation_date              2014-07-02
_audit_creation_method            'Materials Studio'
_symmetry_space_group_name_H-M    'P1'
_symmetry_Int_Tables_number       1
_symmetry_cell_setting            triclinic
loop_
_symmetry_equiv_pos_as_xyz
  x,y,z
_cell_length_a                    19.8530
_cell_length_b                    24.1512
_cell_length_c                    30.5734
_cell_angle_alpha                 90.0000
_cell_angle_beta                  90.0000
_cell_angle_gamma                 109.4110
loop_
_atom_site_label
_atom_site_type_symbol
_atom_site_fract_x
_atom_site_fract_y
_atom_site_fract_z
_atom_site_U_iso_or_equiv
_atom_site_adp_type
_atom_site_occupancy
Tb1    Tb    0.97817   0.91366   0.49544   0.01267  Uiso   1.00
Tb2    Tb    0.02183   0.58634   0.99544   0.01267  Uiso   1.00
Tb3    Tb    0.02183   0.08634   0.50456   0.01267  Uiso   1.00
Tb4    Tb    0.97817   0.41366   0.00456   0.01267  Uiso   1.00
H1     H     0.79020   0.56870   0.49710   0.01267  Uiso   1.00
H2     H     0.90930   0.61180   0.51310   0.01267  Uiso   1.00
H3     H     0.95810   0.71260   0.52040   0.01267  Uiso   1.00
H4     H     0.76770   0.72790   0.48870   0.01267  Uiso   1.00
H5     H     0.68740   0.58380   0.45530   0.01267  Uiso   1.00
H6     H     0.67490   0.64500   0.46080   0.01267  Uiso   1.00
H7     H     0.22350   0.99140   0.29940   0.01267  Uiso   1.00
H8     H     0.24620   0.08820   0.32160   0.01267  Uiso   1.00
H9     H     0.18760   0.10930   0.38180   0.01267  Uiso   1.00
H10    H     0.09330   0.93600   0.40320   0.01267  Uiso   1.00
H11    H     0.18330   0.88750   0.32080   0.01267  Uiso   1.00
H12    H     0.13720   0.86740   0.36390   0.01267  Uiso   1.00
H13    H     0.04990   0.78070   0.32550   0.01267  Uiso   1.00
H14    H     0.10210   0.79880   0.28500   0.01267  Uiso   1.00
H15    H     0.00600   0.80470   0.24200   0.01267  Uiso   1.00
H16    H     0.95460   0.78190   0.28260   0.01267  Uiso   1.00
H17    H     0.75180   0.00610   0.29810   0.01267  Uiso   1.00
H18    H     0.73850   0.91530   0.33010   0.01267  Uiso   1.00
H19    H     0.81080   0.90880   0.38830   0.01267  Uiso   1.00
H20    H     0.91150   0.08340   0.38190   0.01267  Uiso   1.00
H21    H     0.80110   0.11120   0.30040   0.01267  Uiso   1.00
H22    H     0.84570   0.14150   0.34220   0.01267  Uiso   1.00
H23    H     0.92530   0.72120   0.20180   0.01267  Uiso   1.00
H24    H     0.87900   0.69360   0.24350   0.01267  Uiso   1.00
H25    H     0.20980   0.93130   0.99710   0.01267  Uiso   1.00
H26    H     0.09070   0.88820   0.01310   0.01267  Uiso   1.00
H27    H     0.04190   0.78740   0.02040   0.01267  Uiso   1.00
H28    H     0.23230   0.77210   0.98870   0.01267  Uiso   1.00
H29    H     0.31260   0.91620   0.95530   0.01267  Uiso   1.00
H30    H     0.32510   0.85500   0.96080   0.01267  Uiso   1.00
H31    H     0.77650   0.50860   0.79940   0.01267  Uiso   1.00
H32    H     0.75380   0.41180   0.82160   0.01267  Uiso   1.00
H33    H     0.81240   0.39070   0.88180   0.01267  Uiso   1.00
H34    H     0.90670   0.56400   0.90320   0.01267  Uiso   1.00
H35    H     0.81670   0.61250   0.82080   0.01267  Uiso   1.00
H36    H     0.86280   0.63260   0.86390   0.01267  Uiso   1.00
H37    H     0.95010   0.71930   0.82550   0.01267  Uiso   1.00
H38    H     0.89790   0.70120   0.78500   0.01267  Uiso   1.00
H39    H     0.99400   0.69530   0.74200   0.01267  Uiso   1.00
H40    H     0.04540   0.71810   0.78260   0.01267  Uiso   1.00
H41    H     0.24820   0.49390   0.79810   0.01267  Uiso   1.00
H42    H     0.26150   0.58470   0.83010   0.01267  Uiso   1.00
H43    H     0.18920   0.59120   0.88830   0.01267  Uiso   1.00
H44    H     0.08850   0.41660   0.88190   0.01267  Uiso   1.00
H45    H     0.19890   0.38880   0.80040   0.01267  Uiso   1.00
H46    H     0.15430   0.35850   0.84220   0.01267  Uiso   1.00
H47    H     0.07470   0.77880   0.70180   0.01267  Uiso   1.00
H48    H     0.12100   0.80640   0.74350   0.01267  Uiso   1.00
H49    H     0.20980   0.43130   0.50290   0.01267  Uiso   1.00
H50    H     0.09070   0.38820   0.48690   0.01267  Uiso   1.00
H51    H     0.04190   0.28740   0.47960   0.01267  Uiso   1.00
H52    H     0.23230   0.27210   0.51130   0.01267  Uiso   1.00
H53    H     0.31260   0.41620   0.54470   0.01267  Uiso   1.00
H54    H     0.32510   0.35500   0.53920   0.01267  Uiso   1.00
H55    H     0.77650   0.00860   0.70060   0.01267  Uiso   1.00
H56    H     0.75380   0.91180   0.67840   0.01267  Uiso   1.00
H57    H     0.81240   0.89070   0.61820   0.01267  Uiso   1.00
H58    H     0.90670   0.06400   0.59680   0.01267  Uiso   1.00
H59    H     0.81670   0.11250   0.67920   0.01267  Uiso   1.00
H60    H     0.86280   0.13260   0.63610   0.01267  Uiso   1.00
H61    H     0.95010   0.21930   0.67450   0.01267  Uiso   1.00
H62    H     0.89790   0.20120   0.71500   0.01267  Uiso   1.00
H63    H     0.99400   0.19530   0.75800   0.01267  Uiso   1.00
H64    H     0.04540   0.21810   0.71740   0.01267  Uiso   1.00
H65    H     0.24820   0.99390   0.70190   0.01267  Uiso   1.00
H66    H     0.26150   0.08470   0.66990   0.01267  Uiso   1.00
H67    H     0.18920   0.09120   0.61170   0.01267  Uiso   1.00
H68    H     0.08850   0.91660   0.61810   0.01267  Uiso   1.00
H69    H     0.19890   0.88880   0.69960   0.01267  Uiso   1.00
H70    H     0.15430   0.85850   0.65780   0.01267  Uiso   1.00
H71    H     0.07470   0.27880   0.79820   0.01267  Uiso   1.00
H72    H     0.12100   0.30640   0.75650   0.01267  Uiso   1.00
H73    H     0.79020   0.06870   0.00290   0.01267  Uiso   1.00
H74    H     0.90930   0.11180   0.98690   0.01267  Uiso   1.00
H75    H     0.95810   0.21260   0.97960   0.01267  Uiso   1.00
H76    H     0.76770   0.22790   0.01130   0.01267  Uiso   1.00
H77    H     0.68740   0.08380   0.04470   0.01267  Uiso   1.00
H78    H     0.67490   0.14500   0.03920   0.01267  Uiso   1.00
H79    H     0.22350   0.49140   0.20060   0.01267  Uiso   1.00
H80    H     0.24620   0.58820   0.17840   0.01267  Uiso   1.00
H81    H     0.18760   0.60930   0.11820   0.01267  Uiso   1.00
H82    H     0.09330   0.43600   0.09680   0.01267  Uiso   1.00
H83    H     0.18330   0.38750   0.17920   0.01267  Uiso   1.00
H84    H     0.13720   0.36740   0.13610   0.01267  Uiso   1.00
H85    H     0.04990   0.28070   0.17450   0.01267  Uiso   1.00
H86    H     0.10210   0.29880   0.21500   0.01267  Uiso   1.00
H87    H     0.00600   0.30470   0.25800   0.01267  Uiso   1.00
H88    H     0.95460   0.28190   0.21740   0.01267  Uiso   1.00
H89    H     0.75180   0.50610   0.20190   0.01267  Uiso   1.00
H90    H     0.73850   0.41530   0.16990   0.01267  Uiso   1.00
H91    H     0.81080   0.40880   0.11170   0.01267  Uiso   1.00
H92    H     0.91150   0.58340   0.11810   0.01267  Uiso   1.00
H93    H     0.80110   0.61120   0.19960   0.01267  Uiso   1.00
H94    H     0.84570   0.64150   0.15780   0.01267  Uiso   1.00
H95    H     0.92530   0.22120   0.29820   0.01267  Uiso   1.00
H96    H     0.87900   0.19360   0.25650   0.01267  Uiso   1.00
C1     C     0.76720   0.64360   0.49010   0.01267  Uiso   1.00
C2     C     0.80990   0.60980   0.49850   0.01267  Uiso   1.00
C3     C     0.88060   0.63540   0.50870   0.01267  Uiso   1.00
C4     C     0.90980   0.69540   0.51270   0.01267  Uiso   1.00
C5     C     0.86790   0.73070   0.50520   0.01267  Uiso   1.00
C6     C     0.79640   0.70440   0.49390   0.01267  Uiso   1.00
C7     C     0.89910   0.79540   0.50650   0.01267  Uiso   1.00
C8     C     0.69080   0.61580   0.47590   0.01267  Uiso   1.00
C9     C     0.56850   0.55500   0.49970   0.01267  Uiso   1.00
C10    C     0.52140   0.52560   0.53340   0.01267  Uiso   1.00
C11    C     0.55840   0.50510   0.48390   0.01267  Uiso   1.00
C12    C     0.15620   0.95430   0.34920   0.01267  Uiso   1.00
C13    C     0.20150   0.99960   0.32460   0.01267  Uiso   1.00
C14    C     0.21420   0.05740   0.33760   0.01267  Uiso   1.00
C15    C     0.18020   0.07010   0.37400   0.01267  Uiso   1.00
C16    C     0.13550   0.02470   0.39890   0.01267  Uiso   1.00
C17    C     0.12360   0.96680   0.38640   0.01267  Uiso   1.00
C18    C     0.09850   0.03910   0.43860   0.01267  Uiso   1.00
C19    C     0.14230   0.89080   0.33710   0.01267  Uiso   1.00
C20    C     0.05980   0.80390   0.29850   0.01267  Uiso   1.00
C21    C     0.99800   0.78000   0.26830   0.01267  Uiso   1.00
C22    C     0.83350   0.05340   0.33770   0.01267  Uiso   1.00
C23    C     0.78120   0.00340   0.32150   0.01267  Uiso   1.00
C24    C     0.77330   0.94940   0.34070   0.01267  Uiso   1.00
C25    C     0.81650   0.94550   0.37550   0.01267  Uiso   1.00
C26    C     0.86780   0.99540   0.39120   0.01267  Uiso   1.00
C27    C     0.87610   0.04940   0.37160   0.01267  Uiso   1.00
C28    C     0.91120   0.99360   0.43120   0.01267  Uiso   1.00
C29    C     0.84260   0.11330   0.31850   0.01267  Uiso   1.00
C30    C     0.92090   0.69420   0.22640   0.01267  Uiso   1.00
C31    C     0.98670   0.71660   0.25480   0.01267  Uiso   1.00
C32    C     0.23280   0.85640   0.99010   0.01267  Uiso   1.00
C33    C     0.19010   0.89020   0.99850   0.01267  Uiso   1.00
C34    C     0.11940   0.86460   0.00870   0.01267  Uiso   1.00
C35    C     0.09020   0.80460   0.01270   0.01267  Uiso   1.00
C36    C     0.13210   0.76930   0.00520   0.01267  Uiso   1.00
C37    C     0.20360   0.79560   0.99390   0.01267  Uiso   1.00
C38    C     0.10090   0.70460   0.00650   0.01267  Uiso   1.00
C39    C     0.30920   0.88420   0.97590   0.01267  Uiso   1.00
C40    C     0.43150   0.94500   0.99970   0.01267  Uiso   1.00
C41    C     0.47860   0.97440   0.03340   0.01267  Uiso   1.00
C42    C     0.44160   0.99490   0.98390   0.01267  Uiso   1.00
C43    C     0.84380   0.54570   0.84920   0.01267  Uiso   1.00
C44    C     0.79850   0.50040   0.82460   0.01267  Uiso   1.00
C45    C     0.78580   0.44260   0.83760   0.01267  Uiso   1.00
C46    C     0.81980   0.42990   0.87400   0.01267  Uiso   1.00
C47    C     0.86450   0.47530   0.89890   0.01267  Uiso   1.00
C48    C     0.87640   0.53320   0.88640   0.01267  Uiso   1.00
C49    C     0.90150   0.46090   0.93860   0.01267  Uiso   1.00
C50    C     0.85770   0.60920   0.83710   0.01267  Uiso   1.00
C51    C     0.94020   0.69610   0.79850   0.01267  Uiso   1.00
C52    C     0.00200   0.72000   0.76830   0.01267  Uiso   1.00
C53    C     0.16650   0.44660   0.83770   0.01267  Uiso   1.00
C54    C     0.21880   0.49660   0.82150   0.01267  Uiso   1.00
C55    C     0.22670   0.55060   0.84070   0.01267  Uiso   1.00
C56    C     0.18350   0.55450   0.87550   0.01267  Uiso   1.00
C57    C     0.13220   0.50460   0.89120   0.01267  Uiso   1.00
C58    C     0.12390   0.45060   0.87160   0.01267  Uiso   1.00
C59    C     0.08880   0.50640   0.93120   0.01267  Uiso   1.00
C60    C     0.15740   0.38670   0.81850   0.01267  Uiso   1.00
C61    C     0.07910   0.80580   0.72640   0.01267  Uiso   1.00
C62    C     0.01330   0.78340   0.75480   0.01267  Uiso   1.00
C63    C     0.23280   0.35640   0.50990   0.01267  Uiso   1.00
C64    C     0.19010   0.39020   0.50150   0.01267  Uiso   1.00
C65    C     0.11940   0.36460   0.49130   0.01267  Uiso   1.00
C66    C     0.09020   0.30460   0.48730   0.01267  Uiso   1.00
C67    C     0.13210   0.26930   0.49480   0.01267  Uiso   1.00
C68    C     0.20360   0.29560   0.50610   0.01267  Uiso   1.00
C69    C     0.10090   0.20460   0.49350   0.01267  Uiso   1.00
C70    C     0.30920   0.38420   0.52410   0.01267  Uiso   1.00
C71    C     0.43150   0.44500   0.50030   0.01267  Uiso   1.00
C72    C     0.47860   0.47440   0.46660   0.01267  Uiso   1.00
C73    C     0.44160   0.49490   0.51610   0.01267  Uiso   1.00
C74    C     0.84380   0.04570   0.65080   0.01267  Uiso   1.00
C75    C     0.79850   0.00040   0.67540   0.01267  Uiso   1.00
C76    C     0.78580   0.94260   0.66240   0.01267  Uiso   1.00
C77    C     0.81980   0.92990   0.62600   0.01267  Uiso   1.00
C78    C     0.86450   0.97530   0.60110   0.01267  Uiso   1.00
C79    C     0.87640   0.03320   0.61360   0.01267  Uiso   1.00
C80    C     0.90150   0.96090   0.56140   0.01267  Uiso   1.00
C81    C     0.85770   0.10920   0.66290   0.01267  Uiso   1.00
C82    C     0.94020   0.19610   0.70150   0.01267  Uiso   1.00
C83    C     0.00200   0.22000   0.73170   0.01267  Uiso   1.00
C84    C     0.16650   0.94660   0.66230   0.01267  Uiso   1.00
C85    C     0.21880   0.99660   0.67850   0.01267  Uiso   1.00
C86    C     0.22670   0.05060   0.65930   0.01267  Uiso   1.00
C87    C     0.18350   0.05450   0.62450   0.01267  Uiso   1.00
C88    C     0.13220   0.00460   0.60880   0.01267  Uiso   1.00
C89    C     0.12390   0.95060   0.62840   0.01267  Uiso   1.00
C90    C     0.08880   0.00640   0.56880   0.01267  Uiso   1.00
C91    C     0.15740   0.88670   0.68150   0.01267  Uiso   1.00
C92    C     0.07910   0.30580   0.77360   0.01267  Uiso   1.00
C93    C     0.01330   0.28340   0.74520   0.01267  Uiso   1.00
C94    C     0.76720   0.14360   0.00990   0.01267  Uiso   1.00
C95    C     0.80990   0.10980   0.00150   0.01267  Uiso   1.00
C96    C     0.88060   0.13540   0.99130   0.01267  Uiso   1.00
C97    C     0.90980   0.19540   0.98730   0.01267  Uiso   1.00
C98    C     0.86790   0.23070   0.99480   0.01267  Uiso   1.00
C99    C     0.79640   0.20440   0.00610   0.01267  Uiso   1.00
C100   C     0.89910   0.29540   0.99350   0.01267  Uiso   1.00
C101   C     0.69080   0.11580   0.02410   0.01267  Uiso   1.00
C102   C     0.56850   0.05500   0.00030   0.01267  Uiso   1.00
C103   C     0.52140   0.02560   0.96660   0.01267  Uiso   1.00
C104   C     0.55840   0.00510   0.01610   0.01267  Uiso   1.00
C105   C     0.15620   0.45430   0.15080   0.01267  Uiso   1.00
C106   C     0.20150   0.49960   0.17540   0.01267  Uiso   1.00
C107   C     0.21420   0.55740   0.16240   0.01267  Uiso   1.00
C108   C     0.18020   0.57010   0.12600   0.01267  Uiso   1.00
C109   C     0.13550   0.52470   0.10110   0.01267  Uiso   1.00
C110   C     0.12360   0.46680   0.11360   0.01267  Uiso   1.00
C111   C     0.09850   0.53910   0.06140   0.01267  Uiso   1.00
C112   C     0.14230   0.39080   0.16290   0.01267  Uiso   1.00
C113   C     0.05980   0.30390   0.20150   0.01267  Uiso   1.00
C114   C     0.99800   0.28000   0.23170   0.01267  Uiso   1.00
C115   C     0.83350   0.55340   0.16230   0.01267  Uiso   1.00
C116   C     0.78120   0.50340   0.17850   0.01267  Uiso   1.00
C117   C     0.77330   0.44940   0.15930   0.01267  Uiso   1.00
C118   C     0.81650   0.44550   0.12450   0.01267  Uiso   1.00
C119   C     0.86780   0.49540   0.10880   0.01267  Uiso   1.00
C120   C     0.87610   0.54940   0.12840   0.01267  Uiso   1.00
C121   C     0.91120   0.49360   0.06880   0.01267  Uiso   1.00
C122   C     0.84260   0.61330   0.18150   0.01267  Uiso   1.00
C123   C     0.92090   0.19420   0.27360   0.01267  Uiso   1.00
C124   C     0.98670   0.21660   0.24520   0.01267  Uiso   1.00
N1     N     0.64300   0.59190   0.51460   0.01267  Uiso   1.00
N2     N     0.07630   0.86670   0.31000   0.01267  Uiso   1.00
N3     N     0.90960   0.13370   0.29110   0.01267  Uiso   1.00
N4     N     0.35700   0.90810   0.01460   0.01267  Uiso   1.00
N5     N     0.92370   0.63330   0.81000   0.01267  Uiso   1.00
N6     N     0.09040   0.36630   0.79110   0.01267  Uiso   1.00
N7     N     0.35700   0.40810   0.48540   0.01267  Uiso   1.00
N8     N     0.92370   0.13330   0.69000   0.01267  Uiso   1.00
N9     N     0.09040   0.86630   0.70890   0.01267  Uiso   1.00
N10    N     0.64300   0.09190   0.98540   0.01267  Uiso   1.00
N11    N     0.07630   0.36670   0.19000   0.01267  Uiso   1.00
N12    N     0.90960   0.63370   0.20890   0.01267  Uiso   1.00
O1     O     0.08450   0.88380   0.49150   0.01267  Uiso   1.00
O2     O     0.98760   0.87070   0.42435   0.01267  Uiso   1.00
O3     O     0.95580   0.81830   0.52790   0.01267  Uiso   1.00
O4     O     0.87110   0.82610   0.48438   0.01267  Uiso   1.00
O5     O     0.06020   0.99640   0.46221   0.01267  Uiso   1.00
O6     O     0.89260   0.90940   0.55270   0.01267  Uiso   1.00
O7     O     0.90690   0.94500   0.44680   0.01267  Uiso   1.00
O8     O     0.05110   0.95610   0.55314   0.01267  Uiso   1.00
O9     O     0.91550   0.61620   0.99150   0.01267  Uiso   1.00
O10    O     0.01240   0.62930   0.92435   0.01267  Uiso   1.00
O11    O     0.04420   0.68170   0.02790   0.01267  Uiso   1.00
O12    O     0.12890   0.67390   0.98438   0.01267  Uiso   1.00
O13    O     0.93980   0.50360   0.96221   0.01267  Uiso   1.00
O14    O     0.10740   0.59060   0.05270   0.01267  Uiso   1.00
O15    O     0.09310   0.55500   0.94680   0.01267  Uiso   1.00
O16    O     0.94890   0.54390   0.05314   0.01267  Uiso   1.00
O17    O     0.91550   0.11620   0.50850   0.01267  Uiso   1.00
O18    O     0.01240   0.12930   0.57565   0.01267  Uiso   1.00
O19    O     0.04420   0.18170   0.47210   0.01267  Uiso   1.00
O20    O     0.12890   0.17390   0.51562   0.01267  Uiso   1.00
O21    O     0.93980   0.00360   0.53779   0.01267  Uiso   1.00
O22    O     0.10740   0.09060   0.44730   0.01267  Uiso   1.00
O23    O     0.09310   0.05500   0.55320   0.01267  Uiso   1.00
O24    O     0.94890   0.04390   0.44686   0.01267  Uiso   1.00
O25    O     0.08450   0.38380   0.00850   0.01267  Uiso   1.00
O26    O     0.98760   0.37070   0.07565   0.01267  Uiso   1.00
O27    O     0.95580   0.31830   0.97210   0.01267  Uiso   1.00
O28    O     0.87110   0.32610   0.01562   0.01267  Uiso   1.00
O29    O     0.06020   0.49640   0.03779   0.01267  Uiso   1.00
O30    O     0.89260   0.40940   0.94730   0.01267  Uiso   1.00
O31    O     0.90690   0.44500   0.05320   0.01267  Uiso   1.00
O32    O     0.05110   0.45610   0.94686   0.01267  Uiso   1.00
N13    N     0.60380   0.76890   0.70390   0.01267  Uiso   1.00
O33    O     0.54160   0.76110   0.69590   0.01267  Uiso   1.00
O34    O     0.62490   0.72650   0.70990   0.01267  Uiso   1.00
O35    O     0.64750   0.81830   0.70870   0.01267  Uiso   1.00
N14    N     0.78200   0.86840   0.08710   0.01267  Uiso   1.00
O36    O     0.77810   0.90510   0.11280   0.01267  Uiso   1.00
O37    O     0.73630   0.82190   0.08580   0.01267  Uiso   1.00
O38    O     0.83700   0.88110   0.06690   0.01267  Uiso   1.00
N15    N     0.39620   0.73110   0.20390   0.01267  Uiso   1.00
O39    O     0.45840   0.73890   0.19590   0.01267  Uiso   1.00
O40    O     0.37510   0.77350   0.20990   0.01267  Uiso   1.00
O41    O     0.35250   0.68170   0.20870   0.01267  Uiso   1.00
N16    N     0.21800   0.63160   0.58710   0.01267  Uiso   1.00
O42    O     0.22190   0.59490   0.61280   0.01267  Uiso   1.00
O43    O     0.26370   0.67810   0.58580   0.01267  Uiso   1.00
O44    O     0.16300   0.61890   0.56690   0.01267  Uiso   1.00
N17    N     0.39620   0.23110   0.29610   0.01267  Uiso   1.00
O45    O     0.45840   0.23890   0.30410   0.01267  Uiso   1.00
O46    O     0.37510   0.27350   0.29010   0.01267  Uiso   1.00
O47    O     0.35250   0.18170   0.29130   0.01267  Uiso   1.00
N18    N     0.21800   0.13160   0.91290   0.01267  Uiso   1.00
O48    O     0.22190   0.09490   0.88720   0.01267  Uiso   1.00
O49    O     0.26370   0.17810   0.91420   0.01267  Uiso   1.00
O50    O     0.16300   0.11890   0.93310   0.01267  Uiso   1.00
N19    N     0.60380   0.26890   0.79610   0.01267  Uiso   1.00
O51    O     0.54160   0.26110   0.80410   0.01267  Uiso   1.00
O52    O     0.62490   0.22650   0.79010   0.01267  Uiso   1.00
O53    O     0.64750   0.31830   0.79130   0.01267  Uiso   1.00
N20    N     0.78200   0.36840   0.41290   0.01267  Uiso   1.00
O54    O     0.77810   0.40510   0.38720   0.01267  Uiso   1.00
O55    O     0.73630   0.32190   0.41420   0.01267  Uiso   1.00
O56    O     0.83700   0.38110   0.43310   0.01267  Uiso   1.00
