data_image0
_cell_length_a       13.0771
_cell_length_b       26.5999
_cell_length_c       13.1458
_cell_angle_alpha    90
_cell_angle_beta     116.363
_cell_angle_gamma    90

_symmetry_space_group_name_H-M    "P 1"
_symmetry_int_tables_number       1

loop_
  _symmetry_equiv_pos_as_xyz
  'x, y, z'

loop_
  _atom_site_label
  _atom_site_occupancy
  _atom_site_fract_x
  _atom_site_fract_y
  _atom_site_fract_z
  _atom_site_thermal_displace_type
  _atom_site_B_iso_or_equiv
  _atom_site_type_symbol
  Tb1      1.0000 0.82028  0.00520  0.91942  Biso   1.000  Tb
  O1       1.0000 0.88030  0.06680  0.06350  Biso   1.000  O
  O2       1.0000 0.68940  0.05260  0.78060  Biso   1.000  O
  O3       1.0000 0.06220  0.04620  0.12260  Biso   1.000  O
  O4       1.0000 0.11010  0.45240  0.42730  Biso   1.000  O
  O5       1.0000 0.92480  0.43510  0.37150  Biso   1.000  O
  O6       1.0000 0.30600  0.43820  0.66790  Biso   1.000  O
  C1       1.0000 0.98270  0.07650  0.11470  Biso   1.000  C
  C2       1.0000 0.62150  0.08080  0.70360  Biso   1.000  C
  C3       1.0000 0.01700  0.12780  0.16840  Biso   1.000  C
  C4       1.0000 0.60310  0.13290  0.73630  Biso   1.000  C
  O7       1.0000 0.56930  0.06830  0.60340  Biso   1.000  O
  C5       1.0000 0.11960  0.14860  0.18140  Biso   1.000  C
  C6       1.0000 0.94270  0.15500  0.19630  Biso   1.000  C
  C7       1.0000 0.52100  0.16370  0.65580  Biso   1.000  C
  C8       1.0000 0.66760  0.15060  0.84710  Biso   1.000  C
  Tb2      1.0000 0.45240  0.00685  0.50360  Biso   1.000  Tb
  H1       1.0000 0.16870  0.12980  0.16260  Biso   1.000  H
  C9       1.0000 0.14910  0.19700  0.22230  Biso   1.000  C
  H2       1.0000 0.87370  0.14110  0.18680  Biso   1.000  H
  C10      1.0000 0.97270  0.20310  0.23860  Biso   1.000  C
  H3       1.0000 0.47780  0.15200  0.58220  Biso   1.000  H
  C11      1.0000 0.50380  0.21170  0.68560  Biso   1.000  C
  H4       1.0000 0.72220  0.12980  0.90070  Biso   1.000  H
  C12      1.0000 0.65150  0.19810  0.87780  Biso   1.000  C
  O8       1.0000 0.31700  0.07410  0.50000  Biso   1.000  O
  O9       1.0000 0.38700  0.03130  0.64700  Biso   1.000  O
  O10      1.0000 0.42570  0.45530  0.84620  Biso   1.000  O
  H5       1.0000 0.21790  0.21100  0.23150  Biso   1.000  H
  C13      1.0000 0.07380  0.22460  0.24940  Biso   1.000  C
  C14      1.0000 0.90820  0.24000  0.27830  Biso   1.000  C
  C15      1.0000 0.56960  0.22930  0.79610  Biso   1.000  C
  C16      1.0000 0.41820  0.25130  0.61240  Biso   1.000  C
  H6       1.0000 0.69430  0.20950  0.95170  Biso   1.000  H
  N1       1.0000 0.31400  0.06140  0.59200  Biso   1.000  N
  C17      1.0000 0.07860  0.27720  0.28380  Biso   1.000  C
  C18      1.0000 0.90710  0.22090  0.38900  Biso   1.000  C
  C19      1.0000 0.78690  0.24940  0.18820  Biso   1.000  C
  C20      1.0000 0.98240  0.28660  0.30240  Biso   1.000  C
  C21      1.0000 0.53590  0.28060  0.80180  Biso   1.000  C
  C22      1.0000 0.29630  0.23320  0.56970  Biso   1.000  C
  C23      1.0000 0.44050  0.26630  0.51150  Biso   1.000  C
  C24      1.0000 0.44580  0.29440  0.69810  Biso   1.000  C
  O11      1.0000 0.26900  0.08710  0.63700  Biso   1.000  O
  C25      1.0000 0.15620  0.31520  0.29990  Biso   1.000  C
  H7       1.0000 0.87650  0.24600  0.41960  Biso   1.000  H
  H8       1.0000 0.98610  0.21400  0.44150  Biso   1.000  H
  H9       1.0000 0.86180  0.19110  0.37540  Biso   1.000  H
  H10      1.0000 0.75280  0.27540  0.21290  Biso   1.000  H
  H11      1.0000 0.74270  0.21930  0.17690  Biso   1.000  H
  H12      1.0000 0.78700  0.25900  0.11870  Biso   1.000  H
  C26      1.0000 0.96280  0.33400  0.33410  Biso   1.000  C
  C27      1.0000 0.57690  0.31520  0.89310  Biso   1.000  C
  H13      1.0000 0.28480  0.22200  0.63250  Biso   1.000  H
  H14      1.0000 0.28160  0.20620  0.51760  Biso   1.000  H
  H15      1.0000 0.24400  0.26010  0.53260  Biso   1.000  H
  H16      1.0000 0.39340  0.29470  0.47450  Biso   1.000  H
  H17      1.0000 0.42040  0.23900  0.45940  Biso   1.000  H
  H18      1.0000 0.52080  0.27460  0.53750  Biso   1.000  H
  C28      1.0000 0.39700  0.34120  0.68320  Biso   1.000  C
  H19      1.0000 0.21980  0.30910  0.28740  Biso   1.000  H
  C29      1.0000 0.13940  0.36240  0.33470  Biso   1.000  C
  H20      1.0000 0.89780  0.34050  0.34390  Biso   1.000  H
  C30      1.0000 0.04330  0.37180  0.35100  Biso   1.000  C
  H21      1.0000 0.63620  0.30630  0.96270  Biso   1.000  H
  C31      1.0000 0.52860  0.36160  0.87790  Biso   1.000  C
  H22      1.0000 0.33720  0.35020  0.61400  Biso   1.000  H
  C32      1.0000 0.43840  0.37520  0.77340  Biso   1.000  C
  H23      1.0000 0.19250  0.38780  0.34700  Biso   1.000  H
  C33      1.0000 0.02450  0.42370  0.38610  Biso   1.000  C
  H24      1.0000 0.55570  0.38460  0.93740  Biso   1.000  H
  C34      1.0000 0.38360  0.42630  0.75970  Biso   1.000  C
  Tb3      1.0000 0.17972  0.50520  0.58058  Biso   1.000  Tb
  O12      1.0000 0.11970  0.56680  0.43650  Biso   1.000  O
  O13      1.0000 0.31060  0.55260  0.71940  Biso   1.000  O
  O14      1.0000 0.93780  0.54620  0.37740  Biso   1.000  O
  O15      1.0000 0.88990  0.95240  0.07270  Biso   1.000  O
  O16      1.0000 0.07520  0.93510  0.12850  Biso   1.000  O
  O17      1.0000 0.69400  0.93820  0.83210  Biso   1.000  O
  C35      1.0000 0.01730  0.57650  0.38530  Biso   1.000  C
  C36      1.0000 0.37850  0.58080  0.79640  Biso   1.000  C
  C37      1.0000 0.98300  0.62780  0.33160  Biso   1.000  C
  C38      1.0000 0.39690  0.63290  0.76370  Biso   1.000  C
  O18      1.0000 0.43070  0.56830  0.89660  Biso   1.000  O
  C39      1.0000 0.88040  0.64860  0.31860  Biso   1.000  C
  C40      1.0000 0.05730  0.65500  0.30370  Biso   1.000  C
  C41      1.0000 0.47900  0.66370  0.84420  Biso   1.000  C
  C42      1.0000 0.33240  0.65060  0.65290  Biso   1.000  C
  Tb4      1.0000 0.54760  0.50685  0.99640  Biso   1.000  Tb
  H25      1.0000 0.83130  0.62980  0.33740  Biso   1.000  H
  C43      1.0000 0.85090  0.69700  0.27770  Biso   1.000  C
  H26      1.0000 0.12630  0.64110  0.31320  Biso   1.000  H
  C44      1.0000 0.02730  0.70310  0.26140  Biso   1.000  C
  H27      1.0000 0.52220  0.65200  0.91780  Biso   1.000  H
  C45      1.0000 0.49620  0.71170  0.81440  Biso   1.000  C
  H28      1.0000 0.27780  0.62980  0.59930  Biso   1.000  H
  C46      1.0000 0.34850  0.69810  0.62220  Biso   1.000  C
  O19      1.0000 0.68300  0.57410  0.00000  Biso   1.000  O
  O20      1.0000 0.61300  0.53130  0.85300  Biso   1.000  O
  O21      1.0000 0.57430  0.95530  0.65380  Biso   1.000  O
  H29      1.0000 0.78210  0.71100  0.26850  Biso   1.000  H
  C47      1.0000 0.92620  0.72460  0.25060  Biso   1.000  C
  C48      1.0000 0.09180  0.74000  0.22170  Biso   1.000  C
  C49      1.0000 0.43040  0.72930  0.70390  Biso   1.000  C
  C50      1.0000 0.58180  0.75130  0.88760  Biso   1.000  C
  H30      1.0000 0.30570  0.70950  0.54830  Biso   1.000  H
  N2       1.0000 0.68600  0.56140  0.90800  Biso   1.000  N
  C51      1.0000 0.92140  0.77720  0.21620  Biso   1.000  C
  C52      1.0000 0.09290  0.72090  0.11100  Biso   1.000  C
  C53      1.0000 0.21310  0.74940  0.31180  Biso   1.000  C
  C54      1.0000 0.01760  0.78660  0.19760  Biso   1.000  C
  C55      1.0000 0.46410  0.78060  0.69820  Biso   1.000  C
  C56      1.0000 0.70370  0.73320  0.93030  Biso   1.000  C
  C57      1.0000 0.55950  0.76630  0.98850  Biso   1.000  C
  C58      1.0000 0.55420  0.79440  0.80190  Biso   1.000  C
  O22      1.0000 0.73100  0.58710  0.86300  Biso   1.000  O
  C59      1.0000 0.84380  0.81520  0.20010  Biso   1.000  C
  H31      1.0000 0.12350  0.74600  0.08040  Biso   1.000  H
  H32      1.0000 0.01390  0.71400  0.05850  Biso   1.000  H
  H33      1.0000 0.13820  0.69110  0.12460  Biso   1.000  H
  H34      1.0000 0.24720  0.77540  0.28710  Biso   1.000  H
  H35      1.0000 0.25730  0.71930  0.32310  Biso   1.000  H
  H36      1.0000 0.21300  0.75900  0.38130  Biso   1.000  H
  C60      1.0000 0.03720  0.83400  0.16590  Biso   1.000  C
  C61      1.0000 0.42310  0.81520  0.60690  Biso   1.000  C
  H37      1.0000 0.71520  0.72200  0.86750  Biso   1.000  H
  H38      1.0000 0.71840  0.70620  0.98240  Biso   1.000  H
  H39      1.0000 0.75600  0.76010  0.96740  Biso   1.000  H
  H40      1.0000 0.60660  0.79470  0.02550  Biso   1.000  H
  H41      1.0000 0.57960  0.73900  0.04060  Biso   1.000  H
  H42      1.0000 0.47920  0.77460  0.96250  Biso   1.000  H
  C62      1.0000 0.60300  0.84120  0.81680  Biso   1.000  C
  H43      1.0000 0.78020  0.80910  0.21260  Biso   1.000  H
  C63      1.0000 0.86060  0.86240  0.16530  Biso   1.000  C
  H44      1.0000 0.10220  0.84050  0.15610  Biso   1.000  H
  C64      1.0000 0.95670  0.87180  0.14900  Biso   1.000  C
  H45      1.0000 0.36380  0.80630  0.53730  Biso   1.000  H
  C65      1.0000 0.47140  0.86160  0.62210  Biso   1.000  C
  H46      1.0000 0.66280  0.85020  0.88600  Biso   1.000  H
  C66      1.0000 0.56160  0.87520  0.72660  Biso   1.000  C
  H47      1.0000 0.80750  0.88780  0.15300  Biso   1.000  H
  C67      1.0000 0.97550  0.92370  0.11390  Biso   1.000  C
  H48      1.0000 0.44430  0.88460  0.56260  Biso   1.000  H
  C68      1.0000 0.61640  0.92630  0.74030  Biso   1.000  C
  Tb5      1.0000 0.17972  0.99480  0.08058  Biso   1.000  Tb
  O23      1.0000 0.11970  0.93320  0.93650  Biso   1.000  O
  O24      1.0000 0.31060  0.94740  0.21940  Biso   1.000  O
  O25      1.0000 0.93780  0.95380  0.87740  Biso   1.000  O
  O26      1.0000 0.88990  0.54760  0.57270  Biso   1.000  O
  O27      1.0000 0.07520  0.56490  0.62850  Biso   1.000  O
  O28      1.0000 0.69400  0.56180  0.33210  Biso   1.000  O
  C69      1.0000 0.01730  0.92350  0.88530  Biso   1.000  C
  C70      1.0000 0.37850  0.91920  0.29640  Biso   1.000  C
  C71      1.0000 0.98300  0.87220  0.83160  Biso   1.000  C
  C72      1.0000 0.39690  0.86710  0.26370  Biso   1.000  C
  O29      1.0000 0.43070  0.93170  0.39660  Biso   1.000  O
  C73      1.0000 0.88040  0.85140  0.81860  Biso   1.000  C
  C74      1.0000 0.05730  0.84500  0.80370  Biso   1.000  C
  C75      1.0000 0.47900  0.83630  0.34420  Biso   1.000  C
  C76      1.0000 0.33240  0.84940  0.15290  Biso   1.000  C
  Tb6      1.0000 0.54760  0.99315  0.49640  Biso   1.000  Tb
  H49      1.0000 0.83130  0.87020  0.83740  Biso   1.000  H
  C77      1.0000 0.85090  0.80300  0.77770  Biso   1.000  C
  H50      1.0000 0.12630  0.85890  0.81320  Biso   1.000  H
  C78      1.0000 0.02730  0.79690  0.76140  Biso   1.000  C
  H51      1.0000 0.52220  0.84800  0.41780  Biso   1.000  H
  C79      1.0000 0.49620  0.78830  0.31440  Biso   1.000  C
  H52      1.0000 0.27780  0.87020  0.09930  Biso   1.000  H
  C80      1.0000 0.34850  0.80190  0.12220  Biso   1.000  C
  O30      1.0000 0.68300  0.92590  0.50000  Biso   1.000  O
  O31      1.0000 0.61300  0.96870  0.35300  Biso   1.000  O
  O32      1.0000 0.57430  0.54470  0.15380  Biso   1.000  O
  H53      1.0000 0.78210  0.78900  0.76850  Biso   1.000  H
  C81      1.0000 0.92620  0.77540  0.75060  Biso   1.000  C
  C82      1.0000 0.09180  0.76000  0.72170  Biso   1.000  C
  C83      1.0000 0.43040  0.77070  0.20390  Biso   1.000  C
  C84      1.0000 0.58180  0.74870  0.38760  Biso   1.000  C
  H54      1.0000 0.30570  0.79050  0.04830  Biso   1.000  H
  N3       1.0000 0.68600  0.93860  0.40800  Biso   1.000  N
  C85      1.0000 0.92140  0.72280  0.71620  Biso   1.000  C
  C86      1.0000 0.09290  0.77910  0.61100  Biso   1.000  C
  C87      1.0000 0.21310  0.75060  0.81180  Biso   1.000  C
  C88      1.0000 0.01760  0.71340  0.69760  Biso   1.000  C
  C89      1.0000 0.46410  0.71940  0.19820  Biso   1.000  C
  C90      1.0000 0.70370  0.76680  0.43030  Biso   1.000  C
  C91      1.0000 0.55950  0.73370  0.48850  Biso   1.000  C
  C92      1.0000 0.55420  0.70560  0.30190  Biso   1.000  C
  O33      1.0000 0.73100  0.91290  0.36300  Biso   1.000  O
  C93      1.0000 0.84380  0.68480  0.70010  Biso   1.000  C
  H55      1.0000 0.12350  0.75400  0.58040  Biso   1.000  H
  H56      1.0000 0.01390  0.78600  0.55850  Biso   1.000  H
  H57      1.0000 0.13820  0.80890  0.62460  Biso   1.000  H
  H58      1.0000 0.24720  0.72460  0.78710  Biso   1.000  H
  H59      1.0000 0.25730  0.78070  0.82310  Biso   1.000  H
  H60      1.0000 0.21300  0.74100  0.88130  Biso   1.000  H
  C94      1.0000 0.03720  0.66600  0.66590  Biso   1.000  C
  C95      1.0000 0.42310  0.68480  0.10690  Biso   1.000  C
  H61      1.0000 0.71520  0.77800  0.36750  Biso   1.000  H
  H62      1.0000 0.71840  0.79380  0.48240  Biso   1.000  H
  H63      1.0000 0.75600  0.73990  0.46740  Biso   1.000  H
  H64      1.0000 0.60660  0.70530  0.52550  Biso   1.000  H
  H65      1.0000 0.57960  0.76100  0.54060  Biso   1.000  H
  H66      1.0000 0.47920  0.72540  0.46250  Biso   1.000  H
  C96      1.0000 0.60300  0.65880  0.31680  Biso   1.000  C
  H67      1.0000 0.78020  0.69090  0.71260  Biso   1.000  H
  C97      1.0000 0.86060  0.63760  0.66530  Biso   1.000  C
  H68      1.0000 0.10220  0.65950  0.65610  Biso   1.000  H
  C98      1.0000 0.95670  0.62820  0.64900  Biso   1.000  C
  H69      1.0000 0.36380  0.69370  0.03730  Biso   1.000  H
  C99      1.0000 0.47140  0.63840  0.12210  Biso   1.000  C
  H70      1.0000 0.66280  0.64980  0.38600  Biso   1.000  H
  C100     1.0000 0.56160  0.62480  0.22660  Biso   1.000  C
  H71      1.0000 0.80750  0.61220  0.65300  Biso   1.000  H
  C101     1.0000 0.97550  0.57630  0.61390  Biso   1.000  C
  H72      1.0000 0.44430  0.61540  0.06260  Biso   1.000  H
  C102     1.0000 0.61640  0.57370  0.24030  Biso   1.000  C
  Tb7      1.0000 0.82028  0.49480  0.41942  Biso   1.000  Tb
  O34      1.0000 0.88030  0.43320  0.56350  Biso   1.000  O
  O35      1.0000 0.68940  0.44740  0.28060  Biso   1.000  O
  O36      1.0000 0.06220  0.45380  0.62260  Biso   1.000  O
  O37      1.0000 0.11010  0.04760  0.92730  Biso   1.000  O
  O38      1.0000 0.92480  0.06490  0.87150  Biso   1.000  O
  O39      1.0000 0.30600  0.06180  0.16790  Biso   1.000  O
  C103     1.0000 0.98270  0.42350  0.61470  Biso   1.000  C
  C104     1.0000 0.62150  0.41920  0.20360  Biso   1.000  C
  C105     1.0000 0.01700  0.37220  0.66840  Biso   1.000  C
  C106     1.0000 0.60310  0.36710  0.23630  Biso   1.000  C
  O40      1.0000 0.56930  0.43170  0.10340  Biso   1.000  O
  C107     1.0000 0.11960  0.35140  0.68140  Biso   1.000  C
  C108     1.0000 0.94270  0.34500  0.69630  Biso   1.000  C
  C109     1.0000 0.52100  0.33630  0.15580  Biso   1.000  C
  C110     1.0000 0.66760  0.34940  0.34710  Biso   1.000  C
  Tb8      1.0000 0.45240  0.49315  0.00360  Biso   1.000  Tb
  H73      1.0000 0.16870  0.37020  0.66260  Biso   1.000  H
  C111     1.0000 0.14910  0.30300  0.72230  Biso   1.000  C
  H74      1.0000 0.87370  0.35890  0.68680  Biso   1.000  H
  C112     1.0000 0.97270  0.29690  0.73860  Biso   1.000  C
  H75      1.0000 0.47780  0.34800  0.08220  Biso   1.000  H
  C113     1.0000 0.50380  0.28830  0.18560  Biso   1.000  C
  H76      1.0000 0.72220  0.37020  0.40070  Biso   1.000  H
  C114     1.0000 0.65150  0.30190  0.37780  Biso   1.000  C
  O41      1.0000 0.31700  0.42590  0.00000  Biso   1.000  O
  O42      1.0000 0.38700  0.46870  0.14700  Biso   1.000  O
  O43      1.0000 0.42570  0.04470  0.34620  Biso   1.000  O
  H77      1.0000 0.21790  0.28900  0.73150  Biso   1.000  H
  C115     1.0000 0.07380  0.27540  0.74940  Biso   1.000  C
  C116     1.0000 0.90820  0.26000  0.77830  Biso   1.000  C
  C117     1.0000 0.56960  0.27070  0.29610  Biso   1.000  C
  C118     1.0000 0.41820  0.24870  0.11240  Biso   1.000  C
  H78      1.0000 0.69430  0.29050  0.45170  Biso   1.000  H
  N4       1.0000 0.31400  0.43860  0.09200  Biso   1.000  N
  C119     1.0000 0.07860  0.22280  0.78380  Biso   1.000  C
  C120     1.0000 0.90710  0.27910  0.88900  Biso   1.000  C
  C121     1.0000 0.78690  0.25060  0.68820  Biso   1.000  C
  C122     1.0000 0.98240  0.21340  0.80240  Biso   1.000  C
  C123     1.0000 0.53590  0.21940  0.30180  Biso   1.000  C
  C124     1.0000 0.29630  0.26680  0.06970  Biso   1.000  C
  C125     1.0000 0.44050  0.23370  0.01150  Biso   1.000  C
  C126     1.0000 0.44580  0.20560  0.19810  Biso   1.000  C
  O44      1.0000 0.26900  0.41290  0.13700  Biso   1.000  O
  C127     1.0000 0.15620  0.18480  0.79990  Biso   1.000  C
  H79      1.0000 0.87650  0.25400  0.91960  Biso   1.000  H
  H80      1.0000 0.98610  0.28600  0.94150  Biso   1.000  H
  H81      1.0000 0.86180  0.30890  0.87540  Biso   1.000  H
  H82      1.0000 0.75280  0.22460  0.71290  Biso   1.000  H
  H83      1.0000 0.74270  0.28070  0.67690  Biso   1.000  H
  H84      1.0000 0.78700  0.24100  0.61870  Biso   1.000  H
  C128     1.0000 0.96280  0.16600  0.83410  Biso   1.000  C
  C129     1.0000 0.57690  0.18480  0.39310  Biso   1.000  C
  H85      1.0000 0.28480  0.27800  0.13250  Biso   1.000  H
  H86      1.0000 0.28160  0.29380  0.01760  Biso   1.000  H
  H87      1.0000 0.24400  0.23990  0.03260  Biso   1.000  H
  H88      1.0000 0.39340  0.20530  0.97450  Biso   1.000  H
  H89      1.0000 0.42040  0.26100  0.95940  Biso   1.000  H
  H90      1.0000 0.52080  0.22540  0.03750  Biso   1.000  H
  C130     1.0000 0.39700  0.15880  0.18320  Biso   1.000  C
  H91      1.0000 0.21980  0.19090  0.78740  Biso   1.000  H
  C131     1.0000 0.13940  0.13760  0.83470  Biso   1.000  C
  H92      1.0000 0.89780  0.15950  0.84390  Biso   1.000  H
  C132     1.0000 0.04330  0.12820  0.85100  Biso   1.000  C
  H93      1.0000 0.63620  0.19370  0.46270  Biso   1.000  H
  C133     1.0000 0.52860  0.13840  0.37790  Biso   1.000  C
  H94      1.0000 0.33720  0.14980  0.11400  Biso   1.000  H
  C134     1.0000 0.43840  0.12480  0.27340  Biso   1.000  C
  H95      1.0000 0.19250  0.11220  0.84700  Biso   1.000  H
  C135     1.0000 0.02450  0.07630  0.88610  Biso   1.000  C
  H96      1.0000 0.55570  0.11540  0.43740  Biso   1.000  H
  C136     1.0000 0.38360  0.07370  0.25970  Biso   1.000  C
