data_image0
_cell_length_a       13.0882
_cell_length_b       26.6665
_cell_length_c       13.1336
_cell_angle_alpha    90
_cell_angle_beta     116.072
_cell_angle_gamma    90

_symmetry_space_group_name_H-M    "P 1"
_symmetry_int_tables_number       1

loop_
  _symmetry_equiv_pos_as_xyz
  'x, y, z'

loop_
  _atom_site_label
  _atom_site_occupancy
  _atom_site_fract_x
  _atom_site_fract_y
  _atom_site_fract_z
  _atom_site_thermal_displace_type
  _atom_site_B_iso_or_equiv
  _atom_site_type_symbol
  Gd1      1.0000 0.82070  0.00486  0.91889  Biso   1.000  Gd
  O1       1.0000 0.87710  0.06750  0.06370  Biso   1.000  O
  O2       1.0000 0.68890  0.05324  0.78200  Biso   1.000  O
  O3       1.0000 0.94340  0.95296  0.88360  Biso   1.000  O
  O4       1.0000 0.89080  0.95188  0.07400  Biso   1.000  O
  O5       1.0000 0.92610  0.06527  0.87030  Biso   1.000  O
  O6       1.0000 0.69530  0.93736  0.83210  Biso   1.000  O
  C1       1.0000 0.97980  0.07690  0.11280  Biso   1.000  C
  C2       1.0000 0.62180  0.08120  0.70380  Biso   1.000  C
  C3       1.0000 0.01410  0.12800  0.16630  Biso   1.000  C
  C4       1.0000 0.60280  0.13300  0.73660  Biso   1.000  C
  O7       1.0000 0.56990  0.06845  0.60340  Biso   1.000  O
  C5       1.0000 0.11720  0.14840  0.18000  Biso   1.000  C
  C6       1.0000 0.94090  0.15550  0.19480  Biso   1.000  C
  C7       1.0000 0.51850  0.16380  0.65590  Biso   1.000  C
  C8       1.0000 0.66810  0.15090  0.84720  Biso   1.000  C
  Gd2      1.0000 0.45081  0.00676  0.50369  Biso   1.000  Gd
  H1       1.0000 0.16700  0.12950  0.16240  Biso   1.000  H
  C9       1.0000 0.14550  0.19720  0.22030  Biso   1.000  C
  H2       1.0000 0.87200  0.14190  0.18550  Biso   1.000  H
  C10      1.0000 0.97100  0.20330  0.23710  Biso   1.000  C
  H3       1.0000 0.47440  0.15210  0.58290  Biso   1.000  H
  C11      1.0000 0.50240  0.21130  0.68630  Biso   1.000  C
  H4       1.0000 0.72270  0.13020  0.90040  Biso   1.000  H
  C12      1.0000 0.65210  0.19890  0.87780  Biso   1.000  C
  O8       1.0000 0.31250  0.07510  0.50870  Biso   1.000  O
  O9       1.0000 0.38450  0.03280  0.64900  Biso   1.000  O
  O10      1.0000 0.57830  0.95390  0.65490  Biso   1.000  O
  H5       1.0000 0.21400  0.21110  0.22890  Biso   1.000  H
  C13      1.0000 0.07310  0.22450  0.24700  Biso   1.000  C
  C14      1.0000 0.90710  0.24000  0.27850  Biso   1.000  C
  C15      1.0000 0.56690  0.22920  0.79620  Biso   1.000  C
  C16      1.0000 0.41930  0.25120  0.61330  Biso   1.000  C
  H6       1.0000 0.69660  0.21090  0.95050  Biso   1.000  H
  N1       1.0000 0.30850  0.06600  0.59700  Biso   1.000  N
  C17      1.0000 0.07760  0.27660  0.28420  Biso   1.000  C
  C18      1.0000 0.90400  0.22190  0.38750  Biso   1.000  C
  C19      1.0000 0.78790  0.25040  0.18560  Biso   1.000  C
  C20      1.0000 0.98200  0.28660  0.30240  Biso   1.000  C
  C21      1.0000 0.53490  0.28110  0.80280  Biso   1.000  C
  C22      1.0000 0.29520  0.23240  0.57260  Biso   1.000  C
  C23      1.0000 0.43930  0.26640  0.51340  Biso   1.000  C
  C24      1.0000 0.44660  0.29390  0.69890  Biso   1.000  C
  O11      1.0000 0.27020  0.08850  0.63900  Biso   1.000  O
  C25      1.0000 0.15600  0.31500  0.30040  Biso   1.000  C
  H7       1.0000 0.87340  0.24700  0.41810  Biso   1.000  H
  H8       1.0000 0.98300  0.21500  0.44000  Biso   1.000  H
  H9       1.0000 0.85870  0.19200  0.37390  Biso   1.000  H
  H10      1.0000 0.75370  0.27640  0.21030  Biso   1.000  H
  H11      1.0000 0.74370  0.22040  0.17420  Biso   1.000  H
  H12      1.0000 0.78800  0.26000  0.11610  Biso   1.000  H
  C26      1.0000 0.96330  0.33440  0.33240  Biso   1.000  C
  C27      1.0000 0.57390  0.31440  0.89080  Biso   1.000  C
  H13      1.0000 0.28380  0.22120  0.63550  Biso   1.000  H
  H14      1.0000 0.28060  0.20550  0.52050  Biso   1.000  H
  H15      1.0000 0.24290  0.25940  0.53560  Biso   1.000  H
  H16      1.0000 0.39230  0.29480  0.47640  Biso   1.000  H
  H17      1.0000 0.41930  0.23910  0.46130  Biso   1.000  H
  H18      1.0000 0.51960  0.27470  0.53940  Biso   1.000  H
  C28      1.0000 0.39780  0.34090  0.68390  Biso   1.000  C
  H19      1.0000 0.21920  0.30900  0.28730  Biso   1.000  H
  C29      1.0000 0.13980  0.36130  0.33540  Biso   1.000  C
  H20      1.0000 0.89760  0.34130  0.34050  Biso   1.000  H
  C30      1.0000 0.04250  0.37200  0.35020  Biso   1.000  C
  H21      1.0000 0.63160  0.30500  0.96060  Biso   1.000  H
  C31      1.0000 0.52850  0.36120  0.87640  Biso   1.000  C
  H22      1.0000 0.33880  0.34990  0.61450  Biso   1.000  H
  C32      1.0000 0.43750  0.37450  0.77320  Biso   1.000  C
  H23      1.0000 0.19430  0.38610  0.34970  Biso   1.000  H
  C33      1.0000 0.02530  0.42340  0.38470  Biso   1.000  C
  H24      1.0000 0.55790  0.38440  0.93510  Biso   1.000  H
  C34      1.0000 0.38100  0.42540  0.75940  Biso   1.000  C
  Gd3      1.0000 0.17930  0.50486  0.58111  Biso   1.000  Gd
  O12      1.0000 0.12290  0.56750  0.43630  Biso   1.000  O
  O13      1.0000 0.31110  0.55324  0.71800  Biso   1.000  O
  O14      1.0000 0.05660  0.45296  0.61640  Biso   1.000  O
  O15      1.0000 0.10920  0.45188  0.42600  Biso   1.000  O
  O16      1.0000 0.07390  0.56527  0.62970  Biso   1.000  O
  O17      1.0000 0.30470  0.43736  0.66790  Biso   1.000  O
  C35      1.0000 0.02020  0.57690  0.38720  Biso   1.000  C
  C36      1.0000 0.37820  0.58120  0.79620  Biso   1.000  C
  C37      1.0000 0.98590  0.62800  0.33370  Biso   1.000  C
  C38      1.0000 0.39720  0.63300  0.76340  Biso   1.000  C
  O18      1.0000 0.43010  0.56845  0.89660  Biso   1.000  O
  C39      1.0000 0.88280  0.64840  0.32000  Biso   1.000  C
  C40      1.0000 0.05910  0.65550  0.30520  Biso   1.000  C
  C41      1.0000 0.48150  0.66380  0.84410  Biso   1.000  C
  C42      1.0000 0.33190  0.65090  0.65280  Biso   1.000  C
  Gd4      1.0000 0.54919  0.50676  0.99631  Biso   1.000  Gd
  H25      1.0000 0.83300  0.62950  0.33760  Biso   1.000  H
  C43      1.0000 0.85450  0.69720  0.27970  Biso   1.000  C
  H26      1.0000 0.12800  0.64190  0.31450  Biso   1.000  H
  C44      1.0000 0.02900  0.70330  0.26290  Biso   1.000  C
  H27      1.0000 0.52560  0.65210  0.91710  Biso   1.000  H
  C45      1.0000 0.49760  0.71130  0.81370  Biso   1.000  C
  H28      1.0000 0.27730  0.63020  0.59960  Biso   1.000  H
  C46      1.0000 0.34790  0.69890  0.62220  Biso   1.000  C
  O19      1.0000 0.68750  0.57510  0.99130  Biso   1.000  O
  O20      1.0000 0.61550  0.53280  0.85100  Biso   1.000  O
  O21      1.0000 0.42170  0.45390  0.84510  Biso   1.000  O
  H29      1.0000 0.78600  0.71110  0.27110  Biso   1.000  H
  C47      1.0000 0.92690  0.72450  0.25300  Biso   1.000  C
  C48      1.0000 0.09290  0.74000  0.22150  Biso   1.000  C
  C49      1.0000 0.43310  0.72920  0.70380  Biso   1.000  C
  C50      1.0000 0.58070  0.75120  0.88670  Biso   1.000  C
  H30      1.0000 0.30340  0.71090  0.54950  Biso   1.000  H
  N2       1.0000 0.69150  0.56600  0.90300  Biso   1.000  N
  C51      1.0000 0.92240  0.77660  0.21580  Biso   1.000  C
  C52      1.0000 0.09600  0.72190  0.11250  Biso   1.000  C
  C53      1.0000 0.21210  0.75040  0.31440  Biso   1.000  C
  C54      1.0000 0.01800  0.78660  0.19760  Biso   1.000  C
  C55      1.0000 0.46510  0.78110  0.69720  Biso   1.000  C
  C56      1.0000 0.70480  0.73240  0.92740  Biso   1.000  C
  C57      1.0000 0.56070  0.76640  0.98660  Biso   1.000  C
  C58      1.0000 0.55340  0.79390  0.80110  Biso   1.000  C
  O22      1.0000 0.72980  0.58850  0.86100  Biso   1.000  O
  C59      1.0000 0.84400  0.81500  0.19960  Biso   1.000  C
  H31      1.0000 0.12660  0.74700  0.08190  Biso   1.000  H
  H32      1.0000 0.01700  0.71500  0.06000  Biso   1.000  H
  H33      1.0000 0.14130  0.69200  0.12610  Biso   1.000  H
  H34      1.0000 0.24630  0.77640  0.28970  Biso   1.000  H
  H35      1.0000 0.25630  0.72040  0.32580  Biso   1.000  H
  H36      1.0000 0.21200  0.76000  0.38390  Biso   1.000  H
  C60      1.0000 0.03670  0.83440  0.16760  Biso   1.000  C
  C61      1.0000 0.42610  0.81440  0.60920  Biso   1.000  C
  H37      1.0000 0.71620  0.72120  0.86450  Biso   1.000  H
  H38      1.0000 0.71940  0.70550  0.97950  Biso   1.000  H
  H39      1.0000 0.75710  0.75940  0.96440  Biso   1.000  H
  H40      1.0000 0.60770  0.79480  0.02360  Biso   1.000  H
  H41      1.0000 0.58070  0.73910  0.03870  Biso   1.000  H
  H42      1.0000 0.48040  0.77470  0.96060  Biso   1.000  H
  C62      1.0000 0.60220  0.84090  0.81610  Biso   1.000  C
  H43      1.0000 0.78080  0.80900  0.21270  Biso   1.000  H
  C63      1.0000 0.86020  0.86130  0.16460  Biso   1.000  C
  H44      1.0000 0.10240  0.84130  0.15950  Biso   1.000  H
  C64      1.0000 0.95750  0.87200  0.14980  Biso   1.000  C
  H45      1.0000 0.36840  0.80500  0.53940  Biso   1.000  H
  C65      1.0000 0.47150  0.86120  0.62360  Biso   1.000  C
  H46      1.0000 0.66120  0.84990  0.88550  Biso   1.000  H
  C66      1.0000 0.56250  0.87450  0.72680  Biso   1.000  C
  H47      1.0000 0.80570  0.88610  0.15030  Biso   1.000  H
  C67      1.0000 0.97470  0.92340  0.11530  Biso   1.000  C
  H48      1.0000 0.44210  0.88440  0.56490  Biso   1.000  H
  C68      1.0000 0.61900  0.92540  0.74060  Biso   1.000  C
  Gd5      1.0000 0.17930  0.99514  0.08111  Biso   1.000  Gd
  O23      1.0000 0.12290  0.93250  0.93630  Biso   1.000  O
  O24      1.0000 0.31110  0.94676  0.21800  Biso   1.000  O
  O25      1.0000 0.05660  0.04704  0.11640  Biso   1.000  O
  O26      1.0000 0.10920  0.04812  0.92600  Biso   1.000  O
  O27      1.0000 0.07390  0.93473  0.12970  Biso   1.000  O
  O28      1.0000 0.30470  0.06264  0.16790  Biso   1.000  O
  C69      1.0000 0.02020  0.92310  0.88720  Biso   1.000  C
  C70      1.0000 0.37820  0.91880  0.29620  Biso   1.000  C
  C71      1.0000 0.98590  0.87200  0.83370  Biso   1.000  C
  C72      1.0000 0.39720  0.86700  0.26340  Biso   1.000  C
  O29      1.0000 0.43010  0.93155  0.39660  Biso   1.000  O
  C73      1.0000 0.88280  0.85160  0.82000  Biso   1.000  C
  C74      1.0000 0.05910  0.84450  0.80520  Biso   1.000  C
  C75      1.0000 0.48150  0.83620  0.34410  Biso   1.000  C
  C76      1.0000 0.33190  0.84910  0.15280  Biso   1.000  C
  Gd6      1.0000 0.54919  0.99324  0.49631  Biso   1.000  Gd
  H49      1.0000 0.83300  0.87050  0.83760  Biso   1.000  H
  C77      1.0000 0.85450  0.80280  0.77970  Biso   1.000  C
  H50      1.0000 0.12800  0.85810  0.81450  Biso   1.000  H
  C78      1.0000 0.02900  0.79670  0.76290  Biso   1.000  C
  H51      1.0000 0.52560  0.84790  0.41710  Biso   1.000  H
  C79      1.0000 0.49760  0.78870  0.31370  Biso   1.000  C
  H52      1.0000 0.27730  0.86980  0.09960  Biso   1.000  H
  C80      1.0000 0.34790  0.80110  0.12220  Biso   1.000  C
  O30      1.0000 0.68750  0.92490  0.49130  Biso   1.000  O
  O31      1.0000 0.61550  0.96720  0.35100  Biso   1.000  O
  O32      1.0000 0.42170  0.04610  0.34510  Biso   1.000  O
  H53      1.0000 0.78600  0.78890  0.77110  Biso   1.000  H
  C81      1.0000 0.92690  0.77550  0.75300  Biso   1.000  C
  C82      1.0000 0.09290  0.76000  0.72150  Biso   1.000  C
  C83      1.0000 0.43310  0.77080  0.20380  Biso   1.000  C
  C84      1.0000 0.58070  0.74880  0.38670  Biso   1.000  C
  H54      1.0000 0.30340  0.78910  0.04950  Biso   1.000  H
  N3       1.0000 0.69150  0.93400  0.40300  Biso   1.000  N
  C85      1.0000 0.92240  0.72340  0.71580  Biso   1.000  C
  C86      1.0000 0.09600  0.77810  0.61250  Biso   1.000  C
  C87      1.0000 0.21210  0.74960  0.81440  Biso   1.000  C
  C88      1.0000 0.01800  0.71340  0.69760  Biso   1.000  C
  C89      1.0000 0.46510  0.71890  0.19720  Biso   1.000  C
  C90      1.0000 0.70480  0.76760  0.42740  Biso   1.000  C
  C91      1.0000 0.56070  0.73360  0.48660  Biso   1.000  C
  C92      1.0000 0.55340  0.70610  0.30110  Biso   1.000  C
  O33      1.0000 0.72980  0.91150  0.36100  Biso   1.000  O
  C93      1.0000 0.84400  0.68500  0.69960  Biso   1.000  C
  H55      1.0000 0.12660  0.75300  0.58190  Biso   1.000  H
  H56      1.0000 0.01700  0.78500  0.56000  Biso   1.000  H
  H57      1.0000 0.14130  0.80800  0.62610  Biso   1.000  H
  H58      1.0000 0.24630  0.72360  0.78970  Biso   1.000  H
  H59      1.0000 0.25630  0.77960  0.82580  Biso   1.000  H
  H60      1.0000 0.21200  0.74000  0.88390  Biso   1.000  H
  C94      1.0000 0.03670  0.66560  0.66760  Biso   1.000  C
  C95      1.0000 0.42610  0.68560  0.10920  Biso   1.000  C
  H61      1.0000 0.71620  0.77880  0.36450  Biso   1.000  H
  H62      1.0000 0.71940  0.79450  0.47950  Biso   1.000  H
  H63      1.0000 0.75710  0.74060  0.46440  Biso   1.000  H
  H64      1.0000 0.60770  0.70520  0.52360  Biso   1.000  H
  H65      1.0000 0.58070  0.76090  0.53870  Biso   1.000  H
  H66      1.0000 0.48040  0.72530  0.46060  Biso   1.000  H
  C96      1.0000 0.60220  0.65910  0.31610  Biso   1.000  C
  H67      1.0000 0.78080  0.69100  0.71270  Biso   1.000  H
  C97      1.0000 0.86020  0.63870  0.66460  Biso   1.000  C
  H68      1.0000 0.10240  0.65870  0.65950  Biso   1.000  H
  C98      1.0000 0.95750  0.62800  0.64980  Biso   1.000  C
  H69      1.0000 0.36840  0.69500  0.03940  Biso   1.000  H
  C99      1.0000 0.47150  0.63880  0.12360  Biso   1.000  C
  H70      1.0000 0.66120  0.65010  0.38550  Biso   1.000  H
  C100     1.0000 0.56250  0.62550  0.22680  Biso   1.000  C
  H71      1.0000 0.80570  0.61390  0.65030  Biso   1.000  H
  C101     1.0000 0.97470  0.57660  0.61530  Biso   1.000  C
  H72      1.0000 0.44210  0.61560  0.06490  Biso   1.000  H
  C102     1.0000 0.61900  0.57460  0.24060  Biso   1.000  C
  Gd7      1.0000 0.82070  0.49514  0.41889  Biso   1.000  Gd
  O34      1.0000 0.87710  0.43250  0.56370  Biso   1.000  O
  O35      1.0000 0.68890  0.44676  0.28200  Biso   1.000  O
  O36      1.0000 0.94340  0.54704  0.38360  Biso   1.000  O
  O37      1.0000 0.89080  0.54812  0.57400  Biso   1.000  O
  O38      1.0000 0.92610  0.43473  0.37030  Biso   1.000  O
  O39      1.0000 0.69530  0.56264  0.33210  Biso   1.000  O
  C103     1.0000 0.97980  0.42310  0.61280  Biso   1.000  C
  C104     1.0000 0.62180  0.41880  0.20380  Biso   1.000  C
  C105     1.0000 0.01410  0.37200  0.66630  Biso   1.000  C
  C106     1.0000 0.60280  0.36700  0.23660  Biso   1.000  C
  O40      1.0000 0.56990  0.43155  0.10340  Biso   1.000  O
  C107     1.0000 0.11720  0.35160  0.68000  Biso   1.000  C
  C108     1.0000 0.94090  0.34450  0.69480  Biso   1.000  C
  C109     1.0000 0.51850  0.33620  0.15590  Biso   1.000  C
  C110     1.0000 0.66810  0.34910  0.34720  Biso   1.000  C
  Gd8      1.0000 0.45081  0.49324  0.00369  Biso   1.000  Gd
  H73      1.0000 0.16700  0.37050  0.66240  Biso   1.000  H
  C111     1.0000 0.14550  0.30280  0.72030  Biso   1.000  C
  H74      1.0000 0.87200  0.35810  0.68550  Biso   1.000  H
  C112     1.0000 0.97100  0.29670  0.73710  Biso   1.000  C
  H75      1.0000 0.47440  0.34790  0.08290  Biso   1.000  H
  C113     1.0000 0.50240  0.28870  0.18630  Biso   1.000  C
  H76      1.0000 0.72270  0.36980  0.40040  Biso   1.000  H
  C114     1.0000 0.65210  0.30110  0.37780  Biso   1.000  C
  O41      1.0000 0.31250  0.42490  0.00870  Biso   1.000  O
  O42      1.0000 0.38450  0.46720  0.14900  Biso   1.000  O
  O43      1.0000 0.57830  0.54610  0.15490  Biso   1.000  O
  H77      1.0000 0.21400  0.28890  0.72890  Biso   1.000  H
  C115     1.0000 0.07310  0.27550  0.74700  Biso   1.000  C
  C116     1.0000 0.90710  0.26000  0.77850  Biso   1.000  C
  C117     1.0000 0.56690  0.27080  0.29620  Biso   1.000  C
  C118     1.0000 0.41930  0.24880  0.11330  Biso   1.000  C
  H78      1.0000 0.69660  0.28910  0.45050  Biso   1.000  H
  N4       1.0000 0.30850  0.43400  0.09700  Biso   1.000  N
  C119     1.0000 0.07760  0.22340  0.78420  Biso   1.000  C
  C120     1.0000 0.90400  0.27810  0.88750  Biso   1.000  C
  C121     1.0000 0.78790  0.24960  0.68560  Biso   1.000  C
  C122     1.0000 0.98200  0.21340  0.80240  Biso   1.000  C
  C123     1.0000 0.53490  0.21890  0.30280  Biso   1.000  C
  C124     1.0000 0.29520  0.26760  0.07260  Biso   1.000  C
  C125     1.0000 0.43930  0.23360  0.01340  Biso   1.000  C
  C126     1.0000 0.44660  0.20610  0.19890  Biso   1.000  C
  O44      1.0000 0.27020  0.41150  0.13900  Biso   1.000  O
  C127     1.0000 0.15600  0.18500  0.80040  Biso   1.000  C
  H79      1.0000 0.87340  0.25300  0.91810  Biso   1.000  H
  H80      1.0000 0.98300  0.28500  0.94000  Biso   1.000  H
  H81      1.0000 0.85870  0.30800  0.87390  Biso   1.000  H
  H82      1.0000 0.75370  0.22360  0.71030  Biso   1.000  H
  H83      1.0000 0.74370  0.27960  0.67420  Biso   1.000  H
  H84      1.0000 0.78800  0.24000  0.61610  Biso   1.000  H
  C128     1.0000 0.96330  0.16560  0.83240  Biso   1.000  C
  C129     1.0000 0.57390  0.18560  0.39080  Biso   1.000  C
  H85      1.0000 0.28380  0.27880  0.13550  Biso   1.000  H
  H86      1.0000 0.28060  0.29450  0.02050  Biso   1.000  H
  H87      1.0000 0.24290  0.24060  0.03560  Biso   1.000  H
  H88      1.0000 0.39230  0.20520  0.97640  Biso   1.000  H
  H89      1.0000 0.41930  0.26090  0.96130  Biso   1.000  H
  H90      1.0000 0.51960  0.22530  0.03940  Biso   1.000  H
  C130     1.0000 0.39780  0.15910  0.18390  Biso   1.000  C
  H91      1.0000 0.21920  0.19100  0.78730  Biso   1.000  H
  C131     1.0000 0.13980  0.13870  0.83540  Biso   1.000  C
  H92      1.0000 0.89760  0.15870  0.84050  Biso   1.000  H
  C132     1.0000 0.04250  0.12800  0.85020  Biso   1.000  C
  H93      1.0000 0.63160  0.19500  0.46060  Biso   1.000  H
  C133     1.0000 0.52850  0.13880  0.37640  Biso   1.000  C
  H94      1.0000 0.33880  0.15010  0.11450  Biso   1.000  H
  C134     1.0000 0.43750  0.12550  0.27320  Biso   1.000  C
  H95      1.0000 0.19430  0.11390  0.84970  Biso   1.000  H
  C135     1.0000 0.02530  0.07660  0.88470  Biso   1.000  C
  H96      1.0000 0.55790  0.11560  0.43510  Biso   1.000  H
  C136     1.0000 0.38100  0.07460  0.25940  Biso   1.000  C
