data_image0
_cell_length_a       12.919
_cell_length_b       26.8433
_cell_length_c       13.2924
_cell_angle_alpha    90
_cell_angle_beta     116.759
_cell_angle_gamma    90

_symmetry_space_group_name_H-M    "P 1"
_symmetry_int_tables_number       1

loop_
  _symmetry_equiv_pos_as_xyz
  'x, y, z'

loop_
  _atom_site_label
  _atom_site_occupancy
  _atom_site_fract_x
  _atom_site_fract_y
  _atom_site_fract_z
  _atom_site_thermal_displace_type
  _atom_site_B_iso_or_equiv
  _atom_site_type_symbol
  Sm1      1.0000 0.82163  0.00178  0.92328  Biso   1.000  Sm
  O1       1.0000 0.03440  0.04329  0.10670  Biso   1.000  O
  O2       1.0000 0.85430  0.06162  0.07060  Biso   1.000  O
  O3       1.0000 0.67010  0.04849  0.79430  Biso   1.000  O
  O4       1.0000 0.90130  0.94450  0.07150  Biso   1.000  O
  O5       1.0000 0.91060  0.07127  0.87300  Biso   1.000  O
  O6       1.0000 0.70640  0.93290  0.82000  Biso   1.000  O
  C1       1.0000 0.96010  0.07260  0.11410  Biso   1.000  C
  C2       1.0000 0.61290  0.07800  0.71570  Biso   1.000  C
  C3       1.0000 0.99600  0.12270  0.16670  Biso   1.000  C
  C4       1.0000 0.59400  0.13020  0.74640  Biso   1.000  C
  O7       1.0000 0.56650  0.06671  0.61240  Biso   1.000  O
  C5       1.0000 0.09900  0.14430  0.17670  Biso   1.000  C
  C6       1.0000 0.92580  0.14920  0.20130  Biso   1.000  C
  C7       1.0000 0.51150  0.16070  0.66540  Biso   1.000  C
  C8       1.0000 0.66040  0.14730  0.85570  Biso   1.000  C
  Sm2      1.0000 0.44491  0.00642  0.49725  Biso   1.000  Sm
  H1       1.0000 0.14770  0.12620  0.15610  Biso   1.000  H
  C9       1.0000 0.12920  0.19270  0.21690  Biso   1.000  C
  H2       1.0000 0.85780  0.13500  0.19580  Biso   1.000  H
  C10      1.0000 0.95720  0.19710  0.24430  Biso   1.000  C
  H3       1.0000 0.46790  0.14910  0.59230  Biso   1.000  H
  C11      1.0000 0.49490  0.20830  0.69430  Biso   1.000  C
  H4       1.0000 0.71550  0.12660  0.90910  Biso   1.000  H
  C12      1.0000 0.64460  0.19530  0.88520  Biso   1.000  C
  O8       1.0000 0.30200  0.07430  0.50420  Biso   1.000  O
  O9       1.0000 0.36630  0.02810  0.63450  Biso   1.000  O
  O10      1.0000 0.57520  0.95090  0.64930  Biso   1.000  O
  H5       1.0000 0.19710  0.20700  0.22230  Biso   1.000  H
  C13      1.0000 0.05670  0.21930  0.24890  Biso   1.000  C
  C14      1.0000 0.89390  0.23300  0.28740  Biso   1.000  C
  C15      1.0000 0.56230  0.22560  0.80350  Biso   1.000  C
  C16      1.0000 0.40890  0.24860  0.62110  Biso   1.000  C
  H6       1.0000 0.68830  0.20700  0.95810  Biso   1.000  H
  N1       1.0000 0.29840  0.06380  0.58600  Biso   1.000  N
  C17      1.0000 0.06260  0.27060  0.28700  Biso   1.000  C
  C18      1.0000 0.89880  0.21440  0.39860  Biso   1.000  C
  C19      1.0000 0.76960  0.24200  0.19820  Biso   1.000  C
  C20      1.0000 0.96750  0.27990  0.30760  Biso   1.000  C
  C21      1.0000 0.52910  0.27770  0.81070  Biso   1.000  C
  C22      1.0000 0.28320  0.23060  0.57860  Biso   1.000  C
  C23      1.0000 0.42950  0.26340  0.52120  Biso   1.000  C
  C24      1.0000 0.43850  0.29100  0.70570  Biso   1.000  C
  O11      1.0000 0.25620  0.08680  0.63690  Biso   1.000  O
  C25      1.0000 0.14270  0.30890  0.30170  Biso   1.000  C
  H7       1.0000 0.86820  0.23950  0.42920  Biso   1.000  H
  H8       1.0000 0.97770  0.20740  0.45110  Biso   1.000  H
  H9       1.0000 0.85350  0.18450  0.38500  Biso   1.000  H
  H10      1.0000 0.73550  0.26810  0.22290  Biso   1.000  H
  H11      1.0000 0.72550  0.21200  0.18680  Biso   1.000  H
  H12      1.0000 0.76980  0.25170  0.12870  Biso   1.000  H
  C26      1.0000 0.94960  0.32740  0.33840  Biso   1.000  C
  C27      1.0000 0.57210  0.31080  0.89960  Biso   1.000  C
  H13      1.0000 0.27170  0.21940  0.64150  Biso   1.000  H
  H14      1.0000 0.26850  0.20360  0.52660  Biso   1.000  H
  H15      1.0000 0.23090  0.25750  0.54160  Biso   1.000  H
  H16      1.0000 0.38240  0.29180  0.48430  Biso   1.000  H
  H17      1.0000 0.40950  0.23610  0.46910  Biso   1.000  H
  H18      1.0000 0.50980  0.27170  0.54720  Biso   1.000  H
  C28      1.0000 0.38980  0.33760  0.69180  Biso   1.000  C
  H19      1.0000 0.20640  0.30330  0.28820  Biso   1.000  H
  C29      1.0000 0.12430  0.35520  0.33660  Biso   1.000  C
  H20      1.0000 0.88440  0.33380  0.34890  Biso   1.000  H
  C30      1.0000 0.02780  0.36510  0.35340  Biso   1.000  C
  H21      1.0000 0.63310  0.30190  0.96840  Biso   1.000  H
  C31      1.0000 0.52230  0.35770  0.88380  Biso   1.000  C
  H22      1.0000 0.32970  0.34680  0.62270  Biso   1.000  H
  C32      1.0000 0.43070  0.37070  0.78090  Biso   1.000  C
  H23      1.0000 0.17810  0.38050  0.34910  Biso   1.000  H
  C33      1.0000 0.01100  0.41650  0.38780  Biso   1.000  C
  H24      1.0000 0.55030  0.38070  0.94250  Biso   1.000  H
  C34      1.0000 0.37540  0.42140  0.76790  Biso   1.000  C
  Sm3      1.0000 0.17837  0.50178  0.57672  Biso   1.000  Sm
  O12      1.0000 0.96560  0.54329  0.39330  Biso   1.000  O
  O13      1.0000 0.14570  0.56162  0.42940  Biso   1.000  O
  O14      1.0000 0.32990  0.54849  0.70570  Biso   1.000  O
  O15      1.0000 0.09870  0.44450  0.42850  Biso   1.000  O
  O16      1.0000 0.08940  0.57127  0.62700  Biso   1.000  O
  O17      1.0000 0.29360  0.43290  0.68000  Biso   1.000  O
  C35      1.0000 0.03990  0.57260  0.38590  Biso   1.000  C
  C36      1.0000 0.38710  0.57800  0.78430  Biso   1.000  C
  C37      1.0000 0.00400  0.62270  0.33330  Biso   1.000  C
  C38      1.0000 0.40600  0.63020  0.75360  Biso   1.000  C
  O18      1.0000 0.43350  0.56671  0.88760  Biso   1.000  O
  C39      1.0000 0.90100  0.64430  0.32330  Biso   1.000  C
  C40      1.0000 0.07420  0.64920  0.29870  Biso   1.000  C
  C41      1.0000 0.48850  0.66070  0.83460  Biso   1.000  C
  C42      1.0000 0.33960  0.64730  0.64430  Biso   1.000  C
  Sm4      1.0000 0.55509  0.50642  0.00275  Biso   1.000  Sm
  H25      1.0000 0.85230  0.62620  0.34390  Biso   1.000  H
  C43      1.0000 0.87080  0.69270  0.28310  Biso   1.000  C
  H26      1.0000 0.14220  0.63500  0.30420  Biso   1.000  H
  C44      1.0000 0.04280  0.69710  0.25570  Biso   1.000  C
  H27      1.0000 0.53210  0.64910  0.90770  Biso   1.000  H
  C45      1.0000 0.50510  0.70830  0.80570  Biso   1.000  C
  H28      1.0000 0.28450  0.62660  0.59090  Biso   1.000  H
  C46      1.0000 0.35540  0.69530  0.61480  Biso   1.000  C
  O19      1.0000 0.69800  0.57430  0.99580  Biso   1.000  O
  O20      1.0000 0.63370  0.52810  0.86550  Biso   1.000  O
  O21      1.0000 0.42480  0.45090  0.85070  Biso   1.000  O
  H29      1.0000 0.80290  0.70700  0.27770  Biso   1.000  H
  C47      1.0000 0.94330  0.71930  0.25110  Biso   1.000  C
  C48      1.0000 0.10610  0.73300  0.21260  Biso   1.000  C
  C49      1.0000 0.43770  0.72560  0.69650  Biso   1.000  C
  C50      1.0000 0.59110  0.74860  0.87890  Biso   1.000  C
  H30      1.0000 0.31170  0.70700  0.54190  Biso   1.000  H
  N2       1.0000 0.70160  0.56380  0.91400  Biso   1.000  N
  C51      1.0000 0.93740  0.77060  0.21300  Biso   1.000  C
  C52      1.0000 0.10120  0.71440  0.10140  Biso   1.000  C
  C53      1.0000 0.23040  0.74200  0.30180  Biso   1.000  C
  C54      1.0000 0.03250  0.77990  0.19240  Biso   1.000  C
  C55      1.0000 0.47090  0.77770  0.68930  Biso   1.000  C
  C56      1.0000 0.71680  0.73060  0.92140  Biso   1.000  C
  C57      1.0000 0.57050  0.76340  0.97880  Biso   1.000  C
  C58      1.0000 0.56150  0.79100  0.79430  Biso   1.000  C
  O22      1.0000 0.74380  0.58680  0.86310  Biso   1.000  O
  C59      1.0000 0.85730  0.80890  0.19830  Biso   1.000  C
  H31      1.0000 0.13180  0.73950  0.07080  Biso   1.000  H
  H32      1.0000 0.02230  0.70740  0.04890  Biso   1.000  H
  H33      1.0000 0.14650  0.68450  0.11500  Biso   1.000  H
  H34      1.0000 0.26450  0.76810  0.27710  Biso   1.000  H
  H35      1.0000 0.27450  0.71200  0.31320  Biso   1.000  H
  H36      1.0000 0.23020  0.75170  0.37130  Biso   1.000  H
  C60      1.0000 0.05040  0.82740  0.16160  Biso   1.000  C
  C61      1.0000 0.42790  0.81080  0.60040  Biso   1.000  C
  H37      1.0000 0.72830  0.71940  0.85850  Biso   1.000  H
  H38      1.0000 0.73150  0.70360  0.97340  Biso   1.000  H
  H39      1.0000 0.76910  0.75750  0.95840  Biso   1.000  H
  H40      1.0000 0.61760  0.79180  0.01570  Biso   1.000  H
  H41      1.0000 0.59050  0.73610  0.03090  Biso   1.000  H
  H42      1.0000 0.49020  0.77170  0.95280  Biso   1.000  H
  C62      1.0000 0.61020  0.83760  0.80820  Biso   1.000  C
  H43      1.0000 0.79360  0.80330  0.21180  Biso   1.000  H
  C63      1.0000 0.87570  0.85520  0.16340  Biso   1.000  C
  H44      1.0000 0.11560  0.83380  0.15110  Biso   1.000  H
  C64      1.0000 0.97220  0.86510  0.14660  Biso   1.000  C
  H45      1.0000 0.36690  0.80190  0.53160  Biso   1.000  H
  C65      1.0000 0.47770  0.85770  0.61620  Biso   1.000  C
  H46      1.0000 0.67030  0.84680  0.87730  Biso   1.000  H
  C66      1.0000 0.56930  0.87070  0.71910  Biso   1.000  C
  H47      1.0000 0.82190  0.88050  0.15090  Biso   1.000  H
  C67      1.0000 0.98900  0.91650  0.11220  Biso   1.000  C
  H48      1.0000 0.44970  0.88070  0.55750  Biso   1.000  H
  C68      1.0000 0.62460  0.92140  0.73210  Biso   1.000  C
  Sm5      1.0000 0.17837  0.99822  0.07672  Biso   1.000  Sm
  O23      1.0000 0.96560  0.95671  0.89330  Biso   1.000  O
  O24      1.0000 0.14570  0.93838  0.92940  Biso   1.000  O
  O25      1.0000 0.32990  0.95151  0.20570  Biso   1.000  O
  O26      1.0000 0.09870  0.05550  0.92850  Biso   1.000  O
  O27      1.0000 0.08940  0.92873  0.12700  Biso   1.000  O
  O28      1.0000 0.29360  0.06710  0.18000  Biso   1.000  O
  C69      1.0000 0.03990  0.92740  0.88590  Biso   1.000  C
  C70      1.0000 0.38710  0.92200  0.28430  Biso   1.000  C
  C71      1.0000 0.00400  0.87730  0.83330  Biso   1.000  C
  C72      1.0000 0.40600  0.86980  0.25360  Biso   1.000  C
  O29      1.0000 0.43350  0.93329  0.38760  Biso   1.000  O
  C73      1.0000 0.90100  0.85570  0.82330  Biso   1.000  C
  C74      1.0000 0.07420  0.85080  0.79870  Biso   1.000  C
  C75      1.0000 0.48850  0.83930  0.33460  Biso   1.000  C
  C76      1.0000 0.33960  0.85270  0.14430  Biso   1.000  C
  Sm6      1.0000 0.55509  0.99358  0.50275  Biso   1.000  Sm
  H49      1.0000 0.85230  0.87380  0.84390  Biso   1.000  H
  C77      1.0000 0.87080  0.80730  0.78310  Biso   1.000  C
  H50      1.0000 0.14220  0.86500  0.80420  Biso   1.000  H
  C78      1.0000 0.04280  0.80290  0.75570  Biso   1.000  C
  H51      1.0000 0.53210  0.85090  0.40770  Biso   1.000  H
  C79      1.0000 0.50510  0.79170  0.30570  Biso   1.000  C
  H52      1.0000 0.28450  0.87340  0.09090  Biso   1.000  H
  C80      1.0000 0.35540  0.80470  0.11480  Biso   1.000  C
  O30      1.0000 0.69800  0.92570  0.49580  Biso   1.000  O
  O31      1.0000 0.63370  0.97190  0.36550  Biso   1.000  O
  O32      1.0000 0.42480  0.04910  0.35070  Biso   1.000  O
  H53      1.0000 0.80290  0.79300  0.77770  Biso   1.000  H
  C81      1.0000 0.94330  0.78070  0.75110  Biso   1.000  C
  C82      1.0000 0.10610  0.76700  0.71260  Biso   1.000  C
  C83      1.0000 0.43770  0.77440  0.19650  Biso   1.000  C
  C84      1.0000 0.59110  0.75140  0.37890  Biso   1.000  C
  H54      1.0000 0.31170  0.79300  0.04190  Biso   1.000  H
  N3       1.0000 0.70160  0.93620  0.41400  Biso   1.000  N
  C85      1.0000 0.93740  0.72940  0.71300  Biso   1.000  C
  C86      1.0000 0.10120  0.78560  0.60140  Biso   1.000  C
  C87      1.0000 0.23040  0.75800  0.80180  Biso   1.000  C
  C88      1.0000 0.03250  0.72010  0.69240  Biso   1.000  C
  C89      1.0000 0.47090  0.72230  0.18930  Biso   1.000  C
  C90      1.0000 0.71680  0.76940  0.42140  Biso   1.000  C
  C91      1.0000 0.57050  0.73660  0.47880  Biso   1.000  C
  C92      1.0000 0.56150  0.70900  0.29430  Biso   1.000  C
  O33      1.0000 0.74380  0.91320  0.36310  Biso   1.000  O
  C93      1.0000 0.85730  0.69110  0.69830  Biso   1.000  C
  H55      1.0000 0.13180  0.76050  0.57080  Biso   1.000  H
  H56      1.0000 0.02230  0.79260  0.54890  Biso   1.000  H
  H57      1.0000 0.14650  0.81550  0.61500  Biso   1.000  H
  H58      1.0000 0.26450  0.73190  0.77710  Biso   1.000  H
  H59      1.0000 0.27450  0.78800  0.81320  Biso   1.000  H
  H60      1.0000 0.23020  0.74830  0.87130  Biso   1.000  H
  C94      1.0000 0.05040  0.67260  0.66160  Biso   1.000  C
  C95      1.0000 0.42790  0.68920  0.10040  Biso   1.000  C
  H61      1.0000 0.72830  0.78060  0.35850  Biso   1.000  H
  H62      1.0000 0.73150  0.79640  0.47340  Biso   1.000  H
  H63      1.0000 0.76910  0.74250  0.45840  Biso   1.000  H
  H64      1.0000 0.61760  0.70820  0.51570  Biso   1.000  H
  H65      1.0000 0.59050  0.76390  0.53090  Biso   1.000  H
  H66      1.0000 0.49020  0.72830  0.45280  Biso   1.000  H
  C96      1.0000 0.61020  0.66240  0.30820  Biso   1.000  C
  H67      1.0000 0.79360  0.69670  0.71180  Biso   1.000  H
  C97      1.0000 0.87570  0.64480  0.66340  Biso   1.000  C
  H68      1.0000 0.11560  0.66620  0.65110  Biso   1.000  H
  C98      1.0000 0.97220  0.63490  0.64660  Biso   1.000  C
  H69      1.0000 0.36690  0.69810  0.03160  Biso   1.000  H
  C99      1.0000 0.47770  0.64230  0.11620  Biso   1.000  C
  H70      1.0000 0.67030  0.65320  0.37730  Biso   1.000  H
  C100     1.0000 0.56930  0.62930  0.21910  Biso   1.000  C
  H71      1.0000 0.82190  0.61950  0.65090  Biso   1.000  H
  C101     1.0000 0.98900  0.58350  0.61220  Biso   1.000  C
  H72      1.0000 0.44970  0.61930  0.05750  Biso   1.000  H
  C102     1.0000 0.62460  0.57860  0.23210  Biso   1.000  C
  Sm7      1.0000 0.82163  0.49822  0.42328  Biso   1.000  Sm
  O34      1.0000 0.03440  0.45671  0.60670  Biso   1.000  O
  O35      1.0000 0.85430  0.43838  0.57060  Biso   1.000  O
  O36      1.0000 0.67010  0.45151  0.29430  Biso   1.000  O
  O37      1.0000 0.90130  0.55550  0.57150  Biso   1.000  O
  O38      1.0000 0.91060  0.42873  0.37300  Biso   1.000  O
  O39      1.0000 0.70640  0.56710  0.32000  Biso   1.000  O
  C103     1.0000 0.96010  0.42740  0.61410  Biso   1.000  C
  C104     1.0000 0.61290  0.42200  0.21570  Biso   1.000  C
  C105     1.0000 0.99600  0.37730  0.66670  Biso   1.000  C
  C106     1.0000 0.59400  0.36980  0.24640  Biso   1.000  C
  O40      1.0000 0.56650  0.43329  0.11240  Biso   1.000  O
  C107     1.0000 0.09900  0.35570  0.67670  Biso   1.000  C
  C108     1.0000 0.92580  0.35080  0.70130  Biso   1.000  C
  C109     1.0000 0.51150  0.33930  0.16540  Biso   1.000  C
  C110     1.0000 0.66040  0.35270  0.35570  Biso   1.000  C
  Sm8      1.0000 0.44491  0.49358  0.99725  Biso   1.000  Sm
  H73      1.0000 0.14770  0.37380  0.65610  Biso   1.000  H
  C111     1.0000 0.12920  0.30730  0.71690  Biso   1.000  C
  H74      1.0000 0.85780  0.36500  0.69580  Biso   1.000  H
  C112     1.0000 0.95720  0.30290  0.74430  Biso   1.000  C
  H75      1.0000 0.46790  0.35090  0.09230  Biso   1.000  H
  C113     1.0000 0.49490  0.29170  0.19430  Biso   1.000  C
  H76      1.0000 0.71550  0.37340  0.40910  Biso   1.000  H
  C114     1.0000 0.64460  0.30470  0.38520  Biso   1.000  C
  O41      1.0000 0.30200  0.42570  0.00420  Biso   1.000  O
  O42      1.0000 0.36630  0.47190  0.13450  Biso   1.000  O
  O43      1.0000 0.57520  0.54910  0.14930  Biso   1.000  O
  H77      1.0000 0.19710  0.29300  0.72230  Biso   1.000  H
  C115     1.0000 0.05670  0.28070  0.74890  Biso   1.000  C
  C116     1.0000 0.89390  0.26700  0.78740  Biso   1.000  C
  C117     1.0000 0.56230  0.27440  0.30350  Biso   1.000  C
  C118     1.0000 0.40890  0.25140  0.12110  Biso   1.000  C
  H78      1.0000 0.68830  0.29300  0.45810  Biso   1.000  H
  N4       1.0000 0.29840  0.43620  0.08600  Biso   1.000  N
  C119     1.0000 0.06260  0.22940  0.78700  Biso   1.000  C
  C120     1.0000 0.89880  0.28560  0.89860  Biso   1.000  C
  C121     1.0000 0.76960  0.25800  0.69820  Biso   1.000  C
  C122     1.0000 0.96750  0.22010  0.80760  Biso   1.000  C
  C123     1.0000 0.52910  0.22230  0.31070  Biso   1.000  C
  C124     1.0000 0.28320  0.26940  0.07860  Biso   1.000  C
  C125     1.0000 0.42950  0.23660  0.02120  Biso   1.000  C
  C126     1.0000 0.43850  0.20900  0.20570  Biso   1.000  C
  O44      1.0000 0.25620  0.41320  0.13690  Biso   1.000  O
  C127     1.0000 0.14270  0.19110  0.80170  Biso   1.000  C
  H79      1.0000 0.86820  0.26050  0.92920  Biso   1.000  H
  H80      1.0000 0.97770  0.29260  0.95110  Biso   1.000  H
  H81      1.0000 0.85350  0.31550  0.88500  Biso   1.000  H
  H82      1.0000 0.73550  0.23190  0.72290  Biso   1.000  H
  H83      1.0000 0.72550  0.28800  0.68680  Biso   1.000  H
  H84      1.0000 0.76980  0.24830  0.62870  Biso   1.000  H
  C128     1.0000 0.94960  0.17260  0.83840  Biso   1.000  C
  C129     1.0000 0.57210  0.18920  0.39960  Biso   1.000  C
  H85      1.0000 0.27170  0.28060  0.14150  Biso   1.000  H
  H86      1.0000 0.26850  0.29640  0.02660  Biso   1.000  H
  H87      1.0000 0.23090  0.24250  0.04160  Biso   1.000  H
  H88      1.0000 0.38240  0.20820  0.98430  Biso   1.000  H
  H89      1.0000 0.40950  0.26390  0.96910  Biso   1.000  H
  H90      1.0000 0.50980  0.22830  0.04720  Biso   1.000  H
  C130     1.0000 0.38980  0.16240  0.19180  Biso   1.000  C
  H91      1.0000 0.20640  0.19670  0.78820  Biso   1.000  H
  C131     1.0000 0.12430  0.14480  0.83660  Biso   1.000  C
  H92      1.0000 0.88440  0.16620  0.84890  Biso   1.000  H
  C132     1.0000 0.02780  0.13490  0.85340  Biso   1.000  C
  H93      1.0000 0.63310  0.19810  0.46840  Biso   1.000  H
  C133     1.0000 0.52230  0.14230  0.38380  Biso   1.000  C
  H94      1.0000 0.32970  0.15320  0.12270  Biso   1.000  H
  C134     1.0000 0.43070  0.12930  0.28090  Biso   1.000  C
  H95      1.0000 0.17810  0.11950  0.84910  Biso   1.000  H
  C135     1.0000 0.01100  0.08350  0.88780  Biso   1.000  C
  H96      1.0000 0.55030  0.11930  0.44250  Biso   1.000  H
  C136     1.0000 0.37540  0.07860  0.26790  Biso   1.000  C
