data_WIZDEP_clean
_audit_creation_date              2014-07-02
_audit_creation_method            'Materials Studio'
_symmetry_space_group_name_H-M    'P1'
_symmetry_Int_Tables_number       1
_symmetry_cell_setting            triclinic
loop_
_symmetry_equiv_pos_as_xyz
  x,y,z
_cell_length_a                    6.3202
_cell_length_b                    15.2843
_cell_length_c                    15.2843
_cell_angle_alpha                 61.8682
_cell_angle_beta                  82.0773
_cell_angle_gamma                 97.9227
loop_
_atom_site_label
_atom_site_type_symbol
_atom_site_fract_x
_atom_site_fract_y
_atom_site_fract_z
_atom_site_U_iso_or_equiv
_atom_site_adp_type
_atom_site_occupancy
Zn1    Zn    0.63596   0.31291   0.42343   0.01267  Uiso   1.00
Zn2    Zn    0.05939   0.42343   0.26366   0.01267  Uiso   1.00
Zn3    Zn    0.32305   0.26366   0.31291   0.01267  Uiso   1.00
Zn4    Zn    0.36404   0.68709   0.57657   0.01267  Uiso   1.00
Zn5    Zn    0.94061   0.57657   0.73634   0.01267  Uiso   1.00
Zn6    Zn    0.67695   0.73634   0.68709   0.01267  Uiso   1.00
H1     H     0.31777   0.46516   0.56644   0.01267  Uiso   1.00
H2     H     0.88421   0.56644   0.96840   0.01267  Uiso   1.00
H3     H     0.85261   0.96840   0.46516   0.01267  Uiso   1.00
H4     H     0.68223   0.53484   0.43356   0.01267  Uiso   1.00
H5     H     0.11579   0.43356   0.03160   0.01267  Uiso   1.00
H6     H     0.14739   0.03160   0.53484   0.01267  Uiso   1.00
C1     C     0.26532   0.39372   0.44121   0.01267  Uiso   1.00
C2     C     0.13866   0.45195   0.46530   0.01267  Uiso   1.00
C3     C     0.94293   0.46713   0.43116   0.01267  Uiso   1.00
C4     C     0.18835   0.47980   0.53992   0.01267  Uiso   1.00
C5     C     0.70653   0.44121   0.16507   0.01267  Uiso   1.00
C6     C     0.60396   0.46530   0.08275   0.01267  Uiso   1.00
C7     C     0.37409   0.43116   0.10171   0.01267  Uiso   1.00
C8     C     0.72827   0.53992   0.98028   0.01267  Uiso   1.00
C9     C     0.87160   0.16507   0.39372   0.01267  Uiso   1.00
C10    C     0.68671   0.08275   0.45195   0.01267  Uiso   1.00
C11    C     0.47580   0.10171   0.46713   0.01267  Uiso   1.00
C12    C     0.70855   0.98028   0.47980   0.01267  Uiso   1.00
C13    C     0.73468   0.60628   0.55879   0.01267  Uiso   1.00
C14    C     0.86134   0.54805   0.53470   0.01267  Uiso   1.00
C15    C     0.05707   0.53287   0.56884   0.01267  Uiso   1.00
C16    C     0.81165   0.52020   0.46008   0.01267  Uiso   1.00
C17    C     0.29347   0.55879   0.83493   0.01267  Uiso   1.00
C18    C     0.39604   0.53470   0.91725   0.01267  Uiso   1.00
C19    C     0.62591   0.56884   0.89829   0.01267  Uiso   1.00
C20    C     0.27173   0.46008   0.01972   0.01267  Uiso   1.00
C21    C     0.12840   0.83493   0.60628   0.01267  Uiso   1.00
C22    C     0.31329   0.91725   0.54805   0.01267  Uiso   1.00
C23    C     0.52420   0.89829   0.53287   0.01267  Uiso   1.00
C24    C     0.29145   0.01972   0.52020   0.01267  Uiso   1.00
O1     O     0.39246   0.35168   0.49718   0.01267  Uiso   1.00
O2     O     0.28488   0.40053   0.35457   0.01267  Uiso   1.00
O3     O     0.88916   0.43631   0.36332   0.01267  Uiso   1.00
O4     O     0.88964   0.49718   0.15114   0.01267  Uiso   1.00
O5     O     0.63945   0.35457   0.24490   0.01267  Uiso   1.00
O6     O     0.25248   0.36332   0.20037   0.01267  Uiso   1.00
O7     O     0.04078   0.15114   0.35168   0.01267  Uiso   1.00
O8     O     0.88435   0.24490   0.40053   0.01267  Uiso   1.00
O9     O     0.45285   0.20037   0.43631   0.01267  Uiso   1.00
O10    O     0.60754   0.64832   0.50282   0.01267  Uiso   1.00
O11    O     0.71512   0.59947   0.64543   0.01267  Uiso   1.00
O12    O     0.11084   0.56369   0.63668   0.01267  Uiso   1.00
O13    O     0.11036   0.50282   0.84886   0.01267  Uiso   1.00
O14    O     0.36055   0.64543   0.75510   0.01267  Uiso   1.00
O15    O     0.74752   0.63668   0.79963   0.01267  Uiso   1.00
O16    O     0.95922   0.84886   0.64832   0.01267  Uiso   1.00
O17    O     0.11565   0.75510   0.59947   0.01267  Uiso   1.00
O18    O     0.54715   0.79963   0.56369   0.01267  Uiso   1.00
