data_image0
_cell_length_a       7.6497
_cell_length_b       8.7364
_cell_length_c       10.0064
_cell_angle_alpha    86.498
_cell_angle_beta     89.456
_cell_angle_gamma    85.135

_symmetry_space_group_name_H-M    "P 1"
_symmetry_int_tables_number       1

loop_
  _symmetry_equiv_pos_as_xyz
  'x, y, z'

loop_
  _atom_site_label
  _atom_site_occupancy
  _atom_site_fract_x
  _atom_site_fract_y
  _atom_site_fract_z
  _atom_site_thermal_displace_type
  _atom_site_B_iso_or_equiv
  _atom_site_type_symbol
  La1      1.0000 0.43049  0.11532  0.16902  Biso   1.000  La
  O1       1.0000 0.12550  0.24257  0.13691  Biso   1.000  O
  O2       1.0000 0.42570  0.36108  0.27972  Biso   1.000  O
  O3       1.0000 0.59880  0.72430  0.04595  Biso   1.000  O
  O4       1.0000 0.69820  0.03398  0.00663  Biso   1.000  O
  O5       1.0000 0.49750  0.83180  0.23194  Biso   1.000  O
  N1       1.0000 0.56870  0.54300  0.37290  Biso   1.000  N
  N2       1.0000 0.97100  0.35290  0.96250  Biso   1.000  N
  O6       1.0000 0.71430  0.24600  0.11300  Biso   1.000  O
  C1       1.0000 0.91360  0.20510  0.93110  Biso   1.000  C
  H1       1.0000 0.01360  0.12540  0.94010  Biso   1.000  H
  H2       1.0000 0.87240  0.21060  0.83730  Biso   1.000  H
  C2       1.0000 0.46390  0.42960  0.37990  Biso   1.000  C
  C3       1.0000 0.61240  0.62430  0.48960  Biso   1.000  C
  H3       1.0000 0.57350  0.73470  0.47240  Biso   1.000  H
  H4       1.0000 0.74170  0.61610  0.49850  Biso   1.000  H
  C4       1.0000 0.11910  0.51160  0.10920  Biso   1.000  C
  H5       1.0000 0.09580  0.51880  0.20620  Biso   1.000  H
  H6       1.0000 0.24710  0.51520  0.09530  Biso   1.000  H
  C5       1.0000 0.76600  0.16030  0.02460  Biso   1.000  C
  C6       1.0000 0.06910  0.35950  0.06960  Biso   1.000  C
  C7       1.0000 0.65850  0.58260  0.24870  Biso   1.000  C
  H7       1.0000 0.66120  0.49400  0.19130  Biso   1.000  H
  H8       1.0000 0.78140  0.59950  0.26950  Biso   1.000  H
  C8       1.0000 0.57560  0.72550  0.16960  Biso   1.000  C
  La2      1.0000 0.56951  0.88468  0.83098  Biso   1.000  La
  O7       1.0000 0.87450  0.75743  0.86309  Biso   1.000  O
  O8       1.0000 0.57430  0.63892  0.72028  Biso   1.000  O
  O9       1.0000 0.40120  0.27570  0.95405  Biso   1.000  O
  O10      1.0000 0.30180  0.96602  0.99337  Biso   1.000  O
  O11      1.0000 0.50250  0.16820  0.76806  Biso   1.000  O
  N3       1.0000 0.43130  0.45700  0.62710  Biso   1.000  N
  N4       1.0000 0.02900  0.64710  0.03750  Biso   1.000  N
  O12      1.0000 0.28570  0.75400  0.88700  Biso   1.000  O
  C9       1.0000 0.08640  0.79490  0.06890  Biso   1.000  C
  H9       1.0000 0.98640  0.87460  0.05990  Biso   1.000  H
  H10      1.0000 0.12760  0.78940  0.16270  Biso   1.000  H
  C10      1.0000 0.53610  0.57040  0.62010  Biso   1.000  C
  C11      1.0000 0.38760  0.37570  0.51040  Biso   1.000  C
  H11      1.0000 0.42650  0.26530  0.52760  Biso   1.000  H
  H12      1.0000 0.25830  0.38390  0.50150  Biso   1.000  H
  C12      1.0000 0.88090  0.48840  0.89080  Biso   1.000  C
  H13      1.0000 0.90420  0.48120  0.79380  Biso   1.000  H
  H14      1.0000 0.75290  0.48480  0.90470  Biso   1.000  H
  C13      1.0000 0.23400  0.83970  0.97540  Biso   1.000  C
  C14      1.0000 0.93090  0.64050  0.93040  Biso   1.000  C
  C15      1.0000 0.34150  0.41740  0.75130  Biso   1.000  C
  H15      1.0000 0.33880  0.50600  0.80870  Biso   1.000  H
  H16      1.0000 0.21860  0.40050  0.73050  Biso   1.000  H
  C16      1.0000 0.42440  0.27450  0.83040  Biso   1.000  C
