data_image0
_cell_length_a       7.5698
_cell_length_b       8.605
_cell_length_c       9.84
_cell_angle_alpha    87.1
_cell_angle_beta     89.92
_cell_angle_gamma    85.22

_symmetry_space_group_name_H-M    "P 1"
_symmetry_int_tables_number       1

loop_
  _symmetry_equiv_pos_as_xyz
  'x, y, z'

loop_
  _atom_site_label
  _atom_site_occupancy
  _atom_site_fract_x
  _atom_site_fract_y
  _atom_site_fract_z
  _atom_site_thermal_displace_type
  _atom_site_B_iso_or_equiv
  _atom_site_type_symbol
  Tb1      1.0000 0.43498  0.11530  0.16673  Biso   1.000  Tb
  O1       1.0000 0.13490  0.23890  0.13340  Biso   1.000  O
  N1       1.0000 0.43310  0.45650  0.62740  Biso   1.000  N
  C1       1.0000 0.12480  0.51220  0.11050  Biso   1.000  C
  H1       1.0000 0.10140  0.51880  0.20910  Biso   1.000  H
  H2       1.0000 0.25390  0.51690  0.09680  Biso   1.000  H
  O2       1.0000 0.71650  0.23860  0.11940  Biso   1.000  O
  N2       1.0000 0.96940  0.35000  0.96250  Biso   1.000  N
  C2       1.0000 0.07440  0.35740  0.06710  Biso   1.000  C
  O3       1.0000 0.68990  0.02880  0.00780  Biso   1.000  O
  C3       1.0000 0.90990  0.20080  0.92830  Biso   1.000  C
  H3       1.0000 0.01110  0.12010  0.93330  Biso   1.000  H
  H4       1.0000 0.86340  0.20850  0.83390  Biso   1.000  H
  O4       1.0000 0.57030  0.64490  0.72450  Biso   1.000  O
  C4       1.0000 0.76430  0.15330  0.02660  Biso   1.000  C
  O5       1.0000 0.50050  0.16150  0.77240  Biso   1.000  O
  C5       1.0000 0.53490  0.57450  0.62310  Biso   1.000  C
  O6       1.0000 0.41070  0.27880  0.96200  Biso   1.000  O
  C6       1.0000 0.39050  0.37250  0.50970  Biso   1.000  C
  H5       1.0000 0.25980  0.37870  0.50070  Biso   1.000  H
  H6       1.0000 0.43180  0.26110  0.52760  Biso   1.000  H
  C7       1.0000 0.33970  0.41520  0.75560  Biso   1.000  C
  H7       1.0000 0.21620  0.39590  0.73320  Biso   1.000  H
  H8       1.0000 0.33500  0.50550  0.81430  Biso   1.000  H
  C8       1.0000 0.42560  0.27280  0.83500  Biso   1.000  C
  Tb2      1.0000 0.56502  0.88470  0.83327  Biso   1.000  Tb
  O7       1.0000 0.86510  0.76110  0.86660  Biso   1.000  O
  N3       1.0000 0.56690  0.54350  0.37260  Biso   1.000  N
  C9       1.0000 0.87520  0.48780  0.88950  Biso   1.000  C
  H9       1.0000 0.89860  0.48120  0.79090  Biso   1.000  H
  H10      1.0000 0.74610  0.48310  0.90320  Biso   1.000  H
  O8       1.0000 0.28350  0.76140  0.88060  Biso   1.000  O
  N4       1.0000 0.03060  0.65000  0.03750  Biso   1.000  N
  C10      1.0000 0.92560  0.64260  0.93290  Biso   1.000  C
  O9       1.0000 0.31010  0.97120  0.99220  Biso   1.000  O
  C11      1.0000 0.09010  0.79920  0.07170  Biso   1.000  C
  H11      1.0000 0.98890  0.87990  0.06670  Biso   1.000  H
  H12      1.0000 0.13660  0.79150  0.16610  Biso   1.000  H
  O10      1.0000 0.42970  0.35510  0.27550  Biso   1.000  O
  C12      1.0000 0.23570  0.84670  0.97340  Biso   1.000  C
  O11      1.0000 0.49950  0.83850  0.22760  Biso   1.000  O
  C13      1.0000 0.46510  0.42550  0.37690  Biso   1.000  C
  O12      1.0000 0.58930  0.72120  0.03800  Biso   1.000  O
  C14      1.0000 0.60950  0.62750  0.49030  Biso   1.000  C
  H13      1.0000 0.74020  0.62130  0.49930  Biso   1.000  H
  H14      1.0000 0.56820  0.73890  0.47240  Biso   1.000  H
  C15      1.0000 0.66030  0.58480  0.24440  Biso   1.000  C
  H15      1.0000 0.78380  0.60410  0.26680  Biso   1.000  H
  H16      1.0000 0.66500  0.49450  0.18570  Biso   1.000  H
  C16      1.0000 0.57440  0.72720  0.16500  Biso   1.000  C
