data_image0
_cell_length_a       13.2063
_cell_length_b       11.2784
_cell_length_c       15.3334
_cell_angle_alpha    90
_cell_angle_beta     103.854
_cell_angle_gamma    90

_symmetry_space_group_name_H-M    "P 1"
_symmetry_int_tables_number       1

loop_
  _symmetry_equiv_pos_as_xyz
  'x, y, z'

loop_
  _atom_site_label
  _atom_site_occupancy
  _atom_site_fract_x
  _atom_site_fract_y
  _atom_site_fract_z
  _atom_site_thermal_displace_type
  _atom_site_B_iso_or_equiv
  _atom_site_type_symbol
  Cd1      1.0000 0.19519  0.82076  0.17910  Biso   1.000  Cd
  O1       1.0000 0.30990  0.70020  0.29190  Biso   1.000  O
  O2       1.0000 0.13760  0.62420  0.17099  Biso   1.000  O
  O3       1.0000 0.32140  0.52510  0.36037  Biso   1.000  O
  O4       1.0000 0.16130  0.44460  0.23416  Biso   1.000  O
  O5       1.0000 0.00960  0.84400  0.13894  Biso   1.000  O
  O6       1.0000 0.86860  0.85670  0.19356  Biso   1.000  O
  O7       1.0000 0.12960  0.79590  0.01402  Biso   1.000  O
  O8       1.0000 0.17100  0.71330  0.89571  Biso   1.000  O
  C1       1.0000 0.28130  0.59600  0.29910  Biso   1.000  C
  C2       1.0000 0.18460  0.55100  0.22810  Biso   1.000  C
  C3       1.0000 0.96500  0.84910  0.20140  Biso   1.000  C
  C4       1.0000 0.19160  0.75240  0.97390  Biso   1.000  C
  Cd2      1.0000 0.69519  0.32076  0.17910  Biso   1.000  Cd
  O9       1.0000 0.80990  0.20020  0.29190  Biso   1.000  O
  O10      1.0000 0.63760  0.12420  0.17099  Biso   1.000  O
  O11      1.0000 0.82140  0.02510  0.36037  Biso   1.000  O
  O12      1.0000 0.66130  0.94460  0.23416  Biso   1.000  O
  O13      1.0000 0.50960  0.34400  0.13894  Biso   1.000  O
  O14      1.0000 0.36860  0.35670  0.19356  Biso   1.000  O
  O15      1.0000 0.62960  0.29590  0.01402  Biso   1.000  O
  O16      1.0000 0.67100  0.21330  0.89571  Biso   1.000  O
  C5       1.0000 0.78130  0.09600  0.29910  Biso   1.000  C
  C6       1.0000 0.68460  0.05100  0.22810  Biso   1.000  C
  C7       1.0000 0.46500  0.34910  0.20140  Biso   1.000  C
  C8       1.0000 0.69160  0.25240  0.97390  Biso   1.000  C
  Cd3      1.0000 0.80481  0.82076  0.32090  Biso   1.000  Cd
  O17      1.0000 0.69010  0.70020  0.20810  Biso   1.000  O
  O18      1.0000 0.86240  0.62420  0.32901  Biso   1.000  O
  O19      1.0000 0.67860  0.52510  0.13963  Biso   1.000  O
  O20      1.0000 0.83870  0.44460  0.26584  Biso   1.000  O
  O21      1.0000 0.99040  0.84400  0.36106  Biso   1.000  O
  O22      1.0000 0.13140  0.85670  0.30644  Biso   1.000  O
  O23      1.0000 0.87040  0.79590  0.48598  Biso   1.000  O
  O24      1.0000 0.82900  0.71330  0.60429  Biso   1.000  O
  C9       1.0000 0.71870  0.59600  0.20090  Biso   1.000  C
  C10      1.0000 0.81540  0.55100  0.27190  Biso   1.000  C
  C11      1.0000 0.03500  0.84910  0.29860  Biso   1.000  C
  C12      1.0000 0.80840  0.75240  0.52610  Biso   1.000  C
  Cd4      1.0000 0.30481  0.32076  0.32090  Biso   1.000  Cd
  O25      1.0000 0.19010  0.20020  0.20810  Biso   1.000  O
  O26      1.0000 0.36240  0.12420  0.32901  Biso   1.000  O
  O27      1.0000 0.17860  0.02510  0.13963  Biso   1.000  O
  O28      1.0000 0.33870  0.94460  0.26584  Biso   1.000  O
  O29      1.0000 0.49040  0.34400  0.36106  Biso   1.000  O
  O30      1.0000 0.63140  0.35670  0.30644  Biso   1.000  O
  O31      1.0000 0.37040  0.29590  0.48598  Biso   1.000  O
  O32      1.0000 0.32900  0.21330  0.60429  Biso   1.000  O
  C13      1.0000 0.21870  0.09600  0.20090  Biso   1.000  C
  C14      1.0000 0.31540  0.05100  0.27190  Biso   1.000  C
  C15      1.0000 0.53500  0.34910  0.29860  Biso   1.000  C
  C16      1.0000 0.30840  0.25240  0.52610  Biso   1.000  C
  Cd5      1.0000 0.80481  0.17924  0.82090  Biso   1.000  Cd
  O33      1.0000 0.69010  0.29980  0.70810  Biso   1.000  O
  O34      1.0000 0.86240  0.37580  0.82901  Biso   1.000  O
  O35      1.0000 0.67860  0.47490  0.63963  Biso   1.000  O
  O36      1.0000 0.83870  0.55540  0.76584  Biso   1.000  O
  O37      1.0000 0.99040  0.15600  0.86106  Biso   1.000  O
  O38      1.0000 0.13140  0.14330  0.80644  Biso   1.000  O
  O39      1.0000 0.87040  0.20410  0.98598  Biso   1.000  O
  O40      1.0000 0.82900  0.28670  0.10429  Biso   1.000  O
  C17      1.0000 0.71870  0.40400  0.70090  Biso   1.000  C
  C18      1.0000 0.81540  0.44900  0.77190  Biso   1.000  C
  C19      1.0000 0.03500  0.15090  0.79860  Biso   1.000  C
  C20      1.0000 0.80840  0.24760  0.02610  Biso   1.000  C
  Cd6      1.0000 0.30481  0.67924  0.82090  Biso   1.000  Cd
  O41      1.0000 0.19010  0.79980  0.70810  Biso   1.000  O
  O42      1.0000 0.36240  0.87580  0.82901  Biso   1.000  O
  O43      1.0000 0.17860  0.97490  0.63963  Biso   1.000  O
  O44      1.0000 0.33870  0.05540  0.76584  Biso   1.000  O
  O45      1.0000 0.49040  0.65600  0.86106  Biso   1.000  O
  O46      1.0000 0.63140  0.64330  0.80644  Biso   1.000  O
  O47      1.0000 0.37040  0.70410  0.98598  Biso   1.000  O
  O48      1.0000 0.32900  0.78670  0.10429  Biso   1.000  O
  C21      1.0000 0.21870  0.90400  0.70090  Biso   1.000  C
  C22      1.0000 0.31540  0.94900  0.77190  Biso   1.000  C
  C23      1.0000 0.53500  0.65090  0.79860  Biso   1.000  C
  C24      1.0000 0.30840  0.74760  0.02610  Biso   1.000  C
  Cd7      1.0000 0.19519  0.17924  0.67910  Biso   1.000  Cd
  O49      1.0000 0.30990  0.29980  0.79190  Biso   1.000  O
  O50      1.0000 0.13760  0.37580  0.67099  Biso   1.000  O
  O51      1.0000 0.32140  0.47490  0.86037  Biso   1.000  O
  O52      1.0000 0.16130  0.55540  0.73416  Biso   1.000  O
  O53      1.0000 0.00960  0.15600  0.63894  Biso   1.000  O
  O54      1.0000 0.86860  0.14330  0.69356  Biso   1.000  O
  O55      1.0000 0.12960  0.20410  0.51402  Biso   1.000  O
  O56      1.0000 0.17100  0.28670  0.39571  Biso   1.000  O
  C25      1.0000 0.28130  0.40400  0.79910  Biso   1.000  C
  C26      1.0000 0.18460  0.44900  0.72810  Biso   1.000  C
  C27      1.0000 0.96500  0.15090  0.70140  Biso   1.000  C
  C28      1.0000 0.19160  0.24760  0.47390  Biso   1.000  C
  Cd8      1.0000 0.69519  0.67924  0.67910  Biso   1.000  Cd
  O57      1.0000 0.80990  0.79980  0.79190  Biso   1.000  O
  O58      1.0000 0.63760  0.87580  0.67099  Biso   1.000  O
  O59      1.0000 0.82140  0.97490  0.86037  Biso   1.000  O
  O60      1.0000 0.66130  0.05540  0.73416  Biso   1.000  O
  O61      1.0000 0.50960  0.65600  0.63894  Biso   1.000  O
  O62      1.0000 0.36860  0.64330  0.69356  Biso   1.000  O
  O63      1.0000 0.62960  0.70410  0.51402  Biso   1.000  O
  O64      1.0000 0.67100  0.78670  0.39571  Biso   1.000  O
  C29      1.0000 0.78130  0.90400  0.79910  Biso   1.000  C
  C30      1.0000 0.68460  0.94900  0.72810  Biso   1.000  C
  C31      1.0000 0.46500  0.65090  0.70140  Biso   1.000  C
  C32      1.0000 0.69160  0.74760  0.47390  Biso   1.000  C
