data_WOBHEB_clean
_audit_creation_date              2014-07-02
_audit_creation_method            'Materials Studio'
_symmetry_space_group_name_H-M    'P1'
_symmetry_Int_Tables_number       1
_symmetry_cell_setting            triclinic
loop_
_symmetry_equiv_pos_as_xyz
  x,y,z
_cell_length_a                    6.6694
_cell_length_b                    15.3228
_cell_length_c                    15.3228
_cell_angle_alpha                 62.0679
_cell_angle_beta                  81.6577
_cell_angle_gamma                 98.3423
loop_
_atom_site_label
_atom_site_type_symbol
_atom_site_fract_x
_atom_site_fract_y
_atom_site_fract_z
_atom_site_U_iso_or_equiv
_atom_site_adp_type
_atom_site_occupancy
Zn1    Zn    0.38338   0.42634   0.31100   0.01267  Uiso   1.00
Zn2    Zn    0.69438   0.31100   0.26266   0.01267  Uiso   1.00
Zn3    Zn    0.95704   0.26266   0.42634   0.01267  Uiso   1.00
Zn4    Zn    0.61662   0.57366   0.68900   0.01267  Uiso   1.00
Zn5    Zn    0.30562   0.68900   0.73734   0.01267  Uiso   1.00
Zn6    Zn    0.04296   0.73734   0.57366   0.01267  Uiso   1.00
H1     H     0.68290   0.54990   0.46920   0.01267  Uiso   1.00
H2     H     0.15210   0.46920   0.98090   0.01267  Uiso   1.00
H3     H     0.13300   0.98090   0.54990   0.01267  Uiso   1.00
H4     H     0.31710   0.45010   0.53080   0.01267  Uiso   1.00
H5     H     0.84790   0.53080   0.01910   0.01267  Uiso   1.00
H6     H     0.86700   0.01910   0.45010   0.01267  Uiso   1.00
C1     C     0.75591   0.43847   0.38624   0.01267  Uiso   1.00
C2     C     0.88539   0.46611   0.44634   0.01267  Uiso   1.00
C3     C     0.82019   0.53018   0.48071   0.01267  Uiso   1.00
C4     C     0.07109   0.43437   0.46770   0.01267  Uiso   1.00
C5     C     0.14215   0.38624   0.17529   0.01267  Uiso   1.00
C6     C     0.33173   0.44634   0.08755   0.01267  Uiso   1.00
C7     C     0.30090   0.48071   0.98911   0.01267  Uiso   1.00
C8     C     0.53879   0.46770   0.09793   0.01267  Uiso   1.00
C9     C     0.31744   0.17529   0.43847   0.01267  Uiso   1.00
C10    C     0.41928   0.08755   0.46611   0.01267  Uiso   1.00
C11    C     0.29001   0.98911   0.53018   0.01267  Uiso   1.00
C12    C     0.63672   0.09793   0.43437   0.01267  Uiso   1.00
C13    C     0.24409   0.56153   0.61376   0.01267  Uiso   1.00
C14    C     0.11461   0.53389   0.55366   0.01267  Uiso   1.00
C15    C     0.17981   0.46982   0.51929   0.01267  Uiso   1.00
C16    C     0.92891   0.56563   0.53230   0.01267  Uiso   1.00
C17    C     0.85785   0.61376   0.82471   0.01267  Uiso   1.00
C18    C     0.66827   0.55366   0.91245   0.01267  Uiso   1.00
C19    C     0.69910   0.51929   0.01089   0.01267  Uiso   1.00
C20    C     0.46121   0.53230   0.90207   0.01267  Uiso   1.00
C21    C     0.68256   0.82471   0.56153   0.01267  Uiso   1.00
C22    C     0.58072   0.91245   0.53389   0.01267  Uiso   1.00
C23    C     0.70999   0.01089   0.46982   0.01267  Uiso   1.00
C24    C     0.36328   0.90207   0.56563   0.01267  Uiso   1.00
O1     O     0.60356   0.47753   0.36635   0.01267  Uiso   1.00
O2     O     0.80490   0.37884   0.35634   0.01267  Uiso   1.00
O3     O     0.14764   0.37009   0.44017   0.01267  Uiso   1.00
O4     O     0.96991   0.36635   0.15612   0.01267  Uiso   1.00
O5     O     0.16124   0.35634   0.26482   0.01267  Uiso   1.00
O6     O     0.58781   0.44017   0.18974   0.01267  Uiso   1.00
O7     O     0.12603   0.15612   0.47753   0.01267  Uiso   1.00
O8     O     0.42606   0.26482   0.37884   0.01267  Uiso   1.00
O9     O     0.77755   0.18974   0.37009   0.01267  Uiso   1.00
O10    O     0.39644   0.52247   0.63365   0.01267  Uiso   1.00
O11    O     0.19510   0.62116   0.64366   0.01267  Uiso   1.00
O12    O     0.85236   0.62991   0.55983   0.01267  Uiso   1.00
O13    O     0.03009   0.63365   0.84388   0.01267  Uiso   1.00
O14    O     0.83876   0.64366   0.73518   0.01267  Uiso   1.00
O15    O     0.41219   0.55983   0.81026   0.01267  Uiso   1.00
O16    O     0.87397   0.84388   0.52247   0.01267  Uiso   1.00
O17    O     0.57394   0.73518   0.62116   0.01267  Uiso   1.00
O18    O     0.22245   0.81026   0.62991   0.01267  Uiso   1.00
