data_image0
_cell_length_a       9.3591
_cell_length_b       9.3128
_cell_length_c       15.1655
_cell_angle_alpha    90
_cell_angle_beta     92.505
_cell_angle_gamma    90

_symmetry_space_group_name_H-M    "P 1"
_symmetry_int_tables_number       1

loop_
  _symmetry_equiv_pos_as_xyz
  'x, y, z'

loop_
  _atom_site_label
  _atom_site_occupancy
  _atom_site_fract_x
  _atom_site_fract_y
  _atom_site_fract_z
  _atom_site_thermal_displace_type
  _atom_site_B_iso_or_equiv
  _atom_site_type_symbol
  Be1      1.0000 0.91640  0.90560  0.61700  Biso   1.000  Be
  Be2      1.0000 0.33280  0.99730  0.67940  Biso   1.000  Be
  P1       1.0000 0.63697  0.02548  0.63834  Biso   1.000  P
  P2       1.0000 0.10889  0.13904  0.57606  Biso   1.000  P
  P3       1.0000 0.34847  0.23926  0.81425  Biso   1.000  P
  O1       1.0000 0.75420  0.91630  0.64881  Biso   1.000  O
  O2       1.0000 0.63760  0.09510  0.54475  Biso   1.000  O
  H1       1.0000 0.67290  0.03890  0.51020  Biso   1.000  H
  O3       1.0000 0.66960  0.15710  0.69931  Biso   1.000  O
  H2       1.0000 0.59860  0.17640  0.72690  Biso   1.000  H
  O4       1.0000 0.49500  0.96110  0.65536  Biso   1.000  O
  O5       1.0000 0.25170  0.05920  0.58865  Biso   1.000  O
  O6       1.0000 0.07550  0.16980  0.47894  Biso   1.000  O
  O7       1.0000 0.99000  0.06110  0.61964  Biso   1.000  O
  O8       1.0000 0.12450  0.29340  0.61699  Biso   1.000  O
  H3       1.0000 0.16090  0.28760  0.66700  Biso   1.000  H
  O9       1.0000 0.32750  0.10790  0.75895  Biso   1.000  O
  O10      1.0000 0.23810  0.35000  0.78547  Biso   1.000  O
  O11      1.0000 0.32100  0.19760  0.91281  Biso   1.000  O
  H4       1.0000 0.38670  0.22800  0.94520  Biso   1.000  H
  O12      1.0000 0.50160  0.29450  0.81194  Biso   1.000  O
  Be3      1.0000 0.58360  0.40560  0.88300  Biso   1.000  Be
  Be4      1.0000 0.16720  0.49730  0.82060  Biso   1.000  Be
  P4       1.0000 0.86303  0.52548  0.86166  Biso   1.000  P
  P5       1.0000 0.39111  0.63904  0.92394  Biso   1.000  P
  P6       1.0000 0.15153  0.73926  0.68575  Biso   1.000  P
  O13      1.0000 0.74580  0.41630  0.85119  Biso   1.000  O
  O14      1.0000 0.86240  0.59510  0.95525  Biso   1.000  O
  H5       1.0000 0.82710  0.53890  0.98980  Biso   1.000  H
  O15      1.0000 0.83040  0.65710  0.80069  Biso   1.000  O
  H6       1.0000 0.90140  0.67640  0.77310  Biso   1.000  H
  O16      1.0000 0.00500  0.46110  0.84464  Biso   1.000  O
  O17      1.0000 0.24830  0.55920  0.91135  Biso   1.000  O
  O18      1.0000 0.42450  0.66980  0.02106  Biso   1.000  O
  O19      1.0000 0.51000  0.56110  0.88036  Biso   1.000  O
  O20      1.0000 0.37550  0.79340  0.88301  Biso   1.000  O
  H7       1.0000 0.33910  0.78760  0.83300  Biso   1.000  H
  O21      1.0000 0.17250  0.60790  0.74105  Biso   1.000  O
  O22      1.0000 0.26190  0.85000  0.71453  Biso   1.000  O
  O23      1.0000 0.17900  0.69760  0.58719  Biso   1.000  O
  H8       1.0000 0.11330  0.72800  0.55480  Biso   1.000  H
  O24      1.0000 0.99840  0.79450  0.68806  Biso   1.000  O
  Be5      1.0000 0.08360  0.09440  0.38300  Biso   1.000  Be
  Be6      1.0000 0.66720  0.00270  0.32060  Biso   1.000  Be
  P7       1.0000 0.36303  0.97452  0.36166  Biso   1.000  P
  P8       1.0000 0.89111  0.86096  0.42394  Biso   1.000  P
  P9       1.0000 0.65153  0.76074  0.18575  Biso   1.000  P
  O25      1.0000 0.24580  0.08370  0.35119  Biso   1.000  O
  O26      1.0000 0.36240  0.90490  0.45525  Biso   1.000  O
  H9       1.0000 0.32710  0.96110  0.48980  Biso   1.000  H
  O27      1.0000 0.33040  0.84290  0.30069  Biso   1.000  O
  H10      1.0000 0.40140  0.82360  0.27310  Biso   1.000  H
  O28      1.0000 0.50500  0.03890  0.34464  Biso   1.000  O
  O29      1.0000 0.74830  0.94080  0.41135  Biso   1.000  O
  O30      1.0000 0.92450  0.83020  0.52106  Biso   1.000  O
  O31      1.0000 0.01000  0.93890  0.38036  Biso   1.000  O
  O32      1.0000 0.87550  0.70660  0.38301  Biso   1.000  O
  H11      1.0000 0.83910  0.71240  0.33300  Biso   1.000  H
  O33      1.0000 0.67250  0.89210  0.24105  Biso   1.000  O
  O34      1.0000 0.76190  0.65000  0.21453  Biso   1.000  O
  O35      1.0000 0.67900  0.80240  0.08719  Biso   1.000  O
  H12      1.0000 0.61330  0.77200  0.05480  Biso   1.000  H
  O36      1.0000 0.49840  0.70550  0.18806  Biso   1.000  O
  Be7      1.0000 0.41640  0.59440  0.11700  Biso   1.000  Be
  Be8      1.0000 0.83280  0.50270  0.17940  Biso   1.000  Be
  P10      1.0000 0.13697  0.47452  0.13834  Biso   1.000  P
  P11      1.0000 0.60889  0.36096  0.07606  Biso   1.000  P
  P12      1.0000 0.84847  0.26074  0.31425  Biso   1.000  P
  O37      1.0000 0.25420  0.58370  0.14881  Biso   1.000  O
  O38      1.0000 0.13760  0.40490  0.04475  Biso   1.000  O
  H13      1.0000 0.17290  0.46110  0.01020  Biso   1.000  H
  O39      1.0000 0.16960  0.34290  0.19931  Biso   1.000  O
  H14      1.0000 0.09860  0.32360  0.22690  Biso   1.000  H
  O40      1.0000 0.99500  0.53890  0.15536  Biso   1.000  O
  O41      1.0000 0.75170  0.44080  0.08865  Biso   1.000  O
  O42      1.0000 0.57550  0.33020  0.97894  Biso   1.000  O
  O43      1.0000 0.49000  0.43890  0.11964  Biso   1.000  O
  O44      1.0000 0.62450  0.20660  0.11699  Biso   1.000  O
  H15      1.0000 0.66090  0.21240  0.16700  Biso   1.000  H
  O45      1.0000 0.82750  0.39210  0.25895  Biso   1.000  O
  O46      1.0000 0.73810  0.15000  0.28547  Biso   1.000  O
  O47      1.0000 0.82100  0.30240  0.41281  Biso   1.000  O
  H16      1.0000 0.88670  0.27200  0.44520  Biso   1.000  H
  O48      1.0000 0.00160  0.20550  0.31194  Biso   1.000  O
