data_WOCWAN_clean
_audit_creation_date              2014-07-02
_audit_creation_method            'Materials Studio'
_symmetry_space_group_name_H-M    'P1'
_symmetry_Int_Tables_number       1
_symmetry_cell_setting            triclinic
loop_
_symmetry_equiv_pos_as_xyz
  x,y,z
_cell_length_a                    8.5090
_cell_length_b                    13.1530
_cell_length_c                    13.9945
_cell_angle_alpha                 118.0300
_cell_angle_beta                  90.6400
_cell_angle_gamma                 90.0000
loop_
_atom_site_label
_atom_site_type_symbol
_atom_site_fract_x
_atom_site_fract_y
_atom_site_fract_z
_atom_site_U_iso_or_equiv
_atom_site_adp_type
_atom_site_occupancy
Cu1    Cu    0.55381   0.08962   0.58871   0.01267  Uiso   1.00
Cu2    Cu    0.94619   0.50091   0.41129   0.01267  Uiso   1.00
Cu3    Cu    0.44619   0.91038   0.41129   0.01267  Uiso   1.00
Cu4    Cu    0.05381   0.49909   0.58871   0.01267  Uiso   1.00
H1     H     0.65160   0.34140   0.66260   0.01267  Uiso   1.00
H2     H     0.80650   0.48790   0.79020   0.01267  Uiso   1.00
H3     H     0.89700   0.28570   0.93060   0.01267  Uiso   1.00
H4     H     0.73630   0.14580   0.80060   0.01267  Uiso   1.00
H5     H     0.97480   0.56710   0.94920   0.01267  Uiso   1.00
H6     H     0.09610   0.07160   0.72440   0.01267  Uiso   1.00
H7     H     0.00480   0.08250   0.62900   0.01267  Uiso   1.00
H8     H     0.90940   0.92040   0.64460   0.01267  Uiso   1.00
H9     H     0.98670   0.87880   0.52840   0.01267  Uiso   1.00
H10    H     0.13510   0.86890   0.70820   0.01267  Uiso   1.00
H11    H     0.22550   0.83940   0.59880   0.01267  Uiso   1.00
H12    H     0.84840   0.67880   0.33740   0.01267  Uiso   1.00
H13    H     0.69350   0.69770   0.20980   0.01267  Uiso   1.00
H14    H     0.60300   0.35510   0.06940   0.01267  Uiso   1.00
H15    H     0.76370   0.34520   0.19940   0.01267  Uiso   1.00
H16    H     0.52520   0.61790   0.05080   0.01267  Uiso   1.00
H17    H     0.40390   0.34720   0.27560   0.01267  Uiso   1.00
H18    H     0.49520   0.45350   0.37100   0.01267  Uiso   1.00
H19    H     0.59060   0.27580   0.35540   0.01267  Uiso   1.00
H20    H     0.51330   0.35040   0.47160   0.01267  Uiso   1.00
H21    H     0.36490   0.16070   0.29180   0.01267  Uiso   1.00
H22    H     0.27450   0.24060   0.40120   0.01267  Uiso   1.00
H23    H     0.34840   0.65860   0.33740   0.01267  Uiso   1.00
H24    H     0.19350   0.51210   0.20980   0.01267  Uiso   1.00
H25    H     0.10300   0.71430   0.06940   0.01267  Uiso   1.00
H26    H     0.26370   0.85420   0.19940   0.01267  Uiso   1.00
H27    H     0.02520   0.43290   0.05080   0.01267  Uiso   1.00
H28    H     0.90390   0.92840   0.27560   0.01267  Uiso   1.00
H29    H     0.99520   0.91750   0.37100   0.01267  Uiso   1.00
H30    H     0.09060   0.07960   0.35540   0.01267  Uiso   1.00
H31    H     0.01330   0.12120   0.47160   0.01267  Uiso   1.00
H32    H     0.86490   0.13110   0.29180   0.01267  Uiso   1.00
H33    H     0.77450   0.16060   0.40120   0.01267  Uiso   1.00
H34    H     0.15160   0.32120   0.66260   0.01267  Uiso   1.00
H35    H     0.30650   0.30230   0.79020   0.01267  Uiso   1.00
H36    H     0.39700   0.64490   0.93060   0.01267  Uiso   1.00
H37    H     0.23630   0.65480   0.80060   0.01267  Uiso   1.00
H38    H     0.47480   0.38210   0.94920   0.01267  Uiso   1.00
H39    H     0.59610   0.65280   0.72440   0.01267  Uiso   1.00
H40    H     0.50480   0.54650   0.62900   0.01267  Uiso   1.00
H41    H     0.40940   0.72420   0.64460   0.01267  Uiso   1.00
H42    H     0.48670   0.64960   0.52840   0.01267  Uiso   1.00
H43    H     0.63510   0.83930   0.70820   0.01267  Uiso   1.00
H44    H     0.72550   0.75940   0.59880   0.01267  Uiso   1.00
C1     C     0.70080   0.33052   0.71842   0.01267  Uiso   1.00
C2     C     0.79420   0.41814   0.79408   0.01267  Uiso   1.00
C3     C     0.86830   0.40486   0.87652   0.01267  Uiso   1.00
C4     C     0.84610   0.29979   0.87718   0.01267  Uiso   1.00
C5     C     0.75050   0.21647   0.79874   0.01267  Uiso   1.00
C6     C     0.96370   0.49995   0.95770   0.01267  Uiso   1.00
C7     C     0.23550   0.03055   0.59188   0.01267  Uiso   1.00
C8     C     0.07960   0.03463   0.64492   0.01267  Uiso   1.00
C9     C     0.00960   0.91413   0.60696   0.01267  Uiso   1.00
C10    C     0.12170   0.83666   0.62884   0.01267  Uiso   1.00
C11    C     0.07100   0.71216   0.58250   0.01267  Uiso   1.00
C12    C     0.79920   0.61210   0.28158   0.01267  Uiso   1.00
C13    C     0.70580   0.62406   0.20592   0.01267  Uiso   1.00
C14    C     0.63170   0.52834   0.12348   0.01267  Uiso   1.00
C15    C     0.65390   0.42261   0.12282   0.01267  Uiso   1.00
C16    C     0.74950   0.41773   0.20126   0.01267  Uiso   1.00
C17    C     0.53630   0.54225   0.04230   0.01267  Uiso   1.00
C18    C     0.26450   0.43867   0.40812   0.01267  Uiso   1.00
C19    C     0.42040   0.38971   0.35508   0.01267  Uiso   1.00
C20    C     0.49040   0.30717   0.39304   0.01267  Uiso   1.00
C21    C     0.37830   0.20782   0.37116   0.01267  Uiso   1.00
C22    C     0.42900   0.12966   0.41750   0.01267  Uiso   1.00
C23    C     0.29920   0.66948   0.28158   0.01267  Uiso   1.00
C24    C     0.20580   0.58186   0.20592   0.01267  Uiso   1.00
C25    C     0.13170   0.59514   0.12348   0.01267  Uiso   1.00
C26    C     0.15390   0.70021   0.12282   0.01267  Uiso   1.00
C27    C     0.24950   0.78353   0.20126   0.01267  Uiso   1.00
C28    C     0.03630   0.50005   0.04230   0.01267  Uiso   1.00
C29    C     0.76450   0.96945   0.40812   0.01267  Uiso   1.00
C30    C     0.92040   0.96537   0.35508   0.01267  Uiso   1.00
C31    C     0.99040   0.08587   0.39304   0.01267  Uiso   1.00
C32    C     0.87830   0.16334   0.37116   0.01267  Uiso   1.00
C33    C     0.92900   0.28784   0.41750   0.01267  Uiso   1.00
C34    C     0.20080   0.38790   0.71842   0.01267  Uiso   1.00
C35    C     0.29420   0.37594   0.79408   0.01267  Uiso   1.00
C36    C     0.36830   0.47166   0.87652   0.01267  Uiso   1.00
C37    C     0.34610   0.57739   0.87718   0.01267  Uiso   1.00
C38    C     0.25050   0.58227   0.79874   0.01267  Uiso   1.00
C39    C     0.46370   0.45775   0.95770   0.01267  Uiso   1.00
C40    C     0.73550   0.56133   0.59188   0.01267  Uiso   1.00
C41    C     0.57960   0.61029   0.64492   0.01267  Uiso   1.00
C42    C     0.50960   0.69283   0.60696   0.01267  Uiso   1.00
C43    C     0.62170   0.79218   0.62884   0.01267  Uiso   1.00
C44    C     0.57100   0.87034   0.58250   0.01267  Uiso   1.00
N1     N     0.67640   0.23040   0.72034   0.01267  Uiso   1.00
N2     N     0.82360   0.51006   0.27966   0.01267  Uiso   1.00
N3     N     0.32360   0.76960   0.27966   0.01267  Uiso   1.00
N4     N     0.17640   0.48994   0.72034   0.01267  Uiso   1.00
O1     O     0.34118   0.10147   0.64834   0.01267  Uiso   1.00
O2     O     0.25047   0.95612   0.49524   0.01267  Uiso   1.00
O3     O     0.09630   0.66364   0.63976   0.01267  Uiso   1.00
O4     O     0.01100   0.66433   0.48904   0.01267  Uiso   1.00
O5     O     0.15882   0.45313   0.35166   0.01267  Uiso   1.00
O6     O     0.24953   0.46088   0.50476   0.01267  Uiso   1.00
O7     O     0.40370   0.02388   0.36024   0.01267  Uiso   1.00
O8     O     0.48900   0.17529   0.51096   0.01267  Uiso   1.00
O9     O     0.65882   0.89853   0.35166   0.01267  Uiso   1.00
O10    O     0.74953   0.04388   0.50476   0.01267  Uiso   1.00
O11    O     0.90370   0.33636   0.36024   0.01267  Uiso   1.00
O12    O     0.98900   0.33567   0.51096   0.01267  Uiso   1.00
O13    O     0.84118   0.54687   0.64834   0.01267  Uiso   1.00
O14    O     0.75047   0.53912   0.49524   0.01267  Uiso   1.00
O15    O     0.59630   0.97612   0.63976   0.01267  Uiso   1.00
O16    O     0.51100   0.82471   0.48904   0.01267  Uiso   1.00
