data_image0
_cell_length_a       8.3328
_cell_length_b       17.5089
_cell_length_c       7.9384
_cell_angle_alpha    90
_cell_angle_beta     109.247
_cell_angle_gamma    90

_symmetry_space_group_name_H-M    "P 1"
_symmetry_int_tables_number       1

loop_
  _symmetry_equiv_pos_as_xyz
  'x, y, z'

loop_
  _atom_site_label
  _atom_site_occupancy
  _atom_site_fract_x
  _atom_site_fract_y
  _atom_site_fract_z
  _atom_site_thermal_displace_type
  _atom_site_B_iso_or_equiv
  _atom_site_type_symbol
  Sm1      1.0000 0.28088  0.52218  0.25680  Biso   1.000  Sm
  N1       1.0000 0.96800  0.76510  0.11000  Biso   1.000  N
  N2       1.0000 0.87630  0.82910  0.07790  Biso   1.000  N
  H1       1.0000 0.90930  0.87260  0.12780  Biso   1.000  H
  O1       1.0000 0.08520  0.61860  0.12480  Biso   1.000  O
  O2       1.0000 0.84820  0.58110  0.92290  Biso   1.000  O
  O3       1.0000 0.61500  0.93590  0.99780  Biso   1.000  O
  O4       1.0000 0.46920  0.86820  0.76340  Biso   1.000  O
  O5       1.0000 0.52130  0.45800  0.20460  Biso   1.000  O
  O6       1.0000 0.70010  0.45710  0.04710  Biso   1.000  O
  C1       1.0000 0.93890  0.62970  0.01760  Biso   1.000  C
  C2       1.0000 0.87290  0.70850  0.00980  Biso   1.000  C
  C3       1.0000 0.71520  0.73900  0.90990  Biso   1.000  C
  H2       1.0000 0.62420  0.71310  0.83010  Biso   1.000  H
  C4       1.0000 0.72270  0.81480  0.95410  Biso   1.000  C
  C5       1.0000 0.59370  0.87650  0.90220  Biso   1.000  C
  C6       1.0000 0.56520  0.47490  0.07200  Biso   1.000  C
  Sm2      1.0000 0.71912  0.02218  0.24320  Biso   1.000  Sm
  N3       1.0000 0.03200  0.26510  0.39000  Biso   1.000  N
  N4       1.0000 0.12370  0.32910  0.42210  Biso   1.000  N
  H3       1.0000 0.09070  0.37260  0.37220  Biso   1.000  H
  O7       1.0000 0.91480  0.11860  0.37520  Biso   1.000  O
  O8       1.0000 0.15180  0.08110  0.57710  Biso   1.000  O
  O9       1.0000 0.38500  0.43590  0.50220  Biso   1.000  O
  O10      1.0000 0.53080  0.36820  0.73660  Biso   1.000  O
  O11      1.0000 0.47870  0.95800  0.29540  Biso   1.000  O
  O12      1.0000 0.29990  0.95710  0.45290  Biso   1.000  O
  C7       1.0000 0.06110  0.12970  0.48240  Biso   1.000  C
  C8       1.0000 0.12710  0.20850  0.49020  Biso   1.000  C
  C9       1.0000 0.28480  0.23900  0.59010  Biso   1.000  C
  H4       1.0000 0.37580  0.21310  0.66990  Biso   1.000  H
  C10      1.0000 0.27730  0.31480  0.54590  Biso   1.000  C
  C11      1.0000 0.40630  0.37650  0.59780  Biso   1.000  C
  C12      1.0000 0.43480  0.97490  0.42800  Biso   1.000  C
  Sm3      1.0000 0.71912  0.47782  0.74320  Biso   1.000  Sm
  N5       1.0000 0.03200  0.23490  0.89000  Biso   1.000  N
  N6       1.0000 0.12370  0.17090  0.92210  Biso   1.000  N
  H5       1.0000 0.09070  0.12740  0.87220  Biso   1.000  H
  O13      1.0000 0.91480  0.38140  0.87520  Biso   1.000  O
  O14      1.0000 0.15180  0.41890  0.07710  Biso   1.000  O
  O15      1.0000 0.38500  0.06410  0.00220  Biso   1.000  O
  O16      1.0000 0.53080  0.13180  0.23660  Biso   1.000  O
  O17      1.0000 0.47870  0.54200  0.79540  Biso   1.000  O
  O18      1.0000 0.29990  0.54290  0.95290  Biso   1.000  O
  C13      1.0000 0.06110  0.37030  0.98240  Biso   1.000  C
  C14      1.0000 0.12710  0.29150  0.99020  Biso   1.000  C
  C15      1.0000 0.28480  0.26100  0.09010  Biso   1.000  C
  H6       1.0000 0.37580  0.28690  0.16990  Biso   1.000  H
  C16      1.0000 0.27730  0.18520  0.04590  Biso   1.000  C
  C17      1.0000 0.40630  0.12350  0.09780  Biso   1.000  C
  C18      1.0000 0.43480  0.52510  0.92800  Biso   1.000  C
  Sm4      1.0000 0.28088  0.97782  0.75680  Biso   1.000  Sm
  N7       1.0000 0.96800  0.73490  0.61000  Biso   1.000  N
  N8       1.0000 0.87630  0.67090  0.57790  Biso   1.000  N
  H7       1.0000 0.90930  0.62740  0.62780  Biso   1.000  H
  O19      1.0000 0.08520  0.88140  0.62480  Biso   1.000  O
  O20      1.0000 0.84820  0.91890  0.42290  Biso   1.000  O
  O21      1.0000 0.61500  0.56410  0.49780  Biso   1.000  O
  O22      1.0000 0.46920  0.63180  0.26340  Biso   1.000  O
  O23      1.0000 0.52130  0.04200  0.70460  Biso   1.000  O
  O24      1.0000 0.70010  0.04290  0.54710  Biso   1.000  O
  C19      1.0000 0.93890  0.87030  0.51760  Biso   1.000  C
  C20      1.0000 0.87290  0.79150  0.50980  Biso   1.000  C
  C21      1.0000 0.71520  0.76100  0.40990  Biso   1.000  C
  H8       1.0000 0.62420  0.78690  0.33010  Biso   1.000  H
  C22      1.0000 0.72270  0.68520  0.45410  Biso   1.000  C
  C23      1.0000 0.59370  0.62350  0.40220  Biso   1.000  C
  C24      1.0000 0.56520  0.02510  0.57200  Biso   1.000  C
