data_image0
_cell_length_a       7.859
_cell_length_b       13.253
_cell_length_c       17.452
_cell_angle_alpha    90
_cell_angle_beta     105.258
_cell_angle_gamma    90

_symmetry_space_group_name_H-M    "P 1"
_symmetry_int_tables_number       1

loop_
  _symmetry_equiv_pos_as_xyz
  'x, y, z'

loop_
  _atom_site_label
  _atom_site_occupancy
  _atom_site_fract_x
  _atom_site_fract_y
  _atom_site_fract_z
  _atom_site_thermal_displace_type
  _atom_site_B_iso_or_equiv
  _atom_site_type_symbol
  Cu1      1.0000 0.72744  0.60358  0.55339  Biso   1.000  Cu
  O1       1.0000 0.83000  0.50350  0.49760  Biso   1.000  O
  H1       1.0000 0.74620  0.44940  0.47570  Biso   1.000  H
  N1       1.0000 0.69090  0.69240  0.45550  Biso   1.000  N
  C1       1.0000 0.77530  0.42620  0.65970  Biso   1.000  C
  Cu2      1.0000 0.95180  0.55050  0.42103  Biso   1.000  Cu
  O2       1.0000 0.91610  0.39380  0.64770  Biso   1.000  O
  N2       1.0000 0.80890  0.68040  0.40970  Biso   1.000  N
  C2       1.0000 0.70840  0.36760  0.71920  Biso   1.000  C
  O3       1.0000 0.69000  0.50130  0.62860  Biso   1.000  O
  N3       1.0000 0.65760  0.81670  0.37320  Biso   1.000  N
  C3       1.0000 0.54770  0.39240  0.73400  Biso   1.000  C
  H2       1.0000 0.48120  0.44570  0.70700  Biso   1.000  H
  O4       1.0000 0.00610  0.17700  0.90710  Biso   1.000  O
  N4       1.0000 0.59800  0.90600  0.33360  Biso   1.000  N
  H3       1.0000 0.51950  0.94180  0.34700  Biso   1.000  H
  H4       1.0000 0.64150  0.92580  0.29570  Biso   1.000  H
  C4       1.0000 0.48730  0.33770  0.78880  Biso   1.000  C
  H5       1.0000 0.37900  0.35370  0.79780  Biso   1.000  H
  O5       1.0000 0.82160  0.06070  0.83930  Biso   1.000  O
  C5       1.0000 0.58700  0.25820  0.83120  Biso   1.000  C
  O6       1.0000 0.62710  0.16050  0.94880  Biso   1.000  O
  C6       1.0000 0.52140  0.20230  0.89240  Biso   1.000  C
  O7       1.0000 0.35510  0.20390  0.88380  Biso   1.000  O
  C7       1.0000 0.74750  0.23490  0.81650  Biso   1.000  C
  C8       1.0000 0.86750  0.15110  0.85890  Biso   1.000  C
  C9       1.0000 0.80720  0.28860  0.76040  Biso   1.000  C
  H6       1.0000 0.91410  0.27160  0.75040  Biso   1.000  H
  C10      1.0000 0.78760  0.75780  0.36190  Biso   1.000  C
  H7       1.0000 0.85280  0.77020  0.32550  Biso   1.000  H
  C11      1.0000 0.60220  0.77570  0.43310  Biso   1.000  C
  H8       1.0000 0.51580  0.80220  0.45490  Biso   1.000  H
  Cu3      1.0000 0.27256  0.10358  0.94661  Biso   1.000  Cu
  O8       1.0000 0.17000  0.00350  0.00240  Biso   1.000  O
  H9       1.0000 0.25380  0.94940  0.02430  Biso   1.000  H
  N5       1.0000 0.30910  0.19240  0.04450  Biso   1.000  N
  C12      1.0000 0.22470  0.92620  0.84030  Biso   1.000  C
  Cu4      1.0000 0.04820  0.05050  0.07897  Biso   1.000  Cu
  O9       1.0000 0.08390  0.89380  0.85230  Biso   1.000  O
  N6       1.0000 0.19110  0.18040  0.09030  Biso   1.000  N
  C13      1.0000 0.29160  0.86760  0.78080  Biso   1.000  C
  O10      1.0000 0.31000  0.00130  0.87140  Biso   1.000  O
  N7       1.0000 0.34240  0.31670  0.12680  Biso   1.000  N
  C14      1.0000 0.45230  0.89240  0.76600  Biso   1.000  C
  H10      1.0000 0.51880  0.94570  0.79300  Biso   1.000  H
  O11      1.0000 0.99390  0.67700  0.59290  Biso   1.000  O
  N8       1.0000 0.40200  0.40600  0.16640  Biso   1.000  N
  H11      1.0000 0.48050  0.44180  0.15300  Biso   1.000  H
  H12      1.0000 0.35850  0.42580  0.20430  Biso   1.000  H
  C15      1.0000 0.51270  0.83770  0.71120  Biso   1.000  C
  H13      1.0000 0.62100  0.85370  0.70220  Biso   1.000  H
  O12      1.0000 0.17840  0.56070  0.66070  Biso   1.000  O
  C16      1.0000 0.41300  0.75820  0.66880  Biso   1.000  C
  O13      1.0000 0.37290  0.66050  0.55120  Biso   1.000  O
  C17      1.0000 0.47860  0.70230  0.60760  Biso   1.000  C
  O14      1.0000 0.64490  0.70390  0.61620  Biso   1.000  O
  C18      1.0000 0.25250  0.73490  0.68350  Biso   1.000  C
  C19      1.0000 0.13250  0.65110  0.64110  Biso   1.000  C
  C20      1.0000 0.19280  0.78860  0.73960  Biso   1.000  C
  H14      1.0000 0.08590  0.77160  0.74960  Biso   1.000  H
  C21      1.0000 0.21240  0.25780  0.13810  Biso   1.000  C
  H15      1.0000 0.14720  0.27020  0.17450  Biso   1.000  H
  C22      1.0000 0.39780  0.27570  0.06690  Biso   1.000  C
  H16      1.0000 0.48420  0.30220  0.04510  Biso   1.000  H
  Cu5      1.0000 0.27256  0.39642  0.44661  Biso   1.000  Cu
  O15      1.0000 0.17000  0.49650  0.50240  Biso   1.000  O
  H17      1.0000 0.25380  0.55060  0.52430  Biso   1.000  H
  N9       1.0000 0.30910  0.30760  0.54450  Biso   1.000  N
  C23      1.0000 0.22470  0.57380  0.34030  Biso   1.000  C
  Cu6      1.0000 0.04820  0.44950  0.57897  Biso   1.000  Cu
  O16      1.0000 0.08390  0.60620  0.35230  Biso   1.000  O
  N10      1.0000 0.19110  0.31960  0.59030  Biso   1.000  N
  C24      1.0000 0.29160  0.63240  0.28080  Biso   1.000  C
  O17      1.0000 0.31000  0.49870  0.37140  Biso   1.000  O
  N11      1.0000 0.34240  0.18330  0.62680  Biso   1.000  N
  C25      1.0000 0.45230  0.60760  0.26600  Biso   1.000  C
  H18      1.0000 0.51880  0.55430  0.29300  Biso   1.000  H
  O18      1.0000 0.99390  0.82300  0.09290  Biso   1.000  O
  N12      1.0000 0.40200  0.09400  0.66640  Biso   1.000  N
  H19      1.0000 0.48050  0.05820  0.65300  Biso   1.000  H
  H20      1.0000 0.35850  0.07420  0.70430  Biso   1.000  H
  C26      1.0000 0.51270  0.66230  0.21120  Biso   1.000  C
  H21      1.0000 0.62100  0.64630  0.20220  Biso   1.000  H
  O19      1.0000 0.17840  0.93930  0.16070  Biso   1.000  O
  C27      1.0000 0.41300  0.74180  0.16880  Biso   1.000  C
  O20      1.0000 0.37290  0.83950  0.05120  Biso   1.000  O
  C28      1.0000 0.47860  0.79770  0.10760  Biso   1.000  C
  O21      1.0000 0.64490  0.79610  0.11620  Biso   1.000  O
  C29      1.0000 0.25250  0.76510  0.18350  Biso   1.000  C
  C30      1.0000 0.13250  0.84890  0.14110  Biso   1.000  C
  C31      1.0000 0.19280  0.71140  0.23960  Biso   1.000  C
  H22      1.0000 0.08590  0.72840  0.24960  Biso   1.000  H
  C32      1.0000 0.21240  0.24220  0.63810  Biso   1.000  C
  H23      1.0000 0.14720  0.22980  0.67450  Biso   1.000  H
  C33      1.0000 0.39780  0.22430  0.56690  Biso   1.000  C
  H24      1.0000 0.48420  0.19780  0.54510  Biso   1.000  H
  Cu7      1.0000 0.72744  0.89642  0.05339  Biso   1.000  Cu
  O22      1.0000 0.83000  0.99650  0.99760  Biso   1.000  O
  H25      1.0000 0.74620  0.05060  0.97570  Biso   1.000  H
  N13      1.0000 0.69090  0.80760  0.95550  Biso   1.000  N
  C34      1.0000 0.77530  0.07380  0.15970  Biso   1.000  C
  Cu8      1.0000 0.95180  0.94950  0.92103  Biso   1.000  Cu
  O23      1.0000 0.91610  0.10620  0.14770  Biso   1.000  O
  N14      1.0000 0.80890  0.81960  0.90970  Biso   1.000  N
  C35      1.0000 0.70840  0.13240  0.21920  Biso   1.000  C
  O24      1.0000 0.69000  0.99870  0.12860  Biso   1.000  O
  N15      1.0000 0.65760  0.68330  0.87320  Biso   1.000  N
  C36      1.0000 0.54770  0.10760  0.23400  Biso   1.000  C
  H26      1.0000 0.48120  0.05430  0.20700  Biso   1.000  H
  O25      1.0000 0.00610  0.32300  0.40710  Biso   1.000  O
  N16      1.0000 0.59800  0.59400  0.83360  Biso   1.000  N
  H27      1.0000 0.51950  0.55820  0.84700  Biso   1.000  H
  H28      1.0000 0.64150  0.57420  0.79570  Biso   1.000  H
  C37      1.0000 0.48730  0.16230  0.28880  Biso   1.000  C
  H29      1.0000 0.37900  0.14630  0.29780  Biso   1.000  H
  O26      1.0000 0.82160  0.43930  0.33930  Biso   1.000  O
  C38      1.0000 0.58700  0.24180  0.33120  Biso   1.000  C
  O27      1.0000 0.62710  0.33950  0.44880  Biso   1.000  O
  C39      1.0000 0.52140  0.29770  0.39240  Biso   1.000  C
  O28      1.0000 0.35510  0.29610  0.38380  Biso   1.000  O
  C40      1.0000 0.74750  0.26510  0.31650  Biso   1.000  C
  C41      1.0000 0.86750  0.34890  0.35890  Biso   1.000  C
  C42      1.0000 0.80720  0.21140  0.26040  Biso   1.000  C
  H30      1.0000 0.91410  0.22840  0.25040  Biso   1.000  H
  C43      1.0000 0.78760  0.74220  0.86190  Biso   1.000  C
  H31      1.0000 0.85280  0.72980  0.82550  Biso   1.000  H
  C44      1.0000 0.60220  0.72430  0.93310  Biso   1.000  C
  H32      1.0000 0.51580  0.69780  0.95490  Biso   1.000  H
