data_image0
_cell_length_a       8.2983
_cell_length_b       17.3652
_cell_length_c       7.8347
_cell_angle_alpha    90
_cell_angle_beta     108.51
_cell_angle_gamma    90

_symmetry_space_group_name_H-M    "P 1"
_symmetry_int_tables_number       1

loop_
  _symmetry_equiv_pos_as_xyz
  'x, y, z'

loop_
  _atom_site_label
  _atom_site_occupancy
  _atom_site_fract_x
  _atom_site_fract_y
  _atom_site_fract_z
  _atom_site_thermal_displace_type
  _atom_site_B_iso_or_equiv
  _atom_site_type_symbol
  Dy1      1.0000 0.22284  0.47759  0.24840  Biso   1.000  Dy
  N1       1.0000 0.52940  0.23480  0.39100  Biso   1.000  N
  H1       1.0000 0.42680  0.23970  0.32020  Biso   1.000  H
  N2       1.0000 0.61830  0.16980  0.42180  Biso   1.000  N
  O1       1.0000 0.41150  0.38220  0.37800  Biso   1.000  O
  O2       1.0000 0.65410  0.42090  0.57270  Biso   1.000  O
  O3       1.0000 0.02650  0.12720  0.72750  Biso   1.000  O
  O4       1.0000 0.87230  0.06170  0.49180  Biso   1.000  O
  O5       1.0000 0.98310  0.54180  0.29370  Biso   1.000  O
  O6       1.0000 0.80300  0.54580  0.45390  Biso   1.000  O
  C1       1.0000 0.56160  0.37160  0.48220  Biso   1.000  C
  C2       1.0000 0.62560  0.29150  0.48820  Biso   1.000  C
  C3       1.0000 0.78180  0.26130  0.58650  Biso   1.000  C
  H2       1.0000 0.87300  0.28770  0.66490  Biso   1.000  H
  C4       1.0000 0.77430  0.18380  0.54430  Biso   1.000  C
  C5       1.0000 0.89900  0.12120  0.59000  Biso   1.000  C
  C6       1.0000 0.93820  0.52590  0.42810  Biso   1.000  C
  Dy2      1.0000 0.77716  0.97759  0.25160  Biso   1.000  Dy
  N3       1.0000 0.47060  0.73480  0.10900  Biso   1.000  N
  H3       1.0000 0.57320  0.73970  0.17980  Biso   1.000  H
  N4       1.0000 0.38170  0.66980  0.07820  Biso   1.000  N
  O7       1.0000 0.58850  0.88220  0.12200  Biso   1.000  O
  O8       1.0000 0.34590  0.92090  0.92730  Biso   1.000  O
  O9       1.0000 0.97350  0.62720  0.77250  Biso   1.000  O
  O10      1.0000 0.12770  0.56170  0.00820  Biso   1.000  O
  O11      1.0000 0.01690  0.04180  0.20630  Biso   1.000  O
  O12      1.0000 0.19700  0.04580  0.04610  Biso   1.000  O
  C7       1.0000 0.43840  0.87160  0.01780  Biso   1.000  C
  C8       1.0000 0.37440  0.79150  0.01180  Biso   1.000  C
  C9       1.0000 0.21820  0.76130  0.91350  Biso   1.000  C
  H4       1.0000 0.12700  0.78770  0.83510  Biso   1.000  H
  C10      1.0000 0.22570  0.68380  0.95570  Biso   1.000  C
  C11      1.0000 0.10100  0.62120  0.91000  Biso   1.000  C
  C12      1.0000 0.06180  0.02590  0.07190  Biso   1.000  C
  Dy3      1.0000 0.77716  0.52241  0.75160  Biso   1.000  Dy
  N5       1.0000 0.47060  0.76520  0.60900  Biso   1.000  N
  H5       1.0000 0.57320  0.76030  0.67980  Biso   1.000  H
  N6       1.0000 0.38170  0.83020  0.57820  Biso   1.000  N
  O13      1.0000 0.58850  0.61780  0.62200  Biso   1.000  O
  O14      1.0000 0.34590  0.57910  0.42730  Biso   1.000  O
  O15      1.0000 0.97350  0.87280  0.27250  Biso   1.000  O
  O16      1.0000 0.12770  0.93830  0.50820  Biso   1.000  O
  O17      1.0000 0.01690  0.45820  0.70630  Biso   1.000  O
  O18      1.0000 0.19700  0.45420  0.54610  Biso   1.000  O
  C13      1.0000 0.43840  0.62840  0.51780  Biso   1.000  C
  C14      1.0000 0.37440  0.70850  0.51180  Biso   1.000  C
  C15      1.0000 0.21820  0.73870  0.41350  Biso   1.000  C
  H6       1.0000 0.12700  0.71230  0.33510  Biso   1.000  H
  C16      1.0000 0.22570  0.81620  0.45570  Biso   1.000  C
  C17      1.0000 0.10100  0.87880  0.41000  Biso   1.000  C
  C18      1.0000 0.06180  0.47410  0.57190  Biso   1.000  C
  Dy4      1.0000 0.22284  0.02241  0.74840  Biso   1.000  Dy
  N7       1.0000 0.52940  0.26520  0.89100  Biso   1.000  N
  H7       1.0000 0.42680  0.26030  0.82020  Biso   1.000  H
  N8       1.0000 0.61830  0.33020  0.92180  Biso   1.000  N
  O19      1.0000 0.41150  0.11780  0.87800  Biso   1.000  O
  O20      1.0000 0.65410  0.07910  0.07270  Biso   1.000  O
  O21      1.0000 0.02650  0.37280  0.22750  Biso   1.000  O
  O22      1.0000 0.87230  0.43830  0.99180  Biso   1.000  O
  O23      1.0000 0.98310  0.95820  0.79370  Biso   1.000  O
  O24      1.0000 0.80300  0.95420  0.95390  Biso   1.000  O
  C19      1.0000 0.56160  0.12840  0.98220  Biso   1.000  C
  C20      1.0000 0.62560  0.20850  0.98820  Biso   1.000  C
  C21      1.0000 0.78180  0.23870  0.08650  Biso   1.000  C
  H8       1.0000 0.87300  0.21230  0.16490  Biso   1.000  H
  C22      1.0000 0.77430  0.31620  0.04430  Biso   1.000  C
  C23      1.0000 0.89900  0.37880  0.09000  Biso   1.000  C
  C24      1.0000 0.93820  0.97410  0.92810  Biso   1.000  C
