data_image0
_cell_length_a       24.361
_cell_length_b       15.388
_cell_length_c       11.609
_cell_angle_alpha    90
_cell_angle_beta     118.46
_cell_angle_gamma    90

_symmetry_space_group_name_H-M    "P 1"
_symmetry_int_tables_number       1

loop_
  _symmetry_equiv_pos_as_xyz
  'x, y, z'

loop_
  _atom_site_label
  _atom_site_occupancy
  _atom_site_fract_x
  _atom_site_fract_y
  _atom_site_fract_z
  _atom_site_thermal_displace_type
  _atom_site_B_iso_or_equiv
  _atom_site_type_symbol
  O1       1.0000 0.00840  0.09290  0.66650  Biso   1.000  O
  C1       1.0000 0.86260  0.27540  0.75400  Biso   1.000  C
  H1       1.0000 0.84210  0.30870  0.78860  Biso   1.000  H
  O2       1.0000 0.01690  0.19430  0.85750  Biso   1.000  O
  H2       1.0000 0.03160  0.16250  0.82260  Biso   1.000  H
  C2       1.0000 0.95410  0.20420  0.77610  Biso   1.000  C
  C3       1.0000 0.82790  0.24140  0.62650  Biso   1.000  C
  N1       1.0000 0.76350  0.26170  0.55910  Biso   1.000  N
  C4       1.0000 0.92050  0.17090  0.65050  Biso   1.000  C
  C5       1.0000 0.85820  0.18890  0.57790  Biso   1.000  C
  H3       1.0000 0.83590  0.16550  0.49430  Biso   1.000  H
  C6       1.0000 0.95120  0.11390  0.59200  Biso   1.000  C
  C7       1.0000 0.92450  0.26160  0.82780  Biso   1.000  C
  H4       1.0000 0.94720  0.28820  0.90890  Biso   1.000  H
  O3       1.0000 0.91970  0.09120  0.47710  Biso   1.000  O
  O4       1.0000 0.50840  0.59290  0.66650  Biso   1.000  O
  C8       1.0000 0.36260  0.77540  0.75400  Biso   1.000  C
  H5       1.0000 0.34210  0.80870  0.78860  Biso   1.000  H
  O5       1.0000 0.51690  0.69430  0.85750  Biso   1.000  O
  H6       1.0000 0.53160  0.66250  0.82260  Biso   1.000  H
  C9       1.0000 0.45410  0.70420  0.77610  Biso   1.000  C
  C10      1.0000 0.32790  0.74140  0.62650  Biso   1.000  C
  N2       1.0000 0.26350  0.76170  0.55910  Biso   1.000  N
  C11      1.0000 0.42050  0.67090  0.65050  Biso   1.000  C
  C12      1.0000 0.35820  0.68890  0.57790  Biso   1.000  C
  H7       1.0000 0.33590  0.66550  0.49430  Biso   1.000  H
  C13      1.0000 0.45120  0.61390  0.59200  Biso   1.000  C
  C14      1.0000 0.42450  0.76160  0.82780  Biso   1.000  C
  H8       1.0000 0.44720  0.78820  0.90890  Biso   1.000  H
  O6       1.0000 0.41970  0.59120  0.47710  Biso   1.000  O
  O7       1.0000 0.99160  0.09290  0.33350  Biso   1.000  O
  C15      1.0000 0.13740  0.27540  0.24600  Biso   1.000  C
  H9       1.0000 0.15790  0.30870  0.21140  Biso   1.000  H
  O8       1.0000 0.98310  0.19430  0.14250  Biso   1.000  O
  H10      1.0000 0.96840  0.16250  0.17740  Biso   1.000  H
  C16      1.0000 0.04590  0.20420  0.22390  Biso   1.000  C
  C17      1.0000 0.17210  0.24140  0.37350  Biso   1.000  C
  N3       1.0000 0.23650  0.26170  0.44090  Biso   1.000  N
  C18      1.0000 0.07950  0.17090  0.34950  Biso   1.000  C
  C19      1.0000 0.14180  0.18890  0.42210  Biso   1.000  C
  H11      1.0000 0.16410  0.16550  0.50570  Biso   1.000  H
  C20      1.0000 0.04880  0.11390  0.40800  Biso   1.000  C
  C21      1.0000 0.07550  0.26160  0.17220  Biso   1.000  C
  H12      1.0000 0.05280  0.28820  0.09110  Biso   1.000  H
  O9       1.0000 0.08030  0.09120  0.52290  Biso   1.000  O
  O10      1.0000 0.49160  0.59290  0.33350  Biso   1.000  O
  C22      1.0000 0.63740  0.77540  0.24600  Biso   1.000  C
  H13      1.0000 0.65790  0.80870  0.21140  Biso   1.000  H
  O11      1.0000 0.48310  0.69430  0.14250  Biso   1.000  O
  H14      1.0000 0.46840  0.66250  0.17740  Biso   1.000  H
  C23      1.0000 0.54590  0.70420  0.22390  Biso   1.000  C
  C24      1.0000 0.67210  0.74140  0.37350  Biso   1.000  C
  N4       1.0000 0.73650  0.76170  0.44090  Biso   1.000  N
  C25      1.0000 0.57950  0.67090  0.34950  Biso   1.000  C
  C26      1.0000 0.64180  0.68890  0.42210  Biso   1.000  C
  H15      1.0000 0.66410  0.66550  0.50570  Biso   1.000  H
  C27      1.0000 0.54880  0.61390  0.40800  Biso   1.000  C
  C28      1.0000 0.57550  0.76160  0.17220  Biso   1.000  C
  H16      1.0000 0.55280  0.78820  0.09110  Biso   1.000  H
  O12      1.0000 0.58030  0.59120  0.52290  Biso   1.000  O
  O13      1.0000 0.99160  0.90710  0.33350  Biso   1.000  O
  C29      1.0000 0.13740  0.72460  0.24600  Biso   1.000  C
  H17      1.0000 0.15790  0.69130  0.21140  Biso   1.000  H
  O14      1.0000 0.98310  0.80570  0.14250  Biso   1.000  O
  H18      1.0000 0.96840  0.83750  0.17740  Biso   1.000  H
  C30      1.0000 0.04590  0.79580  0.22390  Biso   1.000  C
  C31      1.0000 0.17210  0.75860  0.37350  Biso   1.000  C
  N5       1.0000 0.23650  0.73830  0.44090  Biso   1.000  N
  C32      1.0000 0.07950  0.82910  0.34950  Biso   1.000  C
  C33      1.0000 0.14180  0.81110  0.42210  Biso   1.000  C
  H19      1.0000 0.16410  0.83450  0.50570  Biso   1.000  H
  C34      1.0000 0.04880  0.88610  0.40800  Biso   1.000  C
  C35      1.0000 0.07550  0.73840  0.17220  Biso   1.000  C
  H20      1.0000 0.05280  0.71180  0.09110  Biso   1.000  H
  O15      1.0000 0.08030  0.90880  0.52290  Biso   1.000  O
  O16      1.0000 0.49160  0.40710  0.33350  Biso   1.000  O
  C36      1.0000 0.63740  0.22460  0.24600  Biso   1.000  C
  H21      1.0000 0.65790  0.19130  0.21140  Biso   1.000  H
  O17      1.0000 0.48310  0.30570  0.14250  Biso   1.000  O
  H22      1.0000 0.46840  0.33750  0.17740  Biso   1.000  H
  C37      1.0000 0.54590  0.29580  0.22390  Biso   1.000  C
  C38      1.0000 0.67210  0.25860  0.37350  Biso   1.000  C
  N6       1.0000 0.73650  0.23830  0.44090  Biso   1.000  N
  C39      1.0000 0.57950  0.32910  0.34950  Biso   1.000  C
  C40      1.0000 0.64180  0.31110  0.42210  Biso   1.000  C
  H23      1.0000 0.66410  0.33450  0.50570  Biso   1.000  H
  C41      1.0000 0.54880  0.38610  0.40800  Biso   1.000  C
  C42      1.0000 0.57550  0.23840  0.17220  Biso   1.000  C
  H24      1.0000 0.55280  0.21180  0.09110  Biso   1.000  H
  O18      1.0000 0.58030  0.40880  0.52290  Biso   1.000  O
  O19      1.0000 0.00840  0.90710  0.66650  Biso   1.000  O
  C43      1.0000 0.86260  0.72460  0.75400  Biso   1.000  C
  H25      1.0000 0.84210  0.69130  0.78860  Biso   1.000  H
  O20      1.0000 0.01690  0.80570  0.85750  Biso   1.000  O
  H26      1.0000 0.03160  0.83750  0.82260  Biso   1.000  H
  C44      1.0000 0.95410  0.79580  0.77610  Biso   1.000  C
  C45      1.0000 0.82790  0.75860  0.62650  Biso   1.000  C
  N7       1.0000 0.76350  0.73830  0.55910  Biso   1.000  N
  C46      1.0000 0.92050  0.82910  0.65050  Biso   1.000  C
  C47      1.0000 0.85820  0.81110  0.57790  Biso   1.000  C
  H27      1.0000 0.83590  0.83450  0.49430  Biso   1.000  H
  C48      1.0000 0.95120  0.88610  0.59200  Biso   1.000  C
  C49      1.0000 0.92450  0.73840  0.82780  Biso   1.000  C
  H28      1.0000 0.94720  0.71180  0.90890  Biso   1.000  H
  O21      1.0000 0.91970  0.90880  0.47710  Biso   1.000  O
  O22      1.0000 0.50840  0.40710  0.66650  Biso   1.000  O
  C50      1.0000 0.36260  0.22460  0.75400  Biso   1.000  C
  H29      1.0000 0.34210  0.19130  0.78860  Biso   1.000  H
  O23      1.0000 0.51690  0.30570  0.85750  Biso   1.000  O
  H30      1.0000 0.53160  0.33750  0.82260  Biso   1.000  H
  C51      1.0000 0.45410  0.29580  0.77610  Biso   1.000  C
  C52      1.0000 0.32790  0.25860  0.62650  Biso   1.000  C
  N8       1.0000 0.26350  0.23830  0.55910  Biso   1.000  N
  C53      1.0000 0.42050  0.32910  0.65050  Biso   1.000  C
  C54      1.0000 0.35820  0.31110  0.57790  Biso   1.000  C
  H31      1.0000 0.33590  0.33450  0.49430  Biso   1.000  H
  C55      1.0000 0.45120  0.38610  0.59200  Biso   1.000  C
  C56      1.0000 0.42450  0.23840  0.82780  Biso   1.000  C
  H32      1.0000 0.44720  0.21180  0.90890  Biso   1.000  H
  O24      1.0000 0.41970  0.40880  0.47710  Biso   1.000  O
  Cd1      1.0000 0.09199  0.00000  0.69655  Biso   1.000  Cd
  O25      1.0000 0.19610  0.00000  0.72910  Biso   1.000  O
  N9       1.0000 0.47560  0.00000  0.00990  Biso   1.000  N
  C57      1.0000 0.29700  0.00000  0.68370  Biso   1.000  C
  O26      1.0000 0.26050  0.00000  0.94720  Biso   1.000  O
  C58      1.0000 0.34810  0.00000  0.65800  Biso   1.000  C
  H33      1.0000 0.34220  0.00000  0.57260  Biso   1.000  H
  C59      1.0000 0.41690  0.00000  0.89200  Biso   1.000  C
  C60      1.0000 0.40700  0.00000  0.76370  Biso   1.000  C
  H34      1.0000 0.44140  0.00000  0.74910  Biso   1.000  H
  C61      1.0000 0.25200  0.00000  0.83690  Biso   1.000  C
  C62      1.0000 0.36650  0.00000  0.91490  Biso   1.000  C
  H35      1.0000 0.37270  0.00000  0.00040  Biso   1.000  H
  C63      1.0000 0.30530  0.00000  0.80910  Biso   1.000  C
  O27      1.0000 0.23800  0.00000  0.57740  Biso   1.000  O
  H36      1.0000 0.21190  0.00000  0.60300  Biso   1.000  H
  Cd2      1.0000 0.59199  0.50000  0.69655  Biso   1.000  Cd
  O28      1.0000 0.69610  0.50000  0.72910  Biso   1.000  O
  N10      1.0000 0.97560  0.50000  0.00990  Biso   1.000  N
  C64      1.0000 0.79700  0.50000  0.68370  Biso   1.000  C
  O29      1.0000 0.76050  0.50000  0.94720  Biso   1.000  O
  C65      1.0000 0.84810  0.50000  0.65800  Biso   1.000  C
  H37      1.0000 0.84220  0.50000  0.57260  Biso   1.000  H
  C66      1.0000 0.91690  0.50000  0.89200  Biso   1.000  C
  C67      1.0000 0.90700  0.50000  0.76370  Biso   1.000  C
  H38      1.0000 0.94140  0.50000  0.74910  Biso   1.000  H
  C68      1.0000 0.75200  0.50000  0.83690  Biso   1.000  C
  C69      1.0000 0.86650  0.50000  0.91490  Biso   1.000  C
  H39      1.0000 0.87270  0.50000  0.00040  Biso   1.000  H
  C70      1.0000 0.80530  0.50000  0.80910  Biso   1.000  C
  O30      1.0000 0.73800  0.50000  0.57740  Biso   1.000  O
  H40      1.0000 0.71190  0.50000  0.60300  Biso   1.000  H
  Cd3      1.0000 0.90801  0.00000  0.30345  Biso   1.000  Cd
  O31      1.0000 0.80390  0.00000  0.27090  Biso   1.000  O
  N11      1.0000 0.52440  0.00000  0.99010  Biso   1.000  N
  C71      1.0000 0.70300  0.00000  0.31630  Biso   1.000  C
  O32      1.0000 0.73950  0.00000  0.05280  Biso   1.000  O
  C72      1.0000 0.65190  0.00000  0.34200  Biso   1.000  C
  H41      1.0000 0.65780  0.00000  0.42740  Biso   1.000  H
  C73      1.0000 0.58310  0.00000  0.10800  Biso   1.000  C
  C74      1.0000 0.59300  0.00000  0.23630  Biso   1.000  C
  H42      1.0000 0.55860  0.00000  0.25090  Biso   1.000  H
  C75      1.0000 0.74800  0.00000  0.16310  Biso   1.000  C
  C76      1.0000 0.63350  0.00000  0.08510  Biso   1.000  C
  H43      1.0000 0.62730  0.00000  0.99960  Biso   1.000  H
  C77      1.0000 0.69470  0.00000  0.19090  Biso   1.000  C
  O33      1.0000 0.76200  0.00000  0.42260  Biso   1.000  O
  H44      1.0000 0.78810  0.00000  0.39700  Biso   1.000  H
  Cd4      1.0000 0.40801  0.50000  0.30345  Biso   1.000  Cd
  O34      1.0000 0.30390  0.50000  0.27090  Biso   1.000  O
  N12      1.0000 0.02440  0.50000  0.99010  Biso   1.000  N
  C78      1.0000 0.20300  0.50000  0.31630  Biso   1.000  C
  O35      1.0000 0.23950  0.50000  0.05280  Biso   1.000  O
  C79      1.0000 0.15190  0.50000  0.34200  Biso   1.000  C
  H45      1.0000 0.15780  0.50000  0.42740  Biso   1.000  H
  C80      1.0000 0.08310  0.50000  0.10800  Biso   1.000  C
  C81      1.0000 0.09300  0.50000  0.23630  Biso   1.000  C
  H46      1.0000 0.05860  0.50000  0.25090  Biso   1.000  H
  C82      1.0000 0.24800  0.50000  0.16310  Biso   1.000  C
  C83      1.0000 0.13350  0.50000  0.08510  Biso   1.000  C
  H47      1.0000 0.12730  0.50000  0.99960  Biso   1.000  H
  C84      1.0000 0.19470  0.50000  0.19090  Biso   1.000  C
  O36      1.0000 0.26200  0.50000  0.42260  Biso   1.000  O
  H48      1.0000 0.28810  0.50000  0.39700  Biso   1.000  H
