data_image0
_cell_length_a       10.602
_cell_length_b       11.33
_cell_length_c       12.446
_cell_angle_alpha    86.27
_cell_angle_beta     82.02
_cell_angle_gamma    89.22

_symmetry_space_group_name_H-M    "P 1"
_symmetry_int_tables_number       1

loop_
  _symmetry_equiv_pos_as_xyz
  'x, y, z'

loop_
  _atom_site_label
  _atom_site_occupancy
  _atom_site_fract_x
  _atom_site_fract_y
  _atom_site_fract_z
  _atom_site_thermal_displace_type
  _atom_site_B_iso_or_equiv
  _atom_site_type_symbol
  Gd1      1.0000 0.42748  0.98598  0.26144  Biso   1.000  Gd
  Zn1      1.0000 0.63184  0.33770  0.29809  Biso   1.000  Zn
  O1       1.0000 0.53420  0.08880  0.09370  Biso   1.000  O
  O2       1.0000 0.55300  0.18390  0.24000  Biso   1.000  O
  O3       1.0000 0.19730  0.99880  0.33540  Biso   1.000  O
  O4       1.0000 0.27590  0.14200  0.21750  Biso   1.000  O
  O5       1.0000 0.41740  0.74910  0.54270  Biso   1.000  O
  O6       1.0000 0.70050  0.50260  0.32490  Biso   1.000  O
  O7       1.0000 0.69400  0.11340  0.86120  Biso   1.000  O
  O8       1.0000 0.39200  0.82020  0.37690  Biso   1.000  O
  O9       1.0000 0.49800  0.17890  0.85840  Biso   1.000  O
  O10      1.0000 0.64160  0.68250  0.37660  Biso   1.000  O
  N1       1.0000 0.45970  0.43460  0.33540  Biso   1.000  N
  N2       1.0000 0.81300  0.25700  0.29450  Biso   1.000  N
  N3       1.0000 0.64770  0.37540  0.12270  Biso   1.000  N
  C1       1.0000 0.47890  0.54290  0.36820  Biso   1.000  C
  C2       1.0000 0.56630  0.17770  0.13700  Biso   1.000  C
  C3       1.0000 0.39990  0.73700  0.44640  Biso   1.000  C
  C4       1.0000 0.61860  0.58040  0.35610  Biso   1.000  C
  C5       1.0000 0.37890  0.61470  0.41140  Biso   1.000  C
  C6       1.0000 0.61870  0.28380  0.06740  Biso   1.000  C
  C7       1.0000 0.18250  0.09340  0.27930  Biso   1.000  C
  C8       1.0000 0.34000  0.39440  0.34290  Biso   1.000  C
  H1       1.0000 0.32640  0.32000  0.31930  Biso   1.000  H
  C9       1.0000 0.60460  0.18490  0.88950  Biso   1.000  C
  C10      1.0000 0.25600  0.57110  0.41910  Biso   1.000  C
  H2       1.0000 0.18700  0.61650  0.44750  Biso   1.000  H
  C11      1.0000 0.05330  0.15050  0.28420  Biso   1.000  C
  C12      1.0000 0.23650  0.46070  0.38490  Biso   1.000  C
  H3       1.0000 0.15450  0.43090  0.39000  Biso   1.000  H
  C13      1.0000 0.63240  0.28750  0.95440  Biso   1.000  C
  C14      1.0000 0.03510  0.25680  0.22640  Biso   1.000  C
  H4       1.0000 0.10310  0.29430  0.18270  Biso   1.000  H
  C15      1.0000 0.94860  0.10020  0.34820  Biso   1.000  C
  H5       1.0000 0.95720  0.02990  0.38950  Biso   1.000  H
  C16      1.0000 0.83120  0.15430  0.35080  Biso   1.000  C
  H6       1.0000 0.76150  0.11820  0.39330  Biso   1.000  H
  C17      1.0000 0.91510  0.30610  0.23450  Biso   1.000  C
  H7       1.0000 0.90460  0.37780  0.19590  Biso   1.000  H
  C18      1.0000 0.68640  0.47630  0.06670  Biso   1.000  C
  H8       1.0000 0.70520  0.54050  0.10450  Biso   1.000  H
  C19      1.0000 0.67370  0.39210  0.89870  Biso   1.000  C
  H9       1.0000 0.68440  0.39790  0.82310  Biso   1.000  H
  C20      1.0000 0.69930  0.48820  0.95450  Biso   1.000  C
  H10      1.0000 0.72470  0.55970  0.91740  Biso   1.000  H
  Gd2      1.0000 0.57252  0.01402  0.73856  Biso   1.000  Gd
  Zn2      1.0000 0.36816  0.66230  0.70191  Biso   1.000  Zn
  O11      1.0000 0.46580  0.91120  0.90630  Biso   1.000  O
  O12      1.0000 0.44700  0.81610  0.76000  Biso   1.000  O
  O13      1.0000 0.80270  0.00120  0.66460  Biso   1.000  O
  O14      1.0000 0.72410  0.85800  0.78250  Biso   1.000  O
  O15      1.0000 0.58260  0.25090  0.45730  Biso   1.000  O
  O16      1.0000 0.29950  0.49740  0.67510  Biso   1.000  O
  O17      1.0000 0.30600  0.88660  0.13880  Biso   1.000  O
  O18      1.0000 0.60800  0.17980  0.62310  Biso   1.000  O
  O19      1.0000 0.50200  0.82110  0.14160  Biso   1.000  O
  O20      1.0000 0.35840  0.31750  0.62340  Biso   1.000  O
  N4       1.0000 0.54030  0.56540  0.66460  Biso   1.000  N
  N5       1.0000 0.18700  0.74300  0.70550  Biso   1.000  N
  N6       1.0000 0.35230  0.62460  0.87730  Biso   1.000  N
  C21      1.0000 0.52110  0.45710  0.63180  Biso   1.000  C
  C22      1.0000 0.43370  0.82230  0.86300  Biso   1.000  C
  C23      1.0000 0.60010  0.26300  0.55360  Biso   1.000  C
  C24      1.0000 0.38140  0.41960  0.64390  Biso   1.000  C
  C25      1.0000 0.62110  0.38530  0.58860  Biso   1.000  C
  C26      1.0000 0.38130  0.71620  0.93260  Biso   1.000  C
  C27      1.0000 0.81750  0.90660  0.72070  Biso   1.000  C
  C28      1.0000 0.66000  0.60560  0.65710  Biso   1.000  C
  H11      1.0000 0.67360  0.68000  0.68070  Biso   1.000  H
  C29      1.0000 0.39540  0.81510  0.11050  Biso   1.000  C
  C30      1.0000 0.74400  0.42890  0.58090  Biso   1.000  C
  H12      1.0000 0.81300  0.38350  0.55250  Biso   1.000  H
  C31      1.0000 0.94670  0.84950  0.71580  Biso   1.000  C
  C32      1.0000 0.76350  0.53930  0.61510  Biso   1.000  C
  H13      1.0000 0.84550  0.56910  0.61000  Biso   1.000  H
  C33      1.0000 0.36760  0.71250  0.04560  Biso   1.000  C
  C34      1.0000 0.96490  0.74320  0.77360  Biso   1.000  C
  H14      1.0000 0.89690  0.70570  0.81730  Biso   1.000  H
  C35      1.0000 0.05140  0.89980  0.65180  Biso   1.000  C
  H15      1.0000 0.04280  0.97010  0.61050  Biso   1.000  H
  C36      1.0000 0.16880  0.84570  0.64920  Biso   1.000  C
  H16      1.0000 0.23850  0.88180  0.60670  Biso   1.000  H
  C37      1.0000 0.08490  0.69390  0.76550  Biso   1.000  C
  H17      1.0000 0.09540  0.62220  0.80410  Biso   1.000  H
  C38      1.0000 0.31360  0.52370  0.93330  Biso   1.000  C
  H18      1.0000 0.29480  0.45950  0.89550  Biso   1.000  H
  C39      1.0000 0.32630  0.60790  0.10130  Biso   1.000  C
  H19      1.0000 0.31560  0.60210  0.17690  Biso   1.000  H
  C40      1.0000 0.30070  0.51180  0.04550  Biso   1.000  C
  H20      1.0000 0.27530  0.44030  0.08260  Biso   1.000  H
