data_image0
_cell_length_a       10.458
_cell_length_b       12.274
_cell_length_c       12.401
_cell_angle_alpha    86.14
_cell_angle_beta     79.87
_cell_angle_gamma    76.58

_symmetry_space_group_name_H-M    "P 1"
_symmetry_int_tables_number       1

loop_
  _symmetry_equiv_pos_as_xyz
  'x, y, z'

loop_
  _atom_site_label
  _atom_site_occupancy
  _atom_site_fract_x
  _atom_site_fract_y
  _atom_site_fract_z
  _atom_site_thermal_displace_type
  _atom_site_B_iso_or_equiv
  _atom_site_type_symbol
  O1       1.0000 0.13450  0.90120  0.97560  Biso   1.000  O
  La1      1.0000 0.95736  0.12531  0.82907  Biso   1.000  La
  Zn1      1.0000 0.18644  0.35029  0.19024  Biso   1.000  Zn
  O2       1.0000 0.18640  0.26080  0.04680  Biso   1.000  O
  N1       1.0000 0.17180  0.39400  0.35870  Biso   1.000  N
  C1       1.0000 0.01170  0.44990  0.87270  Biso   1.000  C
  O3       1.0000 0.03980  0.15790  0.44800  Biso   1.000  O
  O4       1.0000 0.94680  0.28080  0.67600  Biso   1.000  O
  N2       1.0000 0.60920  0.72570  0.82680  Biso   1.000  N
  O5       1.0000 0.14770  0.17580  0.66690  Biso   1.000  O
  C2       1.0000 0.12790  0.38190  0.90050  Biso   1.000  C
  C3       1.0000 0.87740  0.41740  0.88760  Biso   1.000  C
  C4       1.0000 0.14400  0.26750  0.95850  Biso   1.000  C
  C5       1.0000 0.12700  0.32130  0.43400  Biso   1.000  C
  C6       1.0000 0.08990  0.22530  0.38510  Biso   1.000  C
  C7       1.0000 0.38620  0.74520  0.92250  Biso   1.000  C
  H1       1.0000 0.32660  0.71890  0.97700  Biso   1.000  H
  C8       1.0000 0.20730  0.48140  0.39290  Biso   1.000  C
  H2       1.0000 0.23680  0.53230  0.34090  Biso   1.000  H
  N3       1.0000 0.00710  0.55460  0.83170  Biso   1.000  N
  C9       1.0000 0.34330  0.84000  0.86060  Biso   1.000  C
  C10      1.0000 0.24190  0.42490  0.87950  Biso   1.000  C
  H3       1.0000 0.32200  0.38170  0.89610  Biso   1.000  H
  C11      1.0000 0.11720  0.59480  0.81320  Biso   1.000  C
  H4       1.0000 0.11260  0.66760  0.78540  Biso   1.000  H
  C12      1.0000 0.11700  0.33440  0.54550  Biso   1.000  C
  C13      1.0000 0.20090  0.90580  0.88200  Biso   1.000  C
  C14      1.0000 0.51860  0.69010  0.90270  Biso   1.000  C
  H5       1.0000 0.54620  0.62530  0.94380  Biso   1.000  H
  C15      1.0000 0.23730  0.53120  0.83410  Biso   1.000  C
  H6       1.0000 0.31400  0.55920  0.81800  Biso   1.000  H
  C16      1.0000 0.15840  0.42450  0.57870  Biso   1.000  C
  H7       1.0000 0.15650  0.43410  0.65280  Biso   1.000  H
  C17      1.0000 0.20220  0.49960  0.50170  Biso   1.000  C
  H8       1.0000 0.22780  0.56150  0.52300  Biso   1.000  H
  C18      1.0000 0.06640  0.25690  0.63410  Biso   1.000  C
  C19      1.0000 0.43500  0.87490  0.78030  Biso   1.000  C
  H9       1.0000 0.40860  0.93700  0.73550  Biso   1.000  H
  C20      1.0000 0.56540  0.81760  0.76690  Biso   1.000  C
  H10      1.0000 0.62660  0.84350  0.71360  Biso   1.000  H
  O6       1.0000 0.77850  0.49470  0.87280  Biso   1.000  O
  O7       1.0000 0.11220  0.22090  0.28240  Biso   1.000  O
  O8       1.0000 0.12620  0.18480  0.91430  Biso   1.000  O
  O9       1.0000 0.15790  0.96450  0.80320  Biso   1.000  O
  O10      1.0000 0.87210  0.31910  0.91270  Biso   1.000  O
  O11      1.0000 0.86550  0.09880  0.02440  Biso   1.000  O
  La2      1.0000 0.04264  0.87469  0.17093  Biso   1.000  La
  Zn2      1.0000 0.81356  0.64971  0.80976  Biso   1.000  Zn
  O12      1.0000 0.81360  0.73920  0.95320  Biso   1.000  O
  N4       1.0000 0.82820  0.60600  0.64130  Biso   1.000  N
  C21      1.0000 0.98830  0.55010  0.12730  Biso   1.000  C
  O13      1.0000 0.96020  0.84210  0.55200  Biso   1.000  O
  O14      1.0000 0.05320  0.71920  0.32400  Biso   1.000  O
  N5       1.0000 0.39080  0.27430  0.17320  Biso   1.000  N
  O15      1.0000 0.85230  0.82420  0.33310  Biso   1.000  O
  C22      1.0000 0.87210  0.61810  0.09950  Biso   1.000  C
  C23      1.0000 0.12260  0.58260  0.11240  Biso   1.000  C
  C24      1.0000 0.85600  0.73250  0.04150  Biso   1.000  C
  C25      1.0000 0.87300  0.67870  0.56600  Biso   1.000  C
  C26      1.0000 0.91010  0.77470  0.61490  Biso   1.000  C
  C27      1.0000 0.61380  0.25480  0.07750  Biso   1.000  C
  H11      1.0000 0.67340  0.28110  0.02300  Biso   1.000  H
  C28      1.0000 0.79270  0.51860  0.60710  Biso   1.000  C
  H12      1.0000 0.76320  0.46770  0.65910  Biso   1.000  H
  N6       1.0000 0.99290  0.44540  0.16830  Biso   1.000  N
  C29      1.0000 0.65670  0.16000  0.13940  Biso   1.000  C
  C30      1.0000 0.75810  0.57510  0.12050  Biso   1.000  C
  H13      1.0000 0.67800  0.61830  0.10390  Biso   1.000  H
  C31      1.0000 0.88280  0.40520  0.18680  Biso   1.000  C
  H14      1.0000 0.88740  0.33240  0.21460  Biso   1.000  H
  C32      1.0000 0.88300  0.66560  0.45450  Biso   1.000  C
  C33      1.0000 0.79910  0.09420  0.11800  Biso   1.000  C
  C34      1.0000 0.48140  0.30990  0.09730  Biso   1.000  C
  H15      1.0000 0.45380  0.37470  0.05620  Biso   1.000  H
  C35      1.0000 0.76270  0.46880  0.16590  Biso   1.000  C
  H16      1.0000 0.68600  0.44080  0.18200  Biso   1.000  H
  C36      1.0000 0.84160  0.57550  0.42130  Biso   1.000  C
  H17      1.0000 0.84350  0.56590  0.34720  Biso   1.000  H
  C37      1.0000 0.79780  0.50040  0.49830  Biso   1.000  C
  H18      1.0000 0.77220  0.43850  0.47700  Biso   1.000  H
  C38      1.0000 0.93360  0.74310  0.36590  Biso   1.000  C
  C39      1.0000 0.56500  0.12510  0.21970  Biso   1.000  C
  H19      1.0000 0.59140  0.06300  0.26450  Biso   1.000  H
  C40      1.0000 0.43460  0.18240  0.23310  Biso   1.000  C
  H20      1.0000 0.37340  0.15650  0.28640  Biso   1.000  H
  O16      1.0000 0.22150  0.50530  0.12720  Biso   1.000  O
  O17      1.0000 0.88780  0.77910  0.71760  Biso   1.000  O
  O18      1.0000 0.87380  0.81520  0.08570  Biso   1.000  O
  O19      1.0000 0.84210  0.03550  0.19680  Biso   1.000  O
  O20      1.0000 0.12790  0.68090  0.08730  Biso   1.000  O
