data_image0
_cell_length_a       10.59
_cell_length_b       11.333
_cell_length_c       12.464
_cell_angle_alpha    86.46
_cell_angle_beta     82.19
_cell_angle_gamma    89.17

_symmetry_space_group_name_H-M    "P 1"
_symmetry_int_tables_number       1

loop_
  _symmetry_equiv_pos_as_xyz
  'x, y, z'

loop_
  _atom_site_label
  _atom_site_occupancy
  _atom_site_fract_x
  _atom_site_fract_y
  _atom_site_fract_z
  _atom_site_thermal_displace_type
  _atom_site_B_iso_or_equiv
  _atom_site_type_symbol
  Eu1      1.0000 0.07151  0.51475  0.23896  Biso   1.000  Eu
  Zn1      1.0000 0.13215  0.83727  0.79891  Biso   1.000  Zn
  O1       1.0000 0.99600  0.67960  0.35900  Biso   1.000  O
  O2       1.0000 0.03460  0.59000  0.59360  Biso   1.000  O
  O3       1.0000 0.05380  0.68380  0.74000  Biso   1.000  O
  O4       1.0000 0.22470  0.35880  0.28360  Biso   1.000  O
  O5       1.0000 0.30280  0.50180  0.16670  Biso   1.000  O
  O6       1.0000 0.79880  0.99760  0.17380  Biso   1.000  O
  O7       1.0000 0.85800  0.81880  0.12120  Biso   1.000  O
  O8       1.0000 0.10660  0.68060  0.12380  Biso   1.000  O
  O9       1.0000 0.08390  0.75100  0.95760  Biso   1.000  O
  N1       1.0000 0.14690  0.87590  0.62380  Biso   1.000  N
  N2       1.0000 0.68650  0.24350  0.20500  Biso   1.000  N
  N3       1.0000 0.03960  0.06600  0.16400  Biso   1.000  N
  C1       1.0000 0.06690  0.67830  0.63730  Biso   1.000  C
  C2       1.0000 0.11700  0.78470  0.56890  Biso   1.000  C
  C3       1.0000 0.12960  0.78900  0.45620  Biso   1.000  C
  C4       1.0000 0.16880  0.89590  0.40080  Biso   1.000  C
  H1       1.0000 0.17750  0.90250  0.32540  Biso   1.000  H
  C5       1.0000 0.19450  0.99060  0.45650  Biso   1.000  C
  H2       1.0000 0.21870  0.06240  0.42000  Biso   1.000  H
  C6       1.0000 0.18380  0.97740  0.56980  Biso   1.000  C
  H3       1.0000 0.20300  0.04100  0.60830  Biso   1.000  H
  C7       1.0000 0.58340  0.19440  0.26610  Biso   1.000  C
  H4       1.0000 0.59360  0.12290  0.30470  Biso   1.000  H
  C8       1.0000 0.46490  0.24470  0.27400  Biso   1.000  C
  H5       1.0000 0.39680  0.20810  0.31800  Biso   1.000  H
  C9       1.0000 0.44650  0.34970  0.21650  Biso   1.000  C
  C10      1.0000 0.55090  0.40010  0.15210  Biso   1.000  C
  H6       1.0000 0.54200  0.47050  0.11120  Biso   1.000  H
  C11      1.0000 0.66740  0.34560  0.14890  Biso   1.000  C
  H7       1.0000 0.73680  0.38110  0.10570  Biso   1.000  H
  C12      1.0000 0.31750  0.40700  0.22240  Biso   1.000  C
  C13      1.0000 0.88120  0.92130  0.14210  Biso   1.000  C
  C14      1.0000 0.02050  0.95820  0.13060  Biso   1.000  C
  C15      1.0000 0.12100  0.88620  0.08910  Biso   1.000  C
  C16      1.0000 0.09980  0.76370  0.05420  Biso   1.000  C
  C17      1.0000 0.24360  0.92940  0.08210  Biso   1.000  C
  H8       1.0000 0.31270  0.88380  0.05420  Biso   1.000  H
  C18      1.0000 0.26310  0.04000  0.11620  Biso   1.000  C
  H9       1.0000 0.34520  0.06990  0.11110  Biso   1.000  H
  C19      1.0000 0.15970  0.10610  0.15820  Biso   1.000  C
  H10      1.0000 0.17320  0.17990  0.18310  Biso   1.000  H
  C20      1.0000 0.10280  0.68690  0.39070  Biso   1.000  C
  O10      1.0000 0.19280  0.61680  0.36180  Biso   1.000  O
  Eu2      1.0000 0.92849  0.48525  0.76104  Biso   1.000  Eu
  Zn2      1.0000 0.86785  0.16273  0.20109  Biso   1.000  Zn
  O11      1.0000 0.00400  0.32040  0.64100  Biso   1.000  O
  O12      1.0000 0.96540  0.41000  0.40640  Biso   1.000  O
  O13      1.0000 0.94620  0.31620  0.26000  Biso   1.000  O
  O14      1.0000 0.77530  0.64120  0.71640  Biso   1.000  O
  O15      1.0000 0.69720  0.49820  0.83330  Biso   1.000  O
  O16      1.0000 0.20120  0.00240  0.82620  Biso   1.000  O
  O17      1.0000 0.14200  0.18120  0.87880  Biso   1.000  O
  O18      1.0000 0.89340  0.31940  0.87620  Biso   1.000  O
  O19      1.0000 0.91610  0.24900  0.04240  Biso   1.000  O
  N4       1.0000 0.85310  0.12410  0.37620  Biso   1.000  N
  N5       1.0000 0.31350  0.75650  0.79500  Biso   1.000  N
  N6       1.0000 0.96040  0.93400  0.83600  Biso   1.000  N
  C21      1.0000 0.93310  0.32170  0.36270  Biso   1.000  C
  C22      1.0000 0.88300  0.21530  0.43110  Biso   1.000  C
  C23      1.0000 0.87040  0.21100  0.54380  Biso   1.000  C
  C24      1.0000 0.83120  0.10410  0.59920  Biso   1.000  C
  H11      1.0000 0.82250  0.09750  0.67460  Biso   1.000  H
  C25      1.0000 0.80550  0.00940  0.54350  Biso   1.000  C
  H12      1.0000 0.78130  0.93760  0.58000  Biso   1.000  H
  C26      1.0000 0.81620  0.02260  0.43020  Biso   1.000  C
  H13      1.0000 0.79700  0.95900  0.39170  Biso   1.000  H
  C27      1.0000 0.41660  0.80560  0.73390  Biso   1.000  C
  H14      1.0000 0.40640  0.87710  0.69530  Biso   1.000  H
  C28      1.0000 0.53510  0.75530  0.72600  Biso   1.000  C
  H15      1.0000 0.60320  0.79190  0.68200  Biso   1.000  H
  C29      1.0000 0.55350  0.65030  0.78350  Biso   1.000  C
  C30      1.0000 0.44910  0.59990  0.84790  Biso   1.000  C
  H16      1.0000 0.45800  0.52950  0.88880  Biso   1.000  H
  C31      1.0000 0.33260  0.65440  0.85110  Biso   1.000  C
  H17      1.0000 0.26320  0.61890  0.89430  Biso   1.000  H
  C32      1.0000 0.68250  0.59300  0.77760  Biso   1.000  C
  C33      1.0000 0.11880  0.07870  0.85790  Biso   1.000  C
  C34      1.0000 0.97950  0.04180  0.86940  Biso   1.000  C
  C35      1.0000 0.87900  0.11380  0.91090  Biso   1.000  C
  C36      1.0000 0.90020  0.23630  0.94580  Biso   1.000  C
  C37      1.0000 0.75640  0.07060  0.91790  Biso   1.000  C
  H18      1.0000 0.68730  0.11620  0.94580  Biso   1.000  H
  C38      1.0000 0.73690  0.96000  0.88380  Biso   1.000  C
  H19      1.0000 0.65480  0.93010  0.88890  Biso   1.000  H
  C39      1.0000 0.84030  0.89390  0.84180  Biso   1.000  C
  H20      1.0000 0.82680  0.82010  0.81690  Biso   1.000  H
  C40      1.0000 0.89720  0.31310  0.60930  Biso   1.000  C
  O20      1.0000 0.80720  0.38320  0.63820  Biso   1.000  O
