data_image0
_cell_length_a       14.4802
_cell_length_b       14.4802
_cell_length_c       8.7884
_cell_angle_alpha    90
_cell_angle_beta     90
_cell_angle_gamma    120

_symmetry_space_group_name_H-M    "P 1"
_symmetry_int_tables_number       1

loop_
  _symmetry_equiv_pos_as_xyz
  'x, y, z'

loop_
  _atom_site_label
  _atom_site_occupancy
  _atom_site_fract_x
  _atom_site_fract_y
  _atom_site_fract_z
  _atom_site_thermal_displace_type
  _atom_site_B_iso_or_equiv
  _atom_site_type_symbol
  Ag1      1.0000 0.89594  0.59922  0.10093  Biso   1.000  Ag
  C1       1.0000 0.91100  0.53060  0.78390  Biso   1.000  C
  C2       1.0000 0.95690  0.51520  0.63610  Biso   1.000  C
  C3       1.0000 0.99230  0.59320  0.52200  Biso   1.000  C
  C4       1.0000 0.98250  0.68630  0.53520  Biso   1.000  C
  H1       1.0000 0.95530  0.69760  0.62460  Biso   1.000  H
  C5       1.0000 0.01160  0.75790  0.42190  Biso   1.000  C
  H2       1.0000 0.00290  0.81690  0.43320  Biso   1.000  H
  C6       1.0000 0.05570  0.74420  0.28460  Biso   1.000  C
  H3       1.0000 0.07620  0.79460  0.20730  Biso   1.000  H
  C7       1.0000 0.06790  0.65690  0.26610  Biso   1.000  C
  H4       1.0000 0.09740  0.64900  0.17640  Biso   1.000  H
  C8       1.0000 0.96410  0.42230  0.61700  Biso   1.000  C
  C9       1.0000 0.56460  0.31870  0.36070  Biso   1.000  C
  H5       1.0000 0.50640  0.25160  0.39790  Biso   1.000  H
  H6       1.0000 0.55390  0.37560  0.39820  Biso   1.000  H
  C10      1.0000 0.65260  0.42130  0.13810  Biso   1.000  C
  H7       1.0000 0.65250  0.42240  0.02770  Biso   1.000  H
  H8       1.0000 0.64300  0.47930  0.17400  Biso   1.000  H
  N1       1.0000 0.56280  0.31860  0.19230  Biso   1.000  N
  O1       1.0000 0.81330  0.47480  0.80900  Biso   1.000  O
  O2       1.0000 0.97660  0.60080  0.87330  Biso   1.000  O
  Ag2      1.0000 0.40078  0.29672  0.10093  Biso   1.000  Ag
  C11      1.0000 0.46940  0.38040  0.78390  Biso   1.000  C
  C12      1.0000 0.48480  0.44170  0.63610  Biso   1.000  C
  C13      1.0000 0.40680  0.39910  0.52200  Biso   1.000  C
  C14      1.0000 0.31370  0.29620  0.53520  Biso   1.000  C
  H9       1.0000 0.30240  0.25770  0.62460  Biso   1.000  H
  C15      1.0000 0.24210  0.25370  0.42190  Biso   1.000  C
  H10      1.0000 0.18310  0.18600  0.43320  Biso   1.000  H
  C16      1.0000 0.25580  0.31150  0.28460  Biso   1.000  C
  H11      1.0000 0.20540  0.28160  0.20730  Biso   1.000  H
  C17      1.0000 0.34310  0.41100  0.26610  Biso   1.000  C
  H12      1.0000 0.35100  0.44840  0.17640  Biso   1.000  H
  C18      1.0000 0.57770  0.54180  0.61700  Biso   1.000  C
  C19      1.0000 0.68130  0.24590  0.36070  Biso   1.000  C
  H13      1.0000 0.74840  0.25480  0.39790  Biso   1.000  H
  H14      1.0000 0.62440  0.17830  0.39820  Biso   1.000  H
  C20      1.0000 0.57870  0.23130  0.13810  Biso   1.000  C
  H15      1.0000 0.57760  0.23010  0.02770  Biso   1.000  H
  H16      1.0000 0.52070  0.16370  0.17400  Biso   1.000  H
  N2       1.0000 0.68140  0.24420  0.19230  Biso   1.000  N
  O3       1.0000 0.52520  0.33850  0.80900  Biso   1.000  O
  O4       1.0000 0.39920  0.37580  0.87330  Biso   1.000  O
  Ag3      1.0000 0.70328  0.10406  0.10093  Biso   1.000  Ag
  C21      1.0000 0.61960  0.08900  0.78390  Biso   1.000  C
  C22      1.0000 0.55830  0.04310  0.63610  Biso   1.000  C
  C23      1.0000 0.60090  0.00770  0.52200  Biso   1.000  C
  C24      1.0000 0.70380  0.01750  0.53520  Biso   1.000  C
  H17      1.0000 0.74230  0.04470  0.62460  Biso   1.000  H
  C25      1.0000 0.74630  0.98840  0.42190  Biso   1.000  C
  H18      1.0000 0.81400  0.99710  0.43320  Biso   1.000  H
  C26      1.0000 0.68850  0.94430  0.28460  Biso   1.000  C
  H19      1.0000 0.71840  0.92380  0.20730  Biso   1.000  H
  C27      1.0000 0.58900  0.93210  0.26610  Biso   1.000  C
  H20      1.0000 0.55160  0.90260  0.17640  Biso   1.000  H
  C28      1.0000 0.45820  0.03590  0.61700  Biso   1.000  C
  C29      1.0000 0.75410  0.43540  0.36070  Biso   1.000  C
  H21      1.0000 0.74520  0.49360  0.39790  Biso   1.000  H
  H22      1.0000 0.82170  0.44610  0.39820  Biso   1.000  H
  C30      1.0000 0.76870  0.34740  0.13810  Biso   1.000  C
  H23      1.0000 0.76990  0.34750  0.02770  Biso   1.000  H
  H24      1.0000 0.83630  0.35700  0.17400  Biso   1.000  H
  N3       1.0000 0.75580  0.43720  0.19230  Biso   1.000  N
  O5       1.0000 0.66150  0.18670  0.80900  Biso   1.000  O
  O6       1.0000 0.62420  0.02340  0.87330  Biso   1.000  O
  Ag4      1.0000 0.10406  0.40078  0.89907  Biso   1.000  Ag
  C31      1.0000 0.08900  0.46940  0.21610  Biso   1.000  C
  C32      1.0000 0.04310  0.48480  0.36390  Biso   1.000  C
  C33      1.0000 0.00770  0.40680  0.47800  Biso   1.000  C
  C34      1.0000 0.01750  0.31370  0.46480  Biso   1.000  C
  H25      1.0000 0.04470  0.30240  0.37540  Biso   1.000  H
  C35      1.0000 0.98840  0.24210  0.57810  Biso   1.000  C
  H26      1.0000 0.99710  0.18310  0.56680  Biso   1.000  H
  C36      1.0000 0.94430  0.25580  0.71540  Biso   1.000  C
  H27      1.0000 0.92380  0.20540  0.79270  Biso   1.000  H
  C37      1.0000 0.93210  0.34310  0.73390  Biso   1.000  C
  H28      1.0000 0.90260  0.35100  0.82360  Biso   1.000  H
  C38      1.0000 0.03590  0.57770  0.38300  Biso   1.000  C
  C39      1.0000 0.43540  0.68130  0.63930  Biso   1.000  C
  H29      1.0000 0.49360  0.74840  0.60210  Biso   1.000  H
  H30      1.0000 0.44610  0.62440  0.60180  Biso   1.000  H
  C40      1.0000 0.34740  0.57870  0.86190  Biso   1.000  C
  H31      1.0000 0.34750  0.57760  0.97230  Biso   1.000  H
  H32      1.0000 0.35700  0.52070  0.82600  Biso   1.000  H
  N4       1.0000 0.43720  0.68140  0.80770  Biso   1.000  N
  O7       1.0000 0.18670  0.52520  0.19100  Biso   1.000  O
  O8       1.0000 0.02340  0.39920  0.12670  Biso   1.000  O
  Ag5      1.0000 0.59922  0.70328  0.89907  Biso   1.000  Ag
  C41      1.0000 0.53060  0.61960  0.21610  Biso   1.000  C
  C42      1.0000 0.51520  0.55830  0.36390  Biso   1.000  C
  C43      1.0000 0.59320  0.60090  0.47800  Biso   1.000  C
  C44      1.0000 0.68630  0.70380  0.46480  Biso   1.000  C
  H33      1.0000 0.69760  0.74230  0.37540  Biso   1.000  H
  C45      1.0000 0.75790  0.74630  0.57810  Biso   1.000  C
  H34      1.0000 0.81690  0.81400  0.56680  Biso   1.000  H
  C46      1.0000 0.74420  0.68850  0.71540  Biso   1.000  C
  H35      1.0000 0.79460  0.71840  0.79270  Biso   1.000  H
  C47      1.0000 0.65690  0.58900  0.73390  Biso   1.000  C
  H36      1.0000 0.64900  0.55160  0.82360  Biso   1.000  H
  C48      1.0000 0.42230  0.45820  0.38300  Biso   1.000  C
  C49      1.0000 0.31870  0.75410  0.63930  Biso   1.000  C
  H37      1.0000 0.25160  0.74520  0.60210  Biso   1.000  H
  H38      1.0000 0.37560  0.82170  0.60180  Biso   1.000  H
  C50      1.0000 0.42130  0.76870  0.86190  Biso   1.000  C
  H39      1.0000 0.42240  0.76990  0.97230  Biso   1.000  H
  H40      1.0000 0.47930  0.83630  0.82600  Biso   1.000  H
  N5       1.0000 0.31860  0.75580  0.80770  Biso   1.000  N
  O9       1.0000 0.47480  0.66150  0.19100  Biso   1.000  O
  O10      1.0000 0.60080  0.62420  0.12670  Biso   1.000  O
  Ag6      1.0000 0.29672  0.89594  0.89907  Biso   1.000  Ag
  C51      1.0000 0.38040  0.91100  0.21610  Biso   1.000  C
  C52      1.0000 0.44170  0.95690  0.36390  Biso   1.000  C
  C53      1.0000 0.39910  0.99230  0.47800  Biso   1.000  C
  C54      1.0000 0.29620  0.98250  0.46480  Biso   1.000  C
  H41      1.0000 0.25770  0.95530  0.37540  Biso   1.000  H
  C55      1.0000 0.25370  0.01160  0.57810  Biso   1.000  C
  H42      1.0000 0.18600  0.00290  0.56680  Biso   1.000  H
  C56      1.0000 0.31150  0.05570  0.71540  Biso   1.000  C
  H43      1.0000 0.28160  0.07620  0.79270  Biso   1.000  H
  C57      1.0000 0.41100  0.06790  0.73390  Biso   1.000  C
  H44      1.0000 0.44840  0.09740  0.82360  Biso   1.000  H
  C58      1.0000 0.54180  0.96410  0.38300  Biso   1.000  C
  C59      1.0000 0.24590  0.56460  0.63930  Biso   1.000  C
  H45      1.0000 0.25480  0.50640  0.60210  Biso   1.000  H
  H46      1.0000 0.17830  0.55390  0.60180  Biso   1.000  H
  C60      1.0000 0.23130  0.65260  0.86190  Biso   1.000  C
  H47      1.0000 0.23010  0.65250  0.97230  Biso   1.000  H
  H48      1.0000 0.16370  0.64300  0.82600  Biso   1.000  H
  N6       1.0000 0.24420  0.56280  0.80770  Biso   1.000  N
  O11      1.0000 0.33850  0.81330  0.19100  Biso   1.000  O
  O12      1.0000 0.37580  0.97660  0.12670  Biso   1.000  O
  Ag7      1.0000 0.66667  0.33333  0.68141  Biso   1.000  Ag
  N7       1.0000 0.66667  0.33333  0.42060  Biso   1.000  N
  Ag8      1.0000 0.33333  0.66667  0.31859  Biso   1.000  Ag
  N8       1.0000 0.33333  0.66667  0.57940  Biso   1.000  N
