data_image0
_cell_length_a       15.278
_cell_length_b       7.664
_cell_length_c       15.553
_cell_angle_alpha    90
_cell_angle_beta     105.41
_cell_angle_gamma    90

_symmetry_space_group_name_H-M    "P 1"
_symmetry_int_tables_number       1

loop_
  _symmetry_equiv_pos_as_xyz
  'x, y, z'

loop_
  _atom_site_label
  _atom_site_occupancy
  _atom_site_fract_x
  _atom_site_fract_y
  _atom_site_fract_z
  _atom_site_thermal_displace_type
  _atom_site_B_iso_or_equiv
  _atom_site_type_symbol
  Cd1      1.0000 0.31942  0.56599  0.15534  Biso   1.000  Cd
  C1       1.0000 0.26380  0.70400  0.02910  Biso   1.000  C
  C2       1.0000 0.46310  0.60630  0.22760  Biso   1.000  C
  N1       1.0000 0.29220  0.81480  0.23430  Biso   1.000  N
  C3       1.0000 0.24660  0.39200  0.22770  Biso   1.000  C
  C4       1.0000 0.20780  0.31480  0.26570  Biso   1.000  C
  N2       1.0000 0.23620  0.79600  0.97090  Biso   1.000  N
  Cd2      1.0000 0.81942  0.06599  0.15534  Biso   1.000  Cd
  C5       1.0000 0.76380  0.20400  0.02910  Biso   1.000  C
  C6       1.0000 0.96310  0.10630  0.22760  Biso   1.000  C
  N3       1.0000 0.79220  0.31480  0.23430  Biso   1.000  N
  C7       1.0000 0.74660  0.89200  0.22770  Biso   1.000  C
  C8       1.0000 0.70780  0.81480  0.26570  Biso   1.000  C
  N4       1.0000 0.73620  0.29600  0.97090  Biso   1.000  N
  Cd3      1.0000 0.68058  0.56599  0.34466  Biso   1.000  Cd
  C9       1.0000 0.73620  0.70400  0.47090  Biso   1.000  C
  C10      1.0000 0.53690  0.60630  0.27240  Biso   1.000  C
  C11      1.0000 0.75340  0.39200  0.27230  Biso   1.000  C
  N5       1.0000 0.76380  0.79600  0.52910  Biso   1.000  N
  Cd4      1.0000 0.18058  0.06599  0.34466  Biso   1.000  Cd
  C12      1.0000 0.23620  0.20400  0.47090  Biso   1.000  C
  C13      1.0000 0.03690  0.10630  0.27240  Biso   1.000  C
  C14      1.0000 0.25340  0.89200  0.27230  Biso   1.000  C
  N6       1.0000 0.26380  0.29600  0.52910  Biso   1.000  N
  Cd5      1.0000 0.68058  0.43401  0.84466  Biso   1.000  Cd
  C15      1.0000 0.53690  0.39370  0.77240  Biso   1.000  C
  N7       1.0000 0.70780  0.18520  0.76570  Biso   1.000  N
  C16      1.0000 0.75340  0.60800  0.77230  Biso   1.000  C
  C17      1.0000 0.79220  0.68520  0.73430  Biso   1.000  C
  Cd6      1.0000 0.18058  0.93401  0.84466  Biso   1.000  Cd
  C18      1.0000 0.03690  0.89370  0.77240  Biso   1.000  C
  N8       1.0000 0.20780  0.68520  0.76570  Biso   1.000  N
  C19      1.0000 0.25340  0.10800  0.77230  Biso   1.000  C
  C20      1.0000 0.29220  0.18520  0.73430  Biso   1.000  C
  Cd7      1.0000 0.31942  0.43401  0.65534  Biso   1.000  Cd
  C21      1.0000 0.46310  0.39370  0.72760  Biso   1.000  C
  C22      1.0000 0.24660  0.60800  0.72770  Biso   1.000  C
  Cd8      1.0000 0.81942  0.93401  0.65534  Biso   1.000  Cd
  C23      1.0000 0.96310  0.89370  0.72760  Biso   1.000  C
  C24      1.0000 0.74660  0.10800  0.72770  Biso   1.000  C
