data_image0
_cell_length_a       16.1048
_cell_length_b       8.2564
_cell_length_c       22.9979
_cell_angle_alpha    90
_cell_angle_beta     103.995
_cell_angle_gamma    90

_symmetry_space_group_name_H-M    "P 1"
_symmetry_int_tables_number       1

loop_
  _symmetry_equiv_pos_as_xyz
  'x, y, z'

loop_
  _atom_site_label
  _atom_site_occupancy
  _atom_site_fract_x
  _atom_site_fract_y
  _atom_site_fract_z
  _atom_site_thermal_displace_type
  _atom_site_B_iso_or_equiv
  _atom_site_type_symbol
  Zn1      1.0000 0.30150  0.15520  0.42620  Biso   1.000  Zn
  Zn2      1.0000 0.64890  0.34980  0.42730  Biso   1.000  Zn
  Zn3      1.0000 0.26400  0.38240  0.30450  Biso   1.000  Zn
  P1       1.0000 0.68090  0.51070  0.31070  Biso   1.000  P
  P2       1.0000 0.23200  0.49040  0.45590  Biso   1.000  P
  P3       1.0000 0.44830  0.28910  0.36700  Biso   1.000  P
  O1       1.0000 0.24390  0.36120  0.41030  Biso   1.000  O
  O2       1.0000 0.17110  0.42350  0.49250  Biso   1.000  O
  O3       1.0000 0.40990  0.15850  0.40150  Biso   1.000  O
  O4       1.0000 0.71350  0.49430  0.38100  Biso   1.000  O
  O5       1.0000 0.47480  0.20300  0.31510  Biso   1.000  O
  O6       1.0000 0.58510  0.48400  0.29470  Biso   1.000  O
  O7       1.0000 0.18920  0.63410  0.41800  Biso   1.000  O
  O8       1.0000 0.52550  0.37150  0.40990  Biso   1.000  O
  O9       1.0000 0.31790  0.53600  0.49680  Biso   1.000  O
  O10      1.0000 0.38140  0.42120  0.34380  Biso   1.000  O
  O11      1.0000 0.70560  0.67750  0.29280  Biso   1.000  O
  O12      1.0000 0.72740  0.37920  0.28280  Biso   1.000  O
  Zn4      1.0000 0.80150  0.65520  0.42620  Biso   1.000  Zn
  Zn5      1.0000 0.14890  0.84980  0.42730  Biso   1.000  Zn
  Zn6      1.0000 0.76400  0.88240  0.30450  Biso   1.000  Zn
  P4       1.0000 0.18090  0.01070  0.31070  Biso   1.000  P
  P5       1.0000 0.73200  0.99040  0.45590  Biso   1.000  P
  P6       1.0000 0.94830  0.78910  0.36700  Biso   1.000  P
  O13      1.0000 0.74390  0.86120  0.41030  Biso   1.000  O
  O14      1.0000 0.67110  0.92350  0.49250  Biso   1.000  O
  O15      1.0000 0.90990  0.65850  0.40150  Biso   1.000  O
  O16      1.0000 0.21350  0.99430  0.38100  Biso   1.000  O
  O17      1.0000 0.97480  0.70300  0.31510  Biso   1.000  O
  O18      1.0000 0.08510  0.98400  0.29470  Biso   1.000  O
  O19      1.0000 0.68920  0.13410  0.41800  Biso   1.000  O
  O20      1.0000 0.02550  0.87150  0.40990  Biso   1.000  O
  O21      1.0000 0.81790  0.03600  0.49680  Biso   1.000  O
  O22      1.0000 0.88140  0.92120  0.34380  Biso   1.000  O
  O23      1.0000 0.20560  0.17750  0.29280  Biso   1.000  O
  O24      1.0000 0.22740  0.87920  0.28280  Biso   1.000  O
  Zn7      1.0000 0.69850  0.15520  0.07380  Biso   1.000  Zn
  Zn8      1.0000 0.35110  0.34980  0.07270  Biso   1.000  Zn
  Zn9      1.0000 0.73600  0.38240  0.19550  Biso   1.000  Zn
  P7       1.0000 0.31910  0.51070  0.18930  Biso   1.000  P
  P8       1.0000 0.76800  0.49040  0.04410  Biso   1.000  P
  P9       1.0000 0.55170  0.28910  0.13300  Biso   1.000  P
  O25      1.0000 0.75610  0.36120  0.08970  Biso   1.000  O
  O26      1.0000 0.82890  0.42350  0.00750  Biso   1.000  O
  O27      1.0000 0.59010  0.15850  0.09850  Biso   1.000  O
  O28      1.0000 0.28650  0.49430  0.11900  Biso   1.000  O
  O29      1.0000 0.52520  0.20300  0.18490  Biso   1.000  O
  O30      1.0000 0.41490  0.48400  0.20530  Biso   1.000  O
  O31      1.0000 0.81080  0.63410  0.08200  Biso   1.000  O
  O32      1.0000 0.47450  0.37150  0.09010  Biso   1.000  O
  O33      1.0000 0.68210  0.53600  0.00320  Biso   1.000  O
  O34      1.0000 0.61860  0.42120  0.15620  Biso   1.000  O
  O35      1.0000 0.29440  0.67750  0.20720  Biso   1.000  O
  O36      1.0000 0.27260  0.37920  0.21720  Biso   1.000  O
  Zn10     1.0000 0.19850  0.65520  0.07380  Biso   1.000  Zn
  Zn11     1.0000 0.85110  0.84980  0.07270  Biso   1.000  Zn
  Zn12     1.0000 0.23600  0.88240  0.19550  Biso   1.000  Zn
  P10      1.0000 0.81910  0.01070  0.18930  Biso   1.000  P
  P11      1.0000 0.26800  0.99040  0.04410  Biso   1.000  P
  P12      1.0000 0.05170  0.78910  0.13300  Biso   1.000  P
  O37      1.0000 0.25610  0.86120  0.08970  Biso   1.000  O
  O38      1.0000 0.32890  0.92350  0.00750  Biso   1.000  O
  O39      1.0000 0.09010  0.65850  0.09850  Biso   1.000  O
  O40      1.0000 0.78650  0.99430  0.11900  Biso   1.000  O
  O41      1.0000 0.02520  0.70300  0.18490  Biso   1.000  O
  O42      1.0000 0.91490  0.98400  0.20530  Biso   1.000  O
  O43      1.0000 0.31080  0.13410  0.08200  Biso   1.000  O
  O44      1.0000 0.97450  0.87150  0.09010  Biso   1.000  O
  O45      1.0000 0.18210  0.03600  0.00320  Biso   1.000  O
  O46      1.0000 0.11860  0.92120  0.15620  Biso   1.000  O
  O47      1.0000 0.79440  0.17750  0.20720  Biso   1.000  O
  O48      1.0000 0.77260  0.87920  0.21720  Biso   1.000  O
  Zn13     1.0000 0.69850  0.84480  0.57380  Biso   1.000  Zn
  Zn14     1.0000 0.35110  0.65020  0.57270  Biso   1.000  Zn
  Zn15     1.0000 0.73600  0.61760  0.69550  Biso   1.000  Zn
  P13      1.0000 0.31910  0.48930  0.68930  Biso   1.000  P
  P14      1.0000 0.76800  0.50960  0.54410  Biso   1.000  P
  P15      1.0000 0.55170  0.71090  0.63300  Biso   1.000  P
  O49      1.0000 0.75610  0.63880  0.58970  Biso   1.000  O
  O50      1.0000 0.82890  0.57650  0.50750  Biso   1.000  O
  O51      1.0000 0.59010  0.84150  0.59850  Biso   1.000  O
  O52      1.0000 0.28650  0.50570  0.61900  Biso   1.000  O
  O53      1.0000 0.52520  0.79700  0.68490  Biso   1.000  O
  O54      1.0000 0.41490  0.51600  0.70530  Biso   1.000  O
  O55      1.0000 0.81080  0.36590  0.58200  Biso   1.000  O
  O56      1.0000 0.47450  0.62850  0.59010  Biso   1.000  O
  O57      1.0000 0.68210  0.46400  0.50320  Biso   1.000  O
  O58      1.0000 0.61860  0.57880  0.65620  Biso   1.000  O
  O59      1.0000 0.29440  0.32250  0.70720  Biso   1.000  O
  O60      1.0000 0.27260  0.62080  0.71720  Biso   1.000  O
  Zn16     1.0000 0.19850  0.34480  0.57380  Biso   1.000  Zn
  Zn17     1.0000 0.85110  0.15020  0.57270  Biso   1.000  Zn
  Zn18     1.0000 0.23600  0.11760  0.69550  Biso   1.000  Zn
  P16      1.0000 0.81910  0.98930  0.68930  Biso   1.000  P
  P17      1.0000 0.26800  0.00960  0.54410  Biso   1.000  P
  P18      1.0000 0.05170  0.21090  0.63300  Biso   1.000  P
  O61      1.0000 0.25610  0.13880  0.58970  Biso   1.000  O
  O62      1.0000 0.32890  0.07650  0.50750  Biso   1.000  O
  O63      1.0000 0.09010  0.34150  0.59850  Biso   1.000  O
  O64      1.0000 0.78650  0.00570  0.61900  Biso   1.000  O
  O65      1.0000 0.02520  0.29700  0.68490  Biso   1.000  O
  O66      1.0000 0.91490  0.01600  0.70530  Biso   1.000  O
  O67      1.0000 0.31080  0.86590  0.58200  Biso   1.000  O
  O68      1.0000 0.97450  0.12850  0.59010  Biso   1.000  O
  O69      1.0000 0.18210  0.96400  0.50320  Biso   1.000  O
  O70      1.0000 0.11860  0.07880  0.65620  Biso   1.000  O
  O71      1.0000 0.79440  0.82250  0.70720  Biso   1.000  O
  O72      1.0000 0.77260  0.12080  0.71720  Biso   1.000  O
  Zn19     1.0000 0.30150  0.84480  0.92620  Biso   1.000  Zn
  Zn20     1.0000 0.64890  0.65020  0.92730  Biso   1.000  Zn
  Zn21     1.0000 0.26400  0.61760  0.80450  Biso   1.000  Zn
  P19      1.0000 0.68090  0.48930  0.81070  Biso   1.000  P
  P20      1.0000 0.23200  0.50960  0.95590  Biso   1.000  P
  P21      1.0000 0.44830  0.71090  0.86700  Biso   1.000  P
  O73      1.0000 0.24390  0.63880  0.91030  Biso   1.000  O
  O74      1.0000 0.17110  0.57650  0.99250  Biso   1.000  O
  O75      1.0000 0.40990  0.84150  0.90150  Biso   1.000  O
  O76      1.0000 0.71350  0.50570  0.88100  Biso   1.000  O
  O77      1.0000 0.47480  0.79700  0.81510  Biso   1.000  O
  O78      1.0000 0.58510  0.51600  0.79470  Biso   1.000  O
  O79      1.0000 0.18920  0.36590  0.91800  Biso   1.000  O
  O80      1.0000 0.52550  0.62850  0.90990  Biso   1.000  O
  O81      1.0000 0.31790  0.46400  0.99680  Biso   1.000  O
  O82      1.0000 0.38140  0.57880  0.84380  Biso   1.000  O
  O83      1.0000 0.70560  0.32250  0.79280  Biso   1.000  O
  O84      1.0000 0.72740  0.62080  0.78280  Biso   1.000  O
  Zn22     1.0000 0.80150  0.34480  0.92620  Biso   1.000  Zn
  Zn23     1.0000 0.14890  0.15020  0.92730  Biso   1.000  Zn
  Zn24     1.0000 0.76400  0.11760  0.80450  Biso   1.000  Zn
  P22      1.0000 0.18090  0.98930  0.81070  Biso   1.000  P
  P23      1.0000 0.73200  0.00960  0.95590  Biso   1.000  P
  P24      1.0000 0.94830  0.21090  0.86700  Biso   1.000  P
  O85      1.0000 0.74390  0.13880  0.91030  Biso   1.000  O
  O86      1.0000 0.67110  0.07650  0.99250  Biso   1.000  O
  O87      1.0000 0.90990  0.34150  0.90150  Biso   1.000  O
  O88      1.0000 0.21350  0.00570  0.88100  Biso   1.000  O
  O89      1.0000 0.97480  0.29700  0.81510  Biso   1.000  O
  O90      1.0000 0.08510  0.01600  0.79470  Biso   1.000  O
  O91      1.0000 0.68920  0.86590  0.91800  Biso   1.000  O
  O92      1.0000 0.02550  0.12850  0.90990  Biso   1.000  O
  O93      1.0000 0.81790  0.96400  0.99680  Biso   1.000  O
  O94      1.0000 0.88140  0.07880  0.84380  Biso   1.000  O
  O95      1.0000 0.20560  0.82250  0.79280  Biso   1.000  O
  O96      1.0000 0.22740  0.12080  0.78280  Biso   1.000  O
  Zn25     1.0000 0.50000  0.33000  0.25000  Biso   1.000  Zn
  Zn26     1.0000 0.00000  0.83000  0.25000  Biso   1.000  Zn
  Zn27     1.0000 0.50000  0.67000  0.75000  Biso   1.000  Zn
  Zn28     1.0000 0.00000  0.17000  0.75000  Biso   1.000  Zn
