data_image0
_cell_length_a       10.8294
_cell_length_b       12.7465
_cell_length_c       12.3971
_cell_angle_alpha    90
_cell_angle_beta     95.115
_cell_angle_gamma    90

_symmetry_space_group_name_H-M    "P 1"
_symmetry_int_tables_number       1

loop_
  _symmetry_equiv_pos_as_xyz
  'x, y, z'

loop_
  _atom_site_label
  _atom_site_occupancy
  _atom_site_fract_x
  _atom_site_fract_y
  _atom_site_fract_z
  _atom_site_thermal_displace_type
  _atom_site_B_iso_or_equiv
  _atom_site_type_symbol
  Fe1      1.0000 0.02977  0.87900  0.65918  Biso   1.000  Fe
  Fe2      1.0000 0.50946  0.87512  0.85221  Biso   1.000  Fe
  P1       1.0000 0.56557  0.87658  0.11858  Biso   1.000  P
  P2       1.0000 0.42927  0.62737  0.89228  Biso   1.000  P
  P3       1.0000 0.74803  0.83985  0.69691  Biso   1.000  P
  O1       1.0000 0.48060  0.61360  0.00870  Biso   1.000  O
  O2       1.0000 0.87580  0.88800  0.73050  Biso   1.000  O
  O3       1.0000 0.45170  0.53160  0.82360  Biso   1.000  O
  O4       1.0000 0.50590  0.77790  0.16070  Biso   1.000  O
  O5       1.0000 0.21370  0.86630  0.62240  Biso   1.000  O
  O6       1.0000 0.12840  0.86820  0.81430  Biso   1.000  O
  O7       1.0000 0.66310  0.86600  0.78280  Biso   1.000  O
  O8       1.0000 0.58530  0.86930  0.99980  Biso   1.000  O
  O9       1.0000 0.48280  0.72230  0.84030  Biso   1.000  O
  O10      1.0000 0.48950  0.97040  0.14850  Biso   1.000  O
  O11      1.0000 0.32240  0.87970  0.89400  Biso   1.000  O
  O12      1.0000 0.40750  0.88210  0.69840  Biso   1.000  O
  O13      1.0000 0.70220  0.88490  0.17570  Biso   1.000  O
  H1       1.0000 0.69950  0.88920  0.24140  Biso   1.000  H
  O14      1.0000 0.28420  0.64010  0.89490  Biso   1.000  O
  H2       1.0000 0.25200  0.64790  0.83300  Biso   1.000  H
  O15      1.0000 0.76690  0.71510  0.70280  Biso   1.000  O
  H3       1.0000 0.81760  0.69740  0.66100  Biso   1.000  H
  O16      1.0000 0.70190  0.87160  0.58440  Biso   1.000  O
  C1       1.0000 0.29400  0.87400  0.70190  Biso   1.000  C
  C2       1.0000 0.24440  0.87340  0.81390  Biso   1.000  C
  Fe3      1.0000 0.47023  0.37900  0.84082  Biso   1.000  Fe
  Fe4      1.0000 0.99054  0.37512  0.64779  Biso   1.000  Fe
  P4       1.0000 0.93443  0.37658  0.38142  Biso   1.000  P
  P5       1.0000 0.07073  0.12737  0.60772  Biso   1.000  P
  P6       1.0000 0.75197  0.33985  0.80309  Biso   1.000  P
  O17      1.0000 0.01940  0.11360  0.49130  Biso   1.000  O
  O18      1.0000 0.62420  0.38800  0.76950  Biso   1.000  O
  O19      1.0000 0.04830  0.03160  0.67640  Biso   1.000  O
  O20      1.0000 0.99410  0.27790  0.33930  Biso   1.000  O
  O21      1.0000 0.28630  0.36630  0.87760  Biso   1.000  O
  O22      1.0000 0.37160  0.36820  0.68570  Biso   1.000  O
  O23      1.0000 0.83690  0.36600  0.71720  Biso   1.000  O
  O24      1.0000 0.91470  0.36930  0.50020  Biso   1.000  O
  O25      1.0000 0.01720  0.22230  0.65970  Biso   1.000  O
  O26      1.0000 0.01050  0.47040  0.35150  Biso   1.000  O
  O27      1.0000 0.17760  0.37970  0.60600  Biso   1.000  O
  O28      1.0000 0.09250  0.38210  0.80160  Biso   1.000  O
  O29      1.0000 0.79780  0.38490  0.32430  Biso   1.000  O
  H4       1.0000 0.80050  0.38920  0.25860  Biso   1.000  H
  O30      1.0000 0.21580  0.14010  0.60510  Biso   1.000  O
  H5       1.0000 0.24800  0.14790  0.66700  Biso   1.000  H
  O31      1.0000 0.73310  0.21510  0.79720  Biso   1.000  O
  H6       1.0000 0.68240  0.19740  0.83900  Biso   1.000  H
  O32      1.0000 0.79810  0.37160  0.91560  Biso   1.000  O
  C3       1.0000 0.20600  0.37400  0.79810  Biso   1.000  C
  C4       1.0000 0.25560  0.37340  0.68610  Biso   1.000  C
  Fe5      1.0000 0.97023  0.12100  0.34082  Biso   1.000  Fe
  Fe6      1.0000 0.49054  0.12488  0.14779  Biso   1.000  Fe
  P7       1.0000 0.43443  0.12342  0.88142  Biso   1.000  P
  P8       1.0000 0.57073  0.37263  0.10772  Biso   1.000  P
  P9       1.0000 0.25197  0.16015  0.30309  Biso   1.000  P
  O33      1.0000 0.51940  0.38640  0.99130  Biso   1.000  O
  O34      1.0000 0.12420  0.11200  0.26950  Biso   1.000  O
  O35      1.0000 0.54830  0.46840  0.17640  Biso   1.000  O
  O36      1.0000 0.49410  0.22210  0.83930  Biso   1.000  O
  O37      1.0000 0.78630  0.13370  0.37760  Biso   1.000  O
  O38      1.0000 0.87160  0.13180  0.18570  Biso   1.000  O
  O39      1.0000 0.33690  0.13400  0.21720  Biso   1.000  O
  O40      1.0000 0.41470  0.13070  0.00020  Biso   1.000  O
  O41      1.0000 0.51720  0.27770  0.15970  Biso   1.000  O
  O42      1.0000 0.51050  0.02960  0.85150  Biso   1.000  O
  O43      1.0000 0.67760  0.12030  0.10600  Biso   1.000  O
  O44      1.0000 0.59250  0.11790  0.30160  Biso   1.000  O
  O45      1.0000 0.29780  0.11510  0.82430  Biso   1.000  O
  H7       1.0000 0.30050  0.11080  0.75860  Biso   1.000  H
  O46      1.0000 0.71580  0.35990  0.10510  Biso   1.000  O
  H8       1.0000 0.74800  0.35210  0.16700  Biso   1.000  H
  O47      1.0000 0.23310  0.28490  0.29720  Biso   1.000  O
  H9       1.0000 0.18240  0.30260  0.33900  Biso   1.000  H
  O48      1.0000 0.29810  0.12840  0.41560  Biso   1.000  O
  C5       1.0000 0.70600  0.12600  0.29810  Biso   1.000  C
  C6       1.0000 0.75560  0.12660  0.18610  Biso   1.000  C
  Fe7      1.0000 0.52977  0.62100  0.15918  Biso   1.000  Fe
  Fe8      1.0000 0.00946  0.62488  0.35221  Biso   1.000  Fe
  P10      1.0000 0.06557  0.62342  0.61858  Biso   1.000  P
  P11      1.0000 0.92927  0.87263  0.39228  Biso   1.000  P
  P12      1.0000 0.24803  0.66015  0.19691  Biso   1.000  P
  O49      1.0000 0.98060  0.88640  0.50870  Biso   1.000  O
  O50      1.0000 0.37580  0.61200  0.23050  Biso   1.000  O
  O51      1.0000 0.95170  0.96840  0.32360  Biso   1.000  O
  O52      1.0000 0.00590  0.72210  0.66070  Biso   1.000  O
  O53      1.0000 0.71370  0.63370  0.12240  Biso   1.000  O
  O54      1.0000 0.62840  0.63180  0.31430  Biso   1.000  O
  O55      1.0000 0.16310  0.63400  0.28280  Biso   1.000  O
  O56      1.0000 0.08530  0.63070  0.49980  Biso   1.000  O
  O57      1.0000 0.98280  0.77770  0.34030  Biso   1.000  O
  O58      1.0000 0.98950  0.52960  0.64850  Biso   1.000  O
  O59      1.0000 0.82240  0.62030  0.39400  Biso   1.000  O
  O60      1.0000 0.90750  0.61790  0.19840  Biso   1.000  O
  O61      1.0000 0.20220  0.61510  0.67570  Biso   1.000  O
  H10      1.0000 0.19950  0.61080  0.74140  Biso   1.000  H
  O62      1.0000 0.78420  0.85990  0.39490  Biso   1.000  O
  H11      1.0000 0.75200  0.85210  0.33300  Biso   1.000  H
  O63      1.0000 0.26690  0.78490  0.20280  Biso   1.000  O
  H12      1.0000 0.31760  0.80260  0.16100  Biso   1.000  H
  O64      1.0000 0.20190  0.62840  0.08440  Biso   1.000  O
  C7       1.0000 0.79400  0.62600  0.20190  Biso   1.000  C
  C8       1.0000 0.74440  0.62660  0.31390  Biso   1.000  C
