data_image0
_cell_length_a       7.6569
_cell_length_b       15.241
_cell_length_c       7.6589
_cell_angle_alpha    90
_cell_angle_beta     92.74
_cell_angle_gamma    90

_symmetry_space_group_name_H-M    "P 1"
_symmetry_int_tables_number       1

loop_
  _symmetry_equiv_pos_as_xyz
  'x, y, z'

loop_
  _atom_site_label
  _atom_site_occupancy
  _atom_site_fract_x
  _atom_site_fract_y
  _atom_site_fract_z
  _atom_site_thermal_displace_type
  _atom_site_B_iso_or_equiv
  _atom_site_type_symbol
  Zn1      1.0000 0.19340  0.30000  0.90660  Biso   1.000  Zn
  Zn2      1.0000 0.91850  0.29540  0.21000  Biso   1.000  Zn
  Zn3      1.0000 0.19320  0.45600  0.19200  Biso   1.000  Zn
  Zn4      1.0000 0.87930  0.43570  0.90310  Biso   1.000  Zn
  P1       1.0000 0.07760  0.38260  0.55660  Biso   1.000  P
  P2       1.0000 0.99840  0.12560  0.98840  Biso   1.000  P
  P3       1.0000 0.54480  0.36200  0.08280  Biso   1.000  P
  O1       1.0000 0.04800  0.37150  0.05500  Biso   1.000  O
  O2       1.0000 0.42200  0.28500  0.03300  Biso   1.000  O
  O3       1.0000 0.23100  0.35720  0.68600  Biso   1.000  O
  O4       1.0000 0.07200  0.18960  0.85900  Biso   1.000  O
  O5       1.0000 0.02300  0.30160  0.44700  Biso   1.000  O
  O6       1.0000 0.67400  0.32890  0.23200  Biso   1.000  O
  O7       1.0000 0.93100  0.17300  0.14800  Biso   1.000  O
  O8       1.0000 0.13300  0.45670  0.43500  Biso   1.000  O
  O9       1.0000 0.84500  0.07510  0.89400  Biso   1.000  O
  O10      1.0000 0.44100  0.44110  0.15600  Biso   1.000  O
  O11      1.0000 0.64300  0.38920  0.92300  Biso   1.000  O
  O12      1.0000 0.92000  0.41560  0.65400  Biso   1.000  O
  O13      1.0000 0.14300  0.06030  0.04700  Biso   1.000  O
  Zn5      1.0000 0.80660  0.80000  0.09340  Biso   1.000  Zn
  Zn6      1.0000 0.08150  0.79540  0.79000  Biso   1.000  Zn
  Zn7      1.0000 0.80680  0.95600  0.80800  Biso   1.000  Zn
  Zn8      1.0000 0.12070  0.93570  0.09690  Biso   1.000  Zn
  P4       1.0000 0.92240  0.88260  0.44340  Biso   1.000  P
  P5       1.0000 0.00160  0.62560  0.01160  Biso   1.000  P
  P6       1.0000 0.45520  0.86200  0.91720  Biso   1.000  P
  O14      1.0000 0.95200  0.87150  0.94500  Biso   1.000  O
  O15      1.0000 0.57800  0.78500  0.96700  Biso   1.000  O
  O16      1.0000 0.76900  0.85720  0.31400  Biso   1.000  O
  O17      1.0000 0.92800  0.68960  0.14100  Biso   1.000  O
  O18      1.0000 0.97700  0.80160  0.55300  Biso   1.000  O
  O19      1.0000 0.32600  0.82890  0.76800  Biso   1.000  O
  O20      1.0000 0.06900  0.67300  0.85200  Biso   1.000  O
  O21      1.0000 0.86700  0.95670  0.56500  Biso   1.000  O
  O22      1.0000 0.15500  0.57510  0.10600  Biso   1.000  O
  O23      1.0000 0.55900  0.94110  0.84400  Biso   1.000  O
  O24      1.0000 0.35700  0.88920  0.07700  Biso   1.000  O
  O25      1.0000 0.08000  0.91560  0.34600  Biso   1.000  O
  O26      1.0000 0.85700  0.56030  0.95300  Biso   1.000  O
