data_WOHBIF_clean
_audit_creation_date              2014-07-02
_audit_creation_method            'Materials Studio'
_symmetry_space_group_name_H-M    'P1'
_symmetry_Int_Tables_number       1
_symmetry_cell_setting            triclinic
loop_
_symmetry_equiv_pos_as_xyz
  x,y,z
_cell_length_a                    9.1075
_cell_length_b                    12.5060
_cell_length_c                    12.5060
_cell_angle_alpha                 113.5320
_cell_angle_beta                  101.3970
_cell_angle_gamma                 78.6031
loop_
_atom_site_label
_atom_site_type_symbol
_atom_site_fract_x
_atom_site_fract_y
_atom_site_fract_z
_atom_site_U_iso_or_equiv
_atom_site_adp_type
_atom_site_occupancy
Cu1    Cu    0.68399   0.77371   0.17371   0.01267  Uiso   1.00
Cu2    Cu    0.82927   0.76034   0.37128   0.01267  Uiso   1.00
Cu3    Cu    0.31601   0.17371   0.77371   0.01267  Uiso   1.00
Cu4    Cu    0.17073   0.37128   0.76034   0.01267  Uiso   1.00
H1     H     0.44080   0.94010   0.08510   0.01267  Uiso   1.00
H2     H     0.26490   0.94280   0.92840   0.01267  Uiso   1.00
H3     H     0.39950   0.60170   0.76550   0.01267  Uiso   1.00
H4     H     0.58040   0.61000   0.92440   0.01267  Uiso   1.00
H5     H     0.94440   0.93300   0.61480   0.01267  Uiso   1.00
H6     H     0.12260   0.94460   0.77580   0.01267  Uiso   1.00
H7     H     0.23480   0.59300   0.62860   0.01267  Uiso   1.00
H8     H     0.05320   0.59310   0.47070   0.01267  Uiso   1.00
H9     H     0.48120   0.53790   0.32850   0.01267  Uiso   1.00
H10    H     0.30080   0.60200   0.14140   0.01267  Uiso   1.00
H11    H     0.26910   0.50120   0.17900   0.01267  Uiso   1.00
H12    H     0.50940   0.39370   0.12450   0.01267  Uiso   1.00
H13    H     0.53120   0.49220   0.07980   0.01267  Uiso   1.00
H14    H     0.37470   0.72220   0.45780   0.01267  Uiso   1.00
H15    H     0.27050   0.74650   0.34870   0.01267  Uiso   1.00
H16    H     0.24420   0.64240   0.38360   0.01267  Uiso   1.00
H17    H     0.16690   0.85870   0.20250   0.01267  Uiso   1.00
H18    H     0.23910   0.03420   0.35300   0.01267  Uiso   1.00
H19    H     0.20410   0.94500   0.40440   0.01267  Uiso   1.00
H20    H     0.96150   0.05970   0.44110   0.01267  Uiso   1.00
H21    H     0.00610   0.15160   0.39740   0.01267  Uiso   1.00
H22    H     0.12500   0.02850   0.16030   0.01267  Uiso   1.00
H23    H     0.00570   0.94000   0.08100   0.01267  Uiso   1.00
H24    H     0.95610   0.05410   0.19110   0.01267  Uiso   1.00
H25    H     0.55920   0.08510   0.94010   0.01267  Uiso   1.00
H26    H     0.73510   0.92840   0.94280   0.01267  Uiso   1.00
H27    H     0.60050   0.76550   0.60170   0.01267  Uiso   1.00
H28    H     0.41960   0.92440   0.61000   0.01267  Uiso   1.00
H29    H     0.05560   0.61480   0.93300   0.01267  Uiso   1.00
H30    H     0.87740   0.77580   0.94460   0.01267  Uiso   1.00
H31    H     0.76520   0.62860   0.59300   0.01267  Uiso   1.00
H32    H     0.94680   0.47070   0.59310   0.01267  Uiso   1.00
H33    H     0.51880   0.32850   0.53790   0.01267  Uiso   1.00
H34    H     0.69920   0.14140   0.60200   0.01267  Uiso   1.00
H35    H     0.73090   0.17900   0.50120   0.01267  Uiso   1.00
H36    H     0.49060   0.12450   0.39370   0.01267  Uiso   1.00
H37    H     0.46880   0.07980   0.49220   0.01267  Uiso   1.00
H38    H     0.62530   0.45780   0.72220   0.01267  Uiso   1.00
H39    H     0.72950   0.34870   0.74650   0.01267  Uiso   1.00
H40    H     0.75580   0.38360   0.64240   0.01267  Uiso   1.00
H41    H     0.83310   0.20250   0.85870   0.01267  Uiso   1.00
H42    H     0.76090   0.35300   0.03420   0.01267  Uiso   1.00
H43    H     0.79590   0.40440   0.94500   0.01267  Uiso   1.00
H44    H     0.03850   0.44110   0.05970   0.01267  Uiso   1.00
H45    H     0.99390   0.39740   0.15160   0.01267  Uiso   1.00
H46    H     0.87500   0.16030   0.02850   0.01267  Uiso   1.00
H47    H     0.99430   0.08100   0.94000   0.01267  Uiso   1.00
H48    H     0.04390   0.19110   0.05410   0.01267  Uiso   1.00
C1     C     0.43460   0.86930   0.01770   0.01267  Uiso   1.00
C2     C     0.32760   0.87140   0.92500   0.01267  Uiso   1.00
C3     C     0.31070   0.77250   0.82850   0.01267  Uiso   1.00
C4     C     0.40690   0.67420   0.83060   0.01267  Uiso   1.00
C5     C     0.51420   0.67950   0.92630   0.01267  Uiso   1.00
C6     C     0.00340   0.86230   0.61790   0.01267  Uiso   1.00
C7     C     0.10940   0.87010   0.71510   0.01267  Uiso   1.00
C8     C     0.19650   0.76940   0.72380   0.01267  Uiso   1.00
C9     C     0.17520   0.66450   0.62890   0.01267  Uiso   1.00
C10    C     0.06640   0.66540   0.53480   0.01267  Uiso   1.00
C11    C     0.55440   0.66910   0.29710   0.01267  Uiso   1.00
C12    C     0.43210   0.60020   0.29680   0.01267  Uiso   1.00
C13    C     0.34960   0.54090   0.17350   0.01267  Uiso   1.00
C14    C     0.45510   0.45140   0.08960   0.01267  Uiso   1.00
C15    C     0.37320   0.38700   0.97120   0.01267  Uiso   1.00
C16    C     0.32030   0.68550   0.37910   0.01267  Uiso   1.00
C17    C     0.95920   0.86410   0.24530   0.01267  Uiso   1.00
C18    C     0.08630   0.92320   0.23880   0.01267  Uiso   1.00
C19    C     0.15740   0.99770   0.36170   0.01267  Uiso   1.00
C20    C     0.04720   0.09509   0.43671   0.01267  Uiso   1.00
C21    C     0.11910   0.16190   0.56150   0.01267  Uiso   1.00
C22    C     0.03920   0.99246   0.16114   0.01267  Uiso   1.00
C23    C     0.56540   0.01770   0.86930   0.01267  Uiso   1.00
C24    C     0.67240   0.92500   0.87140   0.01267  Uiso   1.00
C25    C     0.68930   0.82850   0.77250   0.01267  Uiso   1.00
C26    C     0.59310   0.83060   0.67420   0.01267  Uiso   1.00
C27    C     0.48580   0.92630   0.67950   0.01267  Uiso   1.00
C28    C     0.99660   0.61790   0.86230   0.01267  Uiso   1.00
C29    C     0.89060   0.71510   0.87010   0.01267  Uiso   1.00
C30    C     0.80350   0.72380   0.76940   0.01267  Uiso   1.00
C31    C     0.82480   0.62890   0.66450   0.01267  Uiso   1.00
C32    C     0.93360   0.53480   0.66540   0.01267  Uiso   1.00
C33    C     0.44560   0.29710   0.66910   0.01267  Uiso   1.00
C34    C     0.56790   0.29680   0.60020   0.01267  Uiso   1.00
C35    C     0.65040   0.17350   0.54090   0.01267  Uiso   1.00
C36    C     0.54490   0.08960   0.45140   0.01267  Uiso   1.00
C37    C     0.62680   0.97120   0.38700   0.01267  Uiso   1.00
C38    C     0.67970   0.37910   0.68550   0.01267  Uiso   1.00
C39    C     0.04080   0.24530   0.86410   0.01267  Uiso   1.00
C40    C     0.91370   0.23880   0.92320   0.01267  Uiso   1.00
C41    C     0.84260   0.36170   0.99770   0.01267  Uiso   1.00
C42    C     0.95280   0.43671   0.09509   0.01267  Uiso   1.00
C43    C     0.88090   0.56150   0.16190   0.01267  Uiso   1.00
C44    C     0.96080   0.16114   0.99246   0.01267  Uiso   1.00
N1     N     0.52970   0.77640   0.02020   0.01267  Uiso   1.00
N2     N     0.97840   0.76330   0.52910   0.01267  Uiso   1.00
N3     N     0.47030   0.02020   0.77640   0.01267  Uiso   1.00
N4     N     0.02160   0.52910   0.76330   0.01267  Uiso   1.00
O1     O     0.53410   0.71101   0.21899   0.01267  Uiso   1.00
O2     O     0.66820   0.67654   0.37526   0.01267  Uiso   1.00
O3     O     0.39380   0.27454   0.93406   0.01267  Uiso   1.00
O4     O     0.29130   0.44406   0.91374   0.01267  Uiso   1.00
O5     O     0.85640   0.83776   0.15824   0.01267  Uiso   1.00
O6     O     0.96820   0.84083   0.33537   0.01267  Uiso   1.00
O7     O     0.21500   0.10269   0.61091   0.01267  Uiso   1.00
O8     O     0.07600   0.26961   0.60559   0.01267  Uiso   1.00
O9     O     0.46590   0.21899   0.71101   0.01267  Uiso   1.00
O10    O     0.33180   0.37526   0.67654   0.01267  Uiso   1.00
O11    O     0.60620   0.93406   0.27454   0.01267  Uiso   1.00
O12    O     0.70870   0.91374   0.44406   0.01267  Uiso   1.00
O13    O     0.14360   0.15824   0.83776   0.01267  Uiso   1.00
O14    O     0.03180   0.33537   0.84083   0.01267  Uiso   1.00
O15    O     0.78500   0.61091   0.10269   0.01267  Uiso   1.00
O16    O     0.92400   0.60559   0.26961   0.01267  Uiso   1.00
