data_image0
_cell_length_a       12.3484
_cell_length_b       12.466
_cell_length_c       14.098
_cell_angle_alpha    97.148
_cell_angle_beta     108.384
_cell_angle_gamma    119.315

_symmetry_space_group_name_H-M    "P 1"
_symmetry_int_tables_number       1

loop_
  _symmetry_equiv_pos_as_xyz
  'x, y, z'

loop_
  _atom_site_label
  _atom_site_occupancy
  _atom_site_fract_x
  _atom_site_fract_y
  _atom_site_fract_z
  _atom_site_thermal_displace_type
  _atom_site_B_iso_or_equiv
  _atom_site_type_symbol
  Cu1      1.0000 0.09316  0.42791  0.58510  Biso   1.000  Cu
  Cu2      1.0000 0.83913  0.31478  0.41109  Biso   1.000  Cu
  Cu3      1.0000 0.10148  0.50696  0.40835  Biso   1.000  Cu
  Mn1      1.0000 0.11058  0.01112  0.10698  Biso   1.000  Mn
  Mn2      1.0000 0.25358  0.31832  0.05971  Biso   1.000  Mn
  S1       1.0000 0.96085  0.28992  0.33229  Biso   1.000  S
  S2       1.0000 0.94951  0.36372  0.66347  Biso   1.000  S
  S3       1.0000 0.29938  0.62158  0.65959  Biso   1.000  S
  O1       1.0000 0.07580  0.12690  0.20693  Biso   1.000  O
  O2       1.0000 0.86250  0.98420  0.18659  Biso   1.000  O
  O3       1.0000 0.89700  0.10410  0.78120  Biso   1.000  O
  O4       1.0000 0.78010  0.18950  0.79990  Biso   1.000  O
  O5       1.0000 0.61980  0.65620  0.78420  Biso   1.000  O
  O6       1.0000 0.66830  0.85350  0.78334  Biso   1.000  O
  O7       1.0000 0.11310  0.11260  0.99459  Biso   1.000  O
  N1       1.0000 0.09670  0.27690  0.51690  Biso   1.000  N
  N2       1.0000 0.75620  0.17520  0.47610  Biso   1.000  N
  N3       1.0000 0.30480  0.57600  0.47070  Biso   1.000  N
  C1       1.0000 0.03870  0.22440  0.41020  Biso   1.000  C
  C2       1.0000 0.04060  0.12150  0.36090  Biso   1.000  C
  C3       1.0000 0.10170  0.07140  0.42320  Biso   1.000  C
  H1       1.0000 0.10270  0.00190  0.39200  Biso   1.000  H
  C4       1.0000 0.16160  0.12620  0.53320  Biso   1.000  C
  H2       1.0000 0.20400  0.09460  0.57670  Biso   1.000  H
  C5       1.0000 0.15670  0.22840  0.57640  Biso   1.000  C
  H3       1.0000 0.19690  0.26510  0.64990  Biso   1.000  H
  C6       1.0000 0.98650  0.07280  0.24220  Biso   1.000  C
  C7       1.0000 0.65010  0.05360  0.41250  Biso   1.000  C
  H4       1.0000 0.61550  0.03540  0.33940  Biso   1.000  H
  C8       1.0000 0.59040  0.95450  0.45100  Biso   1.000  C
  H5       1.0000 0.51630  0.87110  0.40510  Biso   1.000  H
  C9       1.0000 0.64300  0.98200  0.55980  Biso   1.000  C
  H6       1.0000 0.60470  0.91660  0.58780  Biso   1.000  H
  C10      1.0000 0.75240  0.10650  0.62660  Biso   1.000  C
  C11      1.0000 0.80770  0.20310  0.58150  Biso   1.000  C
  C12      1.0000 0.81380  0.13670  0.74530  Biso   1.000  C
  C13      1.0000 0.38200  0.62450  0.57650  Biso   1.000  C
  C14      1.0000 0.52280  0.67580  0.62070  Biso   1.000  C
  C15      1.0000 0.58280  0.67420  0.55310  Biso   1.000  C
  H7       1.0000 0.67630  0.70720  0.58080  Biso   1.000  H
  C16      1.0000 0.50370  0.62340  0.44400  Biso   1.000  C
  H8       1.0000 0.54270  0.62140  0.39760  Biso   1.000  H
  C17      1.0000 0.36610  0.57600  0.40660  Biso   1.000  C
  H9       1.0000 0.31260  0.54220  0.33360  Biso   1.000  H
  C18      1.0000 0.61060  0.73340  0.73970  Biso   1.000  C
  H10      1.0000 0.13300  0.09800  0.95600  Biso   1.000  H
  Cu4      1.0000 0.90684  0.57209  0.41490  Biso   1.000  Cu
  Cu5      1.0000 0.16087  0.68522  0.58891  Biso   1.000  Cu
  Cu6      1.0000 0.89852  0.49304  0.59165  Biso   1.000  Cu
  Mn3      1.0000 0.88942  0.98888  0.89302  Biso   1.000  Mn
  Mn4      1.0000 0.74642  0.68168  0.94029  Biso   1.000  Mn
  S4       1.0000 0.03915  0.71008  0.66771  Biso   1.000  S
  S5       1.0000 0.05049  0.63628  0.33653  Biso   1.000  S
  S6       1.0000 0.70062  0.37842  0.34041  Biso   1.000  S
  O8       1.0000 0.92420  0.87310  0.79307  Biso   1.000  O
  O9       1.0000 0.13750  0.01580  0.81341  Biso   1.000  O
  O10      1.0000 0.10300  0.89590  0.21880  Biso   1.000  O
  O11      1.0000 0.21990  0.81050  0.20010  Biso   1.000  O
  O12      1.0000 0.38020  0.34380  0.21580  Biso   1.000  O
  O13      1.0000 0.33170  0.14650  0.21666  Biso   1.000  O
  O14      1.0000 0.88690  0.88740  0.00541  Biso   1.000  O
  N4       1.0000 0.90330  0.72310  0.48310  Biso   1.000  N
  N5       1.0000 0.24380  0.82480  0.52390  Biso   1.000  N
  N6       1.0000 0.69520  0.42400  0.52930  Biso   1.000  N
  C19      1.0000 0.96130  0.77560  0.58980  Biso   1.000  C
  C20      1.0000 0.95940  0.87850  0.63910  Biso   1.000  C
  C21      1.0000 0.89830  0.92860  0.57680  Biso   1.000  C
  H11      1.0000 0.89730  0.99810  0.60800  Biso   1.000  H
  C22      1.0000 0.83840  0.87380  0.46680  Biso   1.000  C
  H12      1.0000 0.79600  0.90540  0.42330  Biso   1.000  H
  C23      1.0000 0.84330  0.77160  0.42360  Biso   1.000  C
  H13      1.0000 0.80310  0.73490  0.35010  Biso   1.000  H
  C24      1.0000 0.01350  0.92720  0.75780  Biso   1.000  C
  C25      1.0000 0.34990  0.94640  0.58750  Biso   1.000  C
  H14      1.0000 0.38450  0.96460  0.66060  Biso   1.000  H
  C26      1.0000 0.40960  0.04550  0.54900  Biso   1.000  C
  H15      1.0000 0.48370  0.12890  0.59490  Biso   1.000  H
  C27      1.0000 0.35700  0.01800  0.44020  Biso   1.000  C
  H16      1.0000 0.39530  0.08340  0.41220  Biso   1.000  H
  C28      1.0000 0.24760  0.89350  0.37340  Biso   1.000  C
  C29      1.0000 0.19230  0.79690  0.41850  Biso   1.000  C
  C30      1.0000 0.18620  0.86330  0.25470  Biso   1.000  C
  C31      1.0000 0.61800  0.37550  0.42350  Biso   1.000  C
  C32      1.0000 0.47720  0.32420  0.37930  Biso   1.000  C
  C33      1.0000 0.41720  0.32580  0.44690  Biso   1.000  C
  H17      1.0000 0.32370  0.29280  0.41920  Biso   1.000  H
  C34      1.0000 0.49630  0.37660  0.55600  Biso   1.000  C
  H18      1.0000 0.45730  0.37860  0.60240  Biso   1.000  H
  C35      1.0000 0.63390  0.42400  0.59340  Biso   1.000  C
  H19      1.0000 0.68740  0.45780  0.66640  Biso   1.000  H
  C36      1.0000 0.38940  0.26660  0.26030  Biso   1.000  C
  H20      1.0000 0.86700  0.90200  0.04400  Biso   1.000  H
