data_WOHSIV_clean
_audit_creation_date              2014-07-02
_audit_creation_method            'Materials Studio'
_symmetry_space_group_name_H-M    'P1'
_symmetry_Int_Tables_number       1
_symmetry_cell_setting            triclinic
loop_
_symmetry_equiv_pos_as_xyz
  x,y,z
_cell_length_a                    8.9750
_cell_length_b                    19.2430
_cell_length_c                    21.1300
_cell_angle_alpha                 90.0000
_cell_angle_beta                  90.0000
_cell_angle_gamma                 90.0000
loop_
_atom_site_label
_atom_site_type_symbol
_atom_site_fract_x
_atom_site_fract_y
_atom_site_fract_z
_atom_site_U_iso_or_equiv
_atom_site_adp_type
_atom_site_occupancy
Na1    Na    0.13600   0.00490   0.66460   0.01267  Uiso   1.00
Na2    Na    0.36400   0.99510   0.16460   0.01267  Uiso   1.00
Na3    Na    0.86400   0.50490   0.83540   0.01267  Uiso   1.00
Na4    Na    0.63600   0.49510   0.33540   0.01267  Uiso   1.00
Cu1    Cu    0.00840   0.07990   0.41019   0.01267  Uiso   1.00
Cu2    Cu    0.70370   0.17460   0.36250   0.01267  Uiso   1.00
Cu3    Cu    0.49160   0.92010   0.91019   0.01267  Uiso   1.00
Cu4    Cu    0.79630   0.82540   0.86250   0.01267  Uiso   1.00
Cu5    Cu    0.99160   0.57990   0.08981   0.01267  Uiso   1.00
Cu6    Cu    0.29630   0.67460   0.13750   0.01267  Uiso   1.00
Cu7    Cu    0.50840   0.42010   0.58981   0.01267  Uiso   1.00
Cu8    Cu    0.20370   0.32540   0.63750   0.01267  Uiso   1.00
H1     H     0.84796   0.16923   0.46059   0.01267  Uiso   1.00
H2     H     0.85097   0.95344   0.56245   0.01267  Uiso   1.00
H3     H     0.64809   0.97897   0.63442   0.01267  Uiso   1.00
H4     H     0.62729   0.09339   0.67177   0.01267  Uiso   1.00
H5     H     0.74820   0.18449   0.62603   0.01267  Uiso   1.00
H6     H     0.93473   0.16418   0.55168   0.01267  Uiso   1.00
H7     H     0.34051   0.89288   0.48083   0.01267  Uiso   1.00
H8     H     0.44371   0.87400   0.38010   0.01267  Uiso   1.00
H9     H     0.34575   0.93058   0.29092   0.01267  Uiso   1.00
H10    H     0.96503   0.09191   0.19782   0.01267  Uiso   1.00
H11    H     0.83900   0.17921   0.13986   0.01267  Uiso   1.00
H12    H     0.84200   0.29271   0.18022   0.01267  Uiso   1.00
H13    H     0.94014   0.31626   0.28001   0.01267  Uiso   1.00
H14    H     0.03499   0.22732   0.34109   0.01267  Uiso   1.00
H15    H     0.37940   0.14707   0.17836   0.01267  Uiso   1.00
H16    H     0.31133   0.26711   0.17501   0.01267  Uiso   1.00
H17    H     0.44269   0.34930   0.24211   0.01267  Uiso   1.00
H18    H     0.78123   0.98773   0.25069   0.01267  Uiso   1.00
H19    H     0.88915   0.87959   0.28597   0.01267  Uiso   1.00
H20    H     0.88464   0.84574   0.39196   0.01267  Uiso   1.00
H21    H     0.76243   0.91801   0.46555   0.01267  Uiso   1.00
H22    H     0.65966   0.02608   0.43231   0.01267  Uiso   1.00
H23    H     0.66127   0.24363   0.50284   0.01267  Uiso   1.00
H24    H     0.76244   0.29867   0.59429   0.01267  Uiso   1.00
H25    H     0.93979   0.38296   0.58688   0.01267  Uiso   1.00
H26    H     0.00386   0.42337   0.48479   0.01267  Uiso   1.00
H27    H     0.89801   0.37724   0.39099   0.01267  Uiso   1.00
H28    H     0.65204   0.83077   0.96059   0.01267  Uiso   1.00
H29    H     0.64903   0.04656   0.06245   0.01267  Uiso   1.00
H30    H     0.85191   0.02103   0.13442   0.01267  Uiso   1.00
H31    H     0.87271   0.90661   0.17177   0.01267  Uiso   1.00
H32    H     0.75180   0.81551   0.12603   0.01267  Uiso   1.00
H33    H     0.56527   0.83582   0.05168   0.01267  Uiso   1.00
H34    H     0.15949   0.10712   0.98083   0.01267  Uiso   1.00
H35    H     0.05629   0.12600   0.88010   0.01267  Uiso   1.00
H36    H     0.15425   0.06942   0.79092   0.01267  Uiso   1.00
H37    H     0.53497   0.90809   0.69782   0.01267  Uiso   1.00
H38    H     0.66100   0.82079   0.63986   0.01267  Uiso   1.00
H39    H     0.65800   0.70729   0.68022   0.01267  Uiso   1.00
H40    H     0.55986   0.68374   0.78001   0.01267  Uiso   1.00
H41    H     0.46501   0.77268   0.84109   0.01267  Uiso   1.00
H42    H     0.12060   0.85293   0.67836   0.01267  Uiso   1.00
H43    H     0.18867   0.73289   0.67501   0.01267  Uiso   1.00
H44    H     0.05731   0.65070   0.74211   0.01267  Uiso   1.00
H45    H     0.71877   0.01227   0.75069   0.01267  Uiso   1.00
H46    H     0.61085   0.12041   0.78597   0.01267  Uiso   1.00
H47    H     0.61536   0.15426   0.89196   0.01267  Uiso   1.00
H48    H     0.73757   0.08199   0.96555   0.01267  Uiso   1.00
H49    H     0.84034   0.97392   0.93231   0.01267  Uiso   1.00
H50    H     0.83873   0.75637   0.00284   0.01267  Uiso   1.00
H51    H     0.73756   0.70133   0.09429   0.01267  Uiso   1.00
H52    H     0.56021   0.61704   0.08688   0.01267  Uiso   1.00
H53    H     0.49614   0.57663   0.98479   0.01267  Uiso   1.00
H54    H     0.60199   0.62276   0.89099   0.01267  Uiso   1.00
H55    H     0.15204   0.66923   0.03941   0.01267  Uiso   1.00
H56    H     0.14903   0.45344   0.93755   0.01267  Uiso   1.00
H57    H     0.35191   0.47897   0.86558   0.01267  Uiso   1.00
H58    H     0.37271   0.59339   0.82823   0.01267  Uiso   1.00
H59    H     0.25180   0.68449   0.87397   0.01267  Uiso   1.00
H60    H     0.06527   0.66418   0.94832   0.01267  Uiso   1.00
H61    H     0.65949   0.39288   0.01917   0.01267  Uiso   1.00
H62    H     0.55629   0.37400   0.11990   0.01267  Uiso   1.00
H63    H     0.65425   0.43058   0.20908   0.01267  Uiso   1.00
H64    H     0.03497   0.59191   0.30218   0.01267  Uiso   1.00
H65    H     0.16100   0.67921   0.36014   0.01267  Uiso   1.00
H66    H     0.15800   0.79271   0.31978   0.01267  Uiso   1.00
H67    H     0.05986   0.81626   0.21999   0.01267  Uiso   1.00
H68    H     0.96501   0.72732   0.15891   0.01267  Uiso   1.00
H69    H     0.62060   0.64707   0.32164   0.01267  Uiso   1.00
H70    H     0.68867   0.76711   0.32499   0.01267  Uiso   1.00
H71    H     0.55731   0.84930   0.25789   0.01267  Uiso   1.00
H72    H     0.21877   0.48773   0.24931   0.01267  Uiso   1.00
H73    H     0.11085   0.37959   0.21403   0.01267  Uiso   1.00
H74    H     0.11536   0.34574   0.10804   0.01267  Uiso   1.00
H75    H     0.23757   0.41801   0.03445   0.01267  Uiso   1.00
H76    H     0.34034   0.52608   0.06769   0.01267  Uiso   1.00
H77    H     0.33873   0.74363   0.99716   0.01267  Uiso   1.00
H78    H     0.23756   0.79867   0.90571   0.01267  Uiso   1.00
H79    H     0.06021   0.88296   0.91312   0.01267  Uiso   1.00
H80    H     0.99614   0.92337   0.01521   0.01267  Uiso   1.00
H81    H     0.10199   0.87724   0.10901   0.01267  Uiso   1.00
H82    H     0.34796   0.33077   0.53941   0.01267  Uiso   1.00
H83    H     0.35097   0.54656   0.43755   0.01267  Uiso   1.00
H84    H     0.14809   0.52103   0.36558   0.01267  Uiso   1.00
H85    H     0.12729   0.40661   0.32823   0.01267  Uiso   1.00
H86    H     0.24820   0.31551   0.37397   0.01267  Uiso   1.00
H87    H     0.43473   0.33582   0.44832   0.01267  Uiso   1.00
H88    H     0.84051   0.60712   0.51917   0.01267  Uiso   1.00
H89    H     0.94371   0.62600   0.61990   0.01267  Uiso   1.00
H90    H     0.84575   0.56942   0.70908   0.01267  Uiso   1.00
H91    H     0.46503   0.40809   0.80218   0.01267  Uiso   1.00
H92    H     0.33900   0.32079   0.86014   0.01267  Uiso   1.00
H93    H     0.34200   0.20729   0.81978   0.01267  Uiso   1.00
H94    H     0.44014   0.18374   0.71999   0.01267  Uiso   1.00
H95    H     0.53499   0.27268   0.65891   0.01267  Uiso   1.00
H96    H     0.87940   0.35293   0.82164   0.01267  Uiso   1.00
H97    H     0.81133   0.23289   0.82499   0.01267  Uiso   1.00
H98    H     0.94269   0.15070   0.75789   0.01267  Uiso   1.00
H99    H     0.28123   0.51227   0.74931   0.01267  Uiso   1.00
H100   H     0.38915   0.62041   0.71403   0.01267  Uiso   1.00
H101   H     0.38464   0.65426   0.60804   0.01267  Uiso   1.00
H102   H     0.26243   0.58199   0.53445   0.01267  Uiso   1.00
H103   H     0.15966   0.47392   0.56769   0.01267  Uiso   1.00
H104   H     0.16127   0.25637   0.49716   0.01267  Uiso   1.00
H105   H     0.26244   0.20133   0.40571   0.01267  Uiso   1.00
H106   H     0.43979   0.11704   0.41312   0.01267  Uiso   1.00
H107   H     0.50386   0.07663   0.51521   0.01267  Uiso   1.00
H108   H     0.39801   0.12276   0.60901   0.01267  Uiso   1.00
C1     C     0.90700   0.05500   0.54730   0.01267  Uiso   1.00
C2     C     0.82600   0.00000   0.57500   0.01267  Uiso   1.00
C3     C     0.71900   0.01500   0.61900   0.01267  Uiso   1.00
C4     C     0.69300   0.08400   0.63700   0.01267  Uiso   1.00
C5     C     0.77400   0.13500   0.61200   0.01267  Uiso   1.00
C6     C     0.87800   0.12300   0.56850   0.01267  Uiso   1.00
C7     C     0.12100   0.99390   0.50950   0.01267  Uiso   1.00
C8     C     0.19900   0.97460   0.45130   0.01267  Uiso   1.00
C9     C     0.30800   0.92100   0.44490   0.01267  Uiso   1.00
C10    C     0.36600   0.91200   0.38600   0.01267  Uiso   1.00
C11    C     0.31500   0.94500   0.33420   0.01267  Uiso   1.00
C12    C     0.20800   0.99640   0.34150   0.01267  Uiso   1.00
C13    C     0.14700   0.04550   0.29290   0.01267  Uiso   1.00
C14    C     0.00300   0.14750   0.27640   0.01267  Uiso   1.00
C15    C     0.94400   0.13600   0.21800   0.01267  Uiso   1.00
C16    C     0.88400   0.18800   0.18300   0.01267  Uiso   1.00
C17    C     0.88200   0.25500   0.20600   0.01267  Uiso   1.00
C18    C     0.94000   0.26800   0.26500   0.01267  Uiso   1.00
C19    C     0.99700   0.21570   0.29980   0.01267  Uiso   1.00
C20    C     0.70700   0.01510   0.34010   0.01267  Uiso   1.00
C21    C     0.78100   0.97320   0.29770   0.01267  Uiso   1.00
C22    C     0.84100   0.91200   0.31700   0.01267  Uiso   1.00
C23    C     0.83500   0.88990   0.38000   0.01267  Uiso   1.00
C24    C     0.76700   0.93200   0.42160   0.01267  Uiso   1.00
C25    C     0.70800   0.99400   0.40200   0.01267  Uiso   1.00
C26    C     0.57000   0.08500   0.27020   0.01267  Uiso   1.00
C27    C     0.51100   0.15980   0.25710   0.01267  Uiso   1.00
C28    C     0.41800   0.18100   0.21200   0.01267  Uiso   1.00
C29    C     0.38700   0.25000   0.20600   0.01267  Uiso   1.00
C30    C     0.45600   0.29950   0.24700   0.01267  Uiso   1.00
C31    C     0.55100   0.27440   0.28970   0.01267  Uiso   1.00
C32    C     0.63200   0.31540   0.34020   0.01267  Uiso   1.00
C33    C     0.75900   0.30730   0.43940   0.01267  Uiso   1.00
C34    C     0.72600   0.28270   0.49740   0.01267  Uiso   1.00
C35    C     0.78900   0.31300   0.55180   0.01267  Uiso   1.00
C36    C     0.89300   0.36500   0.54800   0.01267  Uiso   1.00
C37    C     0.92800   0.38800   0.48700   0.01267  Uiso   1.00
C38    C     0.86600   0.36100   0.43300   0.01267  Uiso   1.00
C39    C     0.59300   0.94500   0.04730   0.01267  Uiso   1.00
C40    C     0.67400   0.00000   0.07500   0.01267  Uiso   1.00
C41    C     0.78100   0.98500   0.11900   0.01267  Uiso   1.00
C42    C     0.80700   0.91600   0.13700   0.01267  Uiso   1.00
C43    C     0.72600   0.86500   0.11200   0.01267  Uiso   1.00
C44    C     0.62200   0.87700   0.06850   0.01267  Uiso   1.00
C45    C     0.37900   0.00610   0.00950   0.01267  Uiso   1.00
C46    C     0.30100   0.02540   0.95130   0.01267  Uiso   1.00
C47    C     0.19200   0.07900   0.94490   0.01267  Uiso   1.00
C48    C     0.13400   0.08800   0.88600   0.01267  Uiso   1.00
C49    C     0.18500   0.05500   0.83420   0.01267  Uiso   1.00
C50    C     0.29200   0.00360   0.84150   0.01267  Uiso   1.00
C51    C     0.35300   0.95450   0.79290   0.01267  Uiso   1.00
C52    C     0.49700   0.85250   0.77640   0.01267  Uiso   1.00
C53    C     0.55600   0.86400   0.71800   0.01267  Uiso   1.00
C54    C     0.61600   0.81200   0.68300   0.01267  Uiso   1.00
C55    C     0.61800   0.74500   0.70600   0.01267  Uiso   1.00
C56    C     0.56000   0.73200   0.76500   0.01267  Uiso   1.00
C57    C     0.50300   0.78430   0.79980   0.01267  Uiso   1.00
C58    C     0.79300   0.98490   0.84010   0.01267  Uiso   1.00
C59    C     0.71900   0.02680   0.79770   0.01267  Uiso   1.00
C60    C     0.65900   0.08800   0.81700   0.01267  Uiso   1.00
C61    C     0.66500   0.11010   0.88000   0.01267  Uiso   1.00
C62    C     0.73300   0.06800   0.92160   0.01267  Uiso   1.00
C63    C     0.79200   0.00600   0.90200   0.01267  Uiso   1.00
C64    C     0.93000   0.91500   0.77020   0.01267  Uiso   1.00
C65    C     0.98900   0.84020   0.75710   0.01267  Uiso   1.00
C66    C     0.08200   0.81900   0.71200   0.01267  Uiso   1.00
C67    C     0.11300   0.75000   0.70600   0.01267  Uiso   1.00
C68    C     0.04400   0.70050   0.74700   0.01267  Uiso   1.00
C69    C     0.94900   0.72560   0.78970   0.01267  Uiso   1.00
C70    C     0.86800   0.68460   0.84020   0.01267  Uiso   1.00
C71    C     0.74100   0.69270   0.93940   0.01267  Uiso   1.00
C72    C     0.77400   0.71730   0.99740   0.01267  Uiso   1.00
C73    C     0.71100   0.68700   0.05180   0.01267  Uiso   1.00
C74    C     0.60700   0.63500   0.04800   0.01267  Uiso   1.00
C75    C     0.57200   0.61200   0.98700   0.01267  Uiso   1.00
C76    C     0.63400   0.63900   0.93300   0.01267  Uiso   1.00
C77    C     0.09300   0.55500   0.95270   0.01267  Uiso   1.00
C78    C     0.17400   0.50000   0.92500   0.01267  Uiso   1.00
C79    C     0.28100   0.51500   0.88100   0.01267  Uiso   1.00
C80    C     0.30700   0.58400   0.86300   0.01267  Uiso   1.00
C81    C     0.22600   0.63500   0.88800   0.01267  Uiso   1.00
C82    C     0.12200   0.62300   0.93150   0.01267  Uiso   1.00
C83    C     0.87900   0.49390   0.99050   0.01267  Uiso   1.00
C84    C     0.80100   0.47460   0.04870   0.01267  Uiso   1.00
C85    C     0.69200   0.42100   0.05510   0.01267  Uiso   1.00
C86    C     0.63400   0.41200   0.11400   0.01267  Uiso   1.00
C87    C     0.68500   0.44500   0.16580   0.01267  Uiso   1.00
C88    C     0.79200   0.49640   0.15850   0.01267  Uiso   1.00
C89    C     0.85300   0.54550   0.20710   0.01267  Uiso   1.00
C90    C     0.99700   0.64750   0.22360   0.01267  Uiso   1.00
C91    C     0.05600   0.63600   0.28200   0.01267  Uiso   1.00
C92    C     0.11600   0.68800   0.31700   0.01267  Uiso   1.00
C93    C     0.11800   0.75500   0.29400   0.01267  Uiso   1.00
C94    C     0.06000   0.76800   0.23500   0.01267  Uiso   1.00
C95    C     0.00300   0.71570   0.20020   0.01267  Uiso   1.00
C96    C     0.29300   0.51510   0.15990   0.01267  Uiso   1.00
C97    C     0.21900   0.47320   0.20230   0.01267  Uiso   1.00
C98    C     0.15900   0.41200   0.18300   0.01267  Uiso   1.00
C99    C     0.16500   0.38990   0.12000   0.01267  Uiso   1.00
C100   C     0.23300   0.43200   0.07840   0.01267  Uiso   1.00
C101   C     0.29200   0.49400   0.09800   0.01267  Uiso   1.00
C102   C     0.43000   0.58500   0.22980   0.01267  Uiso   1.00
C103   C     0.48900   0.65980   0.24290   0.01267  Uiso   1.00
C104   C     0.58200   0.68100   0.28800   0.01267  Uiso   1.00
C105   C     0.61300   0.75000   0.29400   0.01267  Uiso   1.00
C106   C     0.54400   0.79950   0.25300   0.01267  Uiso   1.00
C107   C     0.44900   0.77440   0.21030   0.01267  Uiso   1.00
C108   C     0.36800   0.81540   0.15980   0.01267  Uiso   1.00
C109   C     0.24100   0.80730   0.06060   0.01267  Uiso   1.00
C110   C     0.27400   0.78270   0.00260   0.01267  Uiso   1.00
C111   C     0.21100   0.81300   0.94820   0.01267  Uiso   1.00
C112   C     0.10700   0.86500   0.95200   0.01267  Uiso   1.00
C113   C     0.07200   0.88800   0.01300   0.01267  Uiso   1.00
C114   C     0.13400   0.86100   0.06700   0.01267  Uiso   1.00
C115   C     0.40700   0.44500   0.45270   0.01267  Uiso   1.00
C116   C     0.32600   0.50000   0.42500   0.01267  Uiso   1.00
C117   C     0.21900   0.48500   0.38100   0.01267  Uiso   1.00
C118   C     0.19300   0.41600   0.36300   0.01267  Uiso   1.00
C119   C     0.27400   0.36500   0.38800   0.01267  Uiso   1.00
C120   C     0.37800   0.37700   0.43150   0.01267  Uiso   1.00
C121   C     0.62100   0.50610   0.49050   0.01267  Uiso   1.00
C122   C     0.69900   0.52540   0.54870   0.01267  Uiso   1.00
C123   C     0.80800   0.57900   0.55510   0.01267  Uiso   1.00
C124   C     0.86600   0.58800   0.61400   0.01267  Uiso   1.00
C125   C     0.81500   0.55500   0.66580   0.01267  Uiso   1.00
C126   C     0.70800   0.50360   0.65850   0.01267  Uiso   1.00
C127   C     0.64700   0.45450   0.70710   0.01267  Uiso   1.00
C128   C     0.50300   0.35250   0.72360   0.01267  Uiso   1.00
C129   C     0.44400   0.36400   0.78200   0.01267  Uiso   1.00
C130   C     0.38400   0.31200   0.81700   0.01267  Uiso   1.00
C131   C     0.38200   0.24500   0.79400   0.01267  Uiso   1.00
C132   C     0.44000   0.23200   0.73500   0.01267  Uiso   1.00
C133   C     0.49700   0.28430   0.70020   0.01267  Uiso   1.00
C134   C     0.20700   0.48490   0.65990   0.01267  Uiso   1.00
C135   C     0.28100   0.52680   0.70230   0.01267  Uiso   1.00
C136   C     0.34100   0.58800   0.68300   0.01267  Uiso   1.00
C137   C     0.33500   0.61010   0.62000   0.01267  Uiso   1.00
C138   C     0.26700   0.56800   0.57840   0.01267  Uiso   1.00
C139   C     0.20800   0.50600   0.59800   0.01267  Uiso   1.00
C140   C     0.07000   0.41500   0.72980   0.01267  Uiso   1.00
C141   C     0.01100   0.34020   0.74290   0.01267  Uiso   1.00
C142   C     0.91800   0.31900   0.78800   0.01267  Uiso   1.00
C143   C     0.88700   0.25000   0.79400   0.01267  Uiso   1.00
C144   C     0.95600   0.20050   0.75300   0.01267  Uiso   1.00
C145   C     0.05100   0.22560   0.71030   0.01267  Uiso   1.00
C146   C     0.13200   0.18460   0.65980   0.01267  Uiso   1.00
C147   C     0.25900   0.19270   0.56060   0.01267  Uiso   1.00
C148   C     0.22600   0.21730   0.50260   0.01267  Uiso   1.00
C149   C     0.28900   0.18700   0.44820   0.01267  Uiso   1.00
C150   C     0.39300   0.13500   0.45200   0.01267  Uiso   1.00
C151   C     0.42800   0.11200   0.51300   0.01267  Uiso   1.00
C152   C     0.36600   0.13900   0.56700   0.01267  Uiso   1.00
N1     N     0.01800   0.04200   0.49930   0.01267  Uiso   1.00
N2     N     0.15300   0.00820   0.39940   0.01267  Uiso   1.00
N3     N     0.06200   0.09590   0.31820   0.01267  Uiso   1.00
N4     N     0.64600   0.08170   0.32260   0.01267  Uiso   1.00
N5     N     0.57500   0.20710   0.29580   0.01267  Uiso   1.00
N6     N     0.68500   0.27520   0.38590   0.01267  Uiso   1.00
N7     N     0.48200   0.95800   0.99930   0.01267  Uiso   1.00
N8     N     0.34700   0.99180   0.89940   0.01267  Uiso   1.00
N9     N     0.43800   0.90410   0.81820   0.01267  Uiso   1.00
N10    N     0.85400   0.91830   0.82260   0.01267  Uiso   1.00
N11    N     0.92500   0.79290   0.79580   0.01267  Uiso   1.00
N12    N     0.81500   0.72480   0.88590   0.01267  Uiso   1.00
N13    N     0.98200   0.54200   0.00070   0.01267  Uiso   1.00
N14    N     0.84700   0.50820   0.10060   0.01267  Uiso   1.00
N15    N     0.93800   0.59590   0.18180   0.01267  Uiso   1.00
N16    N     0.35400   0.58170   0.17740   0.01267  Uiso   1.00
N17    N     0.42500   0.70710   0.20420   0.01267  Uiso   1.00
N18    N     0.31500   0.77520   0.11410   0.01267  Uiso   1.00
N19    N     0.51800   0.45800   0.50070   0.01267  Uiso   1.00
N20    N     0.65300   0.49180   0.60060   0.01267  Uiso   1.00
N21    N     0.56200   0.40410   0.68180   0.01267  Uiso   1.00
N22    N     0.14600   0.41830   0.67740   0.01267  Uiso   1.00
N23    N     0.07500   0.29290   0.70420   0.01267  Uiso   1.00
N24    N     0.18500   0.22480   0.61410   0.01267  Uiso   1.00
O1     O     0.85200   0.14560   0.41930   0.01267  Uiso   1.00
O2     O     0.15700   0.96490   0.56070   0.01267  Uiso   1.00
O3     O     0.17800   0.03700   0.23620   0.01267  Uiso   1.00
O4     O     0.53200   0.03970   0.23320   0.01267  Uiso   1.00
O5     O     0.64300   0.37960   0.33220   0.01267  Uiso   1.00
O6     O     0.64800   0.85440   0.91930   0.01267  Uiso   1.00
O7     O     0.34300   0.03510   0.06070   0.01267  Uiso   1.00
O8     O     0.32200   0.96300   0.73620   0.01267  Uiso   1.00
O9     O     0.96800   0.96030   0.73320   0.01267  Uiso   1.00
O10    O     0.85700   0.62040   0.83220   0.01267  Uiso   1.00
O11    O     0.14800   0.64560   0.08070   0.01267  Uiso   1.00
O12    O     0.84300   0.46490   0.93930   0.01267  Uiso   1.00
O13    O     0.82200   0.53700   0.26380   0.01267  Uiso   1.00
O14    O     0.46800   0.53970   0.26680   0.01267  Uiso   1.00
O15    O     0.35700   0.87960   0.16780   0.01267  Uiso   1.00
O16    O     0.35200   0.35440   0.58070   0.01267  Uiso   1.00
O17    O     0.65700   0.53510   0.43930   0.01267  Uiso   1.00
O18    O     0.67800   0.46300   0.76380   0.01267  Uiso   1.00
O19    O     0.03200   0.46030   0.76680   0.01267  Uiso   1.00
O20    O     0.14300   0.12040   0.66780   0.01267  Uiso   1.00
