data_WOHZAU_clean
_audit_creation_date              2014-07-02
_audit_creation_method            'Materials Studio'
_symmetry_space_group_name_H-M    'P1'
_symmetry_Int_Tables_number       1
_symmetry_cell_setting            triclinic
loop_
_symmetry_equiv_pos_as_xyz
  x,y,z
_cell_length_a                    9.0835
_cell_length_b                    9.0835
_cell_length_c                    15.9193
_cell_angle_alpha                 88.4173
_cell_angle_beta                  88.4173
_cell_angle_gamma                 84.7717
loop_
_atom_site_label
_atom_site_type_symbol
_atom_site_fract_x
_atom_site_fract_y
_atom_site_fract_z
_atom_site_U_iso_or_equiv
_atom_site_adp_type
_atom_site_occupancy
Er1    Er    0.47757   0.27785   0.01099   0.01267  Uiso   1.00
Er2    Er    0.72215   0.52243   0.48901   0.01267  Uiso   1.00
Er3    Er    0.52243   0.72215   0.98901   0.01267  Uiso   1.00
Er4    Er    0.27785   0.47757   0.51099   0.01267  Uiso   1.00
H1     H     0.74450   0.06530   0.77820   0.01267  Uiso   1.00
H2     H     0.55500   0.84980   0.73270   0.01267  Uiso   1.00
H3     H     0.71580   0.81100   0.76550   0.01267  Uiso   1.00
H4     H     0.81480   0.93580   0.64680   0.01267  Uiso   1.00
H5     H     0.51870   0.98170   0.58930   0.01267  Uiso   1.00
H6     H     0.65750   0.02930   0.53800   0.01267  Uiso   1.00
H7     H     0.69830   0.20530   0.63840   0.01267  Uiso   1.00
H8     H     0.44490   0.12150   0.73050   0.01267  Uiso   1.00
H9     H     0.54410   0.24410   0.75720   0.01267  Uiso   1.00
H10    H     0.93470   0.25550   0.72180   0.01267  Uiso   1.00
H11    H     0.15020   0.44500   0.76730   0.01267  Uiso   1.00
H12    H     0.18900   0.28420   0.73450   0.01267  Uiso   1.00
H13    H     0.06420   0.18520   0.85320   0.01267  Uiso   1.00
H14    H     0.01830   0.48130   0.91070   0.01267  Uiso   1.00
H15    H     0.97070   0.34250   0.96200   0.01267  Uiso   1.00
H16    H     0.79470   0.30170   0.86160   0.01267  Uiso   1.00
H17    H     0.87850   0.55510   0.76950   0.01267  Uiso   1.00
H18    H     0.75590   0.45590   0.74280   0.01267  Uiso   1.00
H19    H     0.25550   0.93470   0.22180   0.01267  Uiso   1.00
H20    H     0.44500   0.15020   0.26730   0.01267  Uiso   1.00
H21    H     0.28420   0.18900   0.23450   0.01267  Uiso   1.00
H22    H     0.18520   0.06420   0.35320   0.01267  Uiso   1.00
H23    H     0.48130   0.01830   0.41070   0.01267  Uiso   1.00
H24    H     0.34250   0.97070   0.46200   0.01267  Uiso   1.00
H25    H     0.30170   0.79470   0.36160   0.01267  Uiso   1.00
H26    H     0.55510   0.87850   0.26950   0.01267  Uiso   1.00
H27    H     0.45590   0.75590   0.24280   0.01267  Uiso   1.00
H28    H     0.06530   0.74450   0.27820   0.01267  Uiso   1.00
H29    H     0.84980   0.55500   0.23270   0.01267  Uiso   1.00
H30    H     0.81100   0.71580   0.26550   0.01267  Uiso   1.00
H31    H     0.93580   0.81480   0.14680   0.01267  Uiso   1.00
H32    H     0.98170   0.51870   0.08930   0.01267  Uiso   1.00
H33    H     0.02930   0.65750   0.03800   0.01267  Uiso   1.00
H34    H     0.20530   0.69830   0.13840   0.01267  Uiso   1.00
H35    H     0.12150   0.44490   0.23050   0.01267  Uiso   1.00
H36    H     0.24410   0.54410   0.25720   0.01267  Uiso   1.00
C1     C     0.64460   0.03280   0.77840   0.01267  Uiso   1.00
C2     C     0.65300   0.88400   0.73430   0.01267  Uiso   1.00
C3     C     0.71600   0.90120   0.64420   0.01267  Uiso   1.00
C4     C     0.61570   0.01670   0.59420   0.01267  Uiso   1.00
C5     C     0.60100   0.16660   0.63850   0.01267  Uiso   1.00
C6     C     0.54530   0.14990   0.72980   0.01267  Uiso   1.00
C7     C     0.58840   0.02560   0.86880   0.01267  Uiso   1.00
C8     C     0.72710   0.75910   0.59680   0.01267  Uiso   1.00
C9     C     0.49580   0.27440   0.59040   0.01267  Uiso   1.00
C10    C     0.96720   0.35540   0.72160   0.01267  Uiso   1.00
C11    C     0.11600   0.34700   0.76570   0.01267  Uiso   1.00
C12    C     0.09880   0.28400   0.85580   0.01267  Uiso   1.00
C13    C     0.98330   0.38430   0.90580   0.01267  Uiso   1.00
C14    C     0.83340   0.39900   0.86150   0.01267  Uiso   1.00
C15    C     0.85010   0.45470   0.77020   0.01267  Uiso   1.00
C16    C     0.97440   0.41160   0.63120   0.01267  Uiso   1.00
C17    C     0.24090   0.27290   0.90320   0.01267  Uiso   1.00
C18    C     0.72560   0.50420   0.90960   0.01267  Uiso   1.00
C19    C     0.35540   0.96720   0.22160   0.01267  Uiso   1.00
C20    C     0.34700   0.11600   0.26570   0.01267  Uiso   1.00
C21    C     0.28400   0.09880   0.35580   0.01267  Uiso   1.00
C22    C     0.38430   0.98330   0.40580   0.01267  Uiso   1.00
C23    C     0.39900   0.83340   0.36150   0.01267  Uiso   1.00
C24    C     0.45470   0.85010   0.27020   0.01267  Uiso   1.00
C25    C     0.41160   0.97440   0.13120   0.01267  Uiso   1.00
C26    C     0.27290   0.24090   0.40320   0.01267  Uiso   1.00
C27    C     0.50420   0.72560   0.40960   0.01267  Uiso   1.00
C28    C     0.03280   0.64460   0.27840   0.01267  Uiso   1.00
C29    C     0.88400   0.65300   0.23430   0.01267  Uiso   1.00
C30    C     0.90120   0.71600   0.14420   0.01267  Uiso   1.00
C31    C     0.01670   0.61570   0.09420   0.01267  Uiso   1.00
C32    C     0.16660   0.60100   0.13850   0.01267  Uiso   1.00
C33    C     0.14990   0.54530   0.22980   0.01267  Uiso   1.00
C34    C     0.02560   0.58840   0.36880   0.01267  Uiso   1.00
C35    C     0.75910   0.72710   0.09680   0.01267  Uiso   1.00
C36    C     0.27440   0.49580   0.09040   0.01267  Uiso   1.00
O1     O     0.59260   0.14080   0.91020   0.01267  Uiso   1.00
O2     O     0.53990   0.90950   0.89760   0.01267  Uiso   1.00
O3     O     0.83860   0.72600   0.54920   0.01267  Uiso   1.00
O4     O     0.62300   0.67660   0.60060   0.01267  Uiso   1.00
O5     O     0.54240   0.38260   0.54950   0.01267  Uiso   1.00
O6     O     0.36080   0.25640   0.59030   0.01267  Uiso   1.00
O7     O     0.85920   0.40740   0.58980   0.01267  Uiso   1.00
O8     O     0.09050   0.46010   0.60240   0.01267  Uiso   1.00
O9     O     0.27400   0.16140   0.95080   0.01267  Uiso   1.00
O10    O     0.32340   0.37700   0.89940   0.01267  Uiso   1.00
O11    O     0.61740   0.45760   0.95050   0.01267  Uiso   1.00
O12    O     0.74360   0.63920   0.90970   0.01267  Uiso   1.00
O13    O     0.40740   0.85920   0.08980   0.01267  Uiso   1.00
O14    O     0.46010   0.09050   0.10240   0.01267  Uiso   1.00
O15    O     0.16140   0.27400   0.45080   0.01267  Uiso   1.00
O16    O     0.37700   0.32340   0.39940   0.01267  Uiso   1.00
O17    O     0.45760   0.61740   0.45050   0.01267  Uiso   1.00
O18    O     0.63920   0.74360   0.40970   0.01267  Uiso   1.00
O19    O     0.14080   0.59260   0.41020   0.01267  Uiso   1.00
O20    O     0.90950   0.53990   0.39760   0.01267  Uiso   1.00
O21    O     0.72600   0.83860   0.04920   0.01267  Uiso   1.00
O22    O     0.67660   0.62300   0.10060   0.01267  Uiso   1.00
O23    O     0.38260   0.54240   0.04950   0.01267  Uiso   1.00
O24    O     0.25640   0.36080   0.09030   0.01267  Uiso   1.00
