data_image0
_cell_length_a       24.8443
_cell_length_b       12.8836
_cell_length_c       15.0538
_cell_angle_alpha    90
_cell_angle_beta     96.709
_cell_angle_gamma    90

_symmetry_space_group_name_H-M    "P 1"
_symmetry_int_tables_number       1

loop_
  _symmetry_equiv_pos_as_xyz
  'x, y, z'

loop_
  _atom_site_label
  _atom_site_occupancy
  _atom_site_fract_x
  _atom_site_fract_y
  _atom_site_fract_z
  _atom_site_thermal_displace_type
  _atom_site_B_iso_or_equiv
  _atom_site_type_symbol
  Ce1      1.0000 0.32881  0.79696  0.03383  Biso   1.000  Ce
  O1       1.0000 0.30629  0.74110  0.87850  Biso   1.000  O
  O2       1.0000 0.22817  0.65570  0.84840  Biso   1.000  O
  O3       1.0000 0.20203  0.45270  0.56060  Biso   1.000  O
  O4       1.0000 0.27345  0.36060  0.53670  Biso   1.000  O
  O5       1.0000 0.59850  0.66790  0.50160  Biso   1.000  O
  O6       1.0000 0.58481  0.82930  0.54030  Biso   1.000  O
  C1       1.0000 0.27550  0.67850  0.83410  Biso   1.000  C
  C2       1.0000 0.29716  0.62780  0.75490  Biso   1.000  C
  C3       1.0000 0.26597  0.56010  0.70040  Biso   1.000  C
  H1       1.0000 0.23020  0.54800  0.71030  Biso   1.000  H
  C4       1.0000 0.28700  0.50970  0.63110  Biso   1.000  C
  C5       1.0000 0.25216  0.43610  0.57300  Biso   1.000  C
  C6       1.0000 0.33989  0.53060  0.61440  Biso   1.000  C
  H2       1.0000 0.35440  0.49530  0.56880  Biso   1.000  H
  C7       1.0000 0.37135  0.60360  0.66490  Biso   1.000  C
  C8       1.0000 0.34965  0.65050  0.73650  Biso   1.000  C
  H3       1.0000 0.37050  0.69760  0.77250  Biso   1.000  H
  C9       1.0000 0.42532  0.63600  0.64070  Biso   1.000  C
  C10      1.0000 0.45978  0.56530  0.60720  Biso   1.000  C
  H4       1.0000 0.45050  0.49530  0.60440  Biso   1.000  H
  C11      1.0000 0.50795  0.59720  0.57780  Biso   1.000  C
  H5       1.0000 0.53080  0.54850  0.55630  Biso   1.000  H
  C12      1.0000 0.52220  0.70070  0.58000  Biso   1.000  C
  C13      1.0000 0.57176  0.73460  0.53830  Biso   1.000  C
  C14      1.0000 0.48970  0.76970  0.61620  Biso   1.000  C
  H6       1.0000 0.49990  0.83910  0.62080  Biso   1.000  H
  C15      1.0000 0.44150  0.73880  0.64640  Biso   1.000  C
  H7       1.0000 0.41980  0.78760  0.67080  Biso   1.000  H
  Ce2      1.0000 0.82881  0.29696  0.03383  Biso   1.000  Ce
  O7       1.0000 0.80629  0.24110  0.87850  Biso   1.000  O
  O8       1.0000 0.72817  0.15570  0.84840  Biso   1.000  O
  O9       1.0000 0.70203  0.95270  0.56060  Biso   1.000  O
  O10      1.0000 0.77345  0.86060  0.53670  Biso   1.000  O
  O11      1.0000 0.09850  0.16790  0.50160  Biso   1.000  O
  O12      1.0000 0.08481  0.32930  0.54030  Biso   1.000  O
  C16      1.0000 0.77550  0.17850  0.83410  Biso   1.000  C
  C17      1.0000 0.79716  0.12780  0.75490  Biso   1.000  C
  C18      1.0000 0.76597  0.06010  0.70040  Biso   1.000  C
  H8       1.0000 0.73020  0.04800  0.71030  Biso   1.000  H
  C19      1.0000 0.78700  0.00970  0.63110  Biso   1.000  C
  C20      1.0000 0.75216  0.93610  0.57300  Biso   1.000  C
  C21      1.0000 0.83989  0.03060  0.61440  Biso   1.000  C
  H9       1.0000 0.85440  0.99530  0.56880  Biso   1.000  H
  C22      1.0000 0.87135  0.10360  0.66490  Biso   1.000  C
  C23      1.0000 0.84965  0.15050  0.73650  Biso   1.000  C
  H10      1.0000 0.87050  0.19760  0.77250  Biso   1.000  H
  C24      1.0000 0.92532  0.13600  0.64070  Biso   1.000  C
  C25      1.0000 0.95978  0.06530  0.60720  Biso   1.000  C
  H11      1.0000 0.95050  0.99530  0.60440  Biso   1.000  H
  C26      1.0000 0.00795  0.09720  0.57780  Biso   1.000  C
  H12      1.0000 0.03080  0.04850  0.55630  Biso   1.000  H
  C27      1.0000 0.02220  0.20070  0.58000  Biso   1.000  C
  C28      1.0000 0.07176  0.23460  0.53830  Biso   1.000  C
  C29      1.0000 0.98970  0.26970  0.61620  Biso   1.000  C
  H13      1.0000 0.99990  0.33910  0.62080  Biso   1.000  H
  C30      1.0000 0.94150  0.23880  0.64640  Biso   1.000  C
  H14      1.0000 0.91980  0.28760  0.67080  Biso   1.000  H
  Ce3      1.0000 0.67119  0.79696  0.46617  Biso   1.000  Ce
  O13      1.0000 0.69371  0.74110  0.62150  Biso   1.000  O
  O14      1.0000 0.77183  0.65570  0.65160  Biso   1.000  O
  O15      1.0000 0.79797  0.45270  0.93940  Biso   1.000  O
  O16      1.0000 0.72655  0.36060  0.96330  Biso   1.000  O
  O17      1.0000 0.40150  0.66790  0.99840  Biso   1.000  O
  O18      1.0000 0.41519  0.82930  0.95970  Biso   1.000  O
  C31      1.0000 0.72450  0.67850  0.66590  Biso   1.000  C
  C32      1.0000 0.70284  0.62780  0.74510  Biso   1.000  C
  C33      1.0000 0.73403  0.56010  0.79960  Biso   1.000  C
  H15      1.0000 0.76980  0.54800  0.78970  Biso   1.000  H
  C34      1.0000 0.71300  0.50970  0.86890  Biso   1.000  C
  C35      1.0000 0.74784  0.43610  0.92700  Biso   1.000  C
  C36      1.0000 0.66011  0.53060  0.88560  Biso   1.000  C
  H16      1.0000 0.64560  0.49530  0.93120  Biso   1.000  H
  C37      1.0000 0.62865  0.60360  0.83510  Biso   1.000  C
  C38      1.0000 0.65035  0.65050  0.76350  Biso   1.000  C
  H17      1.0000 0.62950  0.69760  0.72750  Biso   1.000  H
  C39      1.0000 0.57468  0.63600  0.85930  Biso   1.000  C
  C40      1.0000 0.54022  0.56530  0.89280  Biso   1.000  C
  H18      1.0000 0.54950  0.49530  0.89560  Biso   1.000  H
  C41      1.0000 0.49205  0.59720  0.92220  Biso   1.000  C
  H19      1.0000 0.46920  0.54850  0.94370  Biso   1.000  H
  C42      1.0000 0.47780  0.70070  0.92000  Biso   1.000  C
  C43      1.0000 0.42824  0.73460  0.96170  Biso   1.000  C
  C44      1.0000 0.51030  0.76970  0.88380  Biso   1.000  C
  H20      1.0000 0.50010  0.83910  0.87920  Biso   1.000  H
  C45      1.0000 0.55850  0.73880  0.85360  Biso   1.000  C
  H21      1.0000 0.58020  0.78760  0.82920  Biso   1.000  H
  Ce4      1.0000 0.17119  0.29696  0.46617  Biso   1.000  Ce
  O19      1.0000 0.19371  0.24110  0.62150  Biso   1.000  O
  O20      1.0000 0.27183  0.15570  0.65160  Biso   1.000  O
  O21      1.0000 0.29797  0.95270  0.93940  Biso   1.000  O
  O22      1.0000 0.22655  0.86060  0.96330  Biso   1.000  O
  O23      1.0000 0.90150  0.16790  0.99840  Biso   1.000  O
  O24      1.0000 0.91519  0.32930  0.95970  Biso   1.000  O
  C46      1.0000 0.22450  0.17850  0.66590  Biso   1.000  C
  C47      1.0000 0.20284  0.12780  0.74510  Biso   1.000  C
  C48      1.0000 0.23403  0.06010  0.79960  Biso   1.000  C
  H22      1.0000 0.26980  0.04800  0.78970  Biso   1.000  H
  C49      1.0000 0.21300  0.00970  0.86890  Biso   1.000  C
  C50      1.0000 0.24784  0.93610  0.92700  Biso   1.000  C
  C51      1.0000 0.16011  0.03060  0.88560  Biso   1.000  C
  H23      1.0000 0.14560  0.99530  0.93120  Biso   1.000  H
  C52      1.0000 0.12865  0.10360  0.83510  Biso   1.000  C
  C53      1.0000 0.15035  0.15050  0.76350  Biso   1.000  C
  H24      1.0000 0.12950  0.19760  0.72750  Biso   1.000  H
  C54      1.0000 0.07468  0.13600  0.85930  Biso   1.000  C
  C55      1.0000 0.04022  0.06530  0.89280  Biso   1.000  C
  H25      1.0000 0.04950  0.99530  0.89560  Biso   1.000  H
  C56      1.0000 0.99205  0.09720  0.92220  Biso   1.000  C
  H26      1.0000 0.96920  0.04850  0.94370  Biso   1.000  H
  C57      1.0000 0.97780  0.20070  0.92000  Biso   1.000  C
  C58      1.0000 0.92824  0.23460  0.96170  Biso   1.000  C
  C59      1.0000 0.01030  0.26970  0.88380  Biso   1.000  C
  H27      1.0000 0.00010  0.33910  0.87920  Biso   1.000  H
  C60      1.0000 0.05850  0.23880  0.85360  Biso   1.000  C
  H28      1.0000 0.08020  0.28760  0.82920  Biso   1.000  H
  Ce5      1.0000 0.67119  0.20304  0.96617  Biso   1.000  Ce
  O25      1.0000 0.69371  0.25890  0.12150  Biso   1.000  O
  O26      1.0000 0.77183  0.34430  0.15160  Biso   1.000  O
  O27      1.0000 0.79797  0.54730  0.43940  Biso   1.000  O
  O28      1.0000 0.72655  0.63940  0.46330  Biso   1.000  O
  O29      1.0000 0.40150  0.33210  0.49840  Biso   1.000  O
  O30      1.0000 0.41519  0.17070  0.45970  Biso   1.000  O
  C61      1.0000 0.72450  0.32150  0.16590  Biso   1.000  C
  C62      1.0000 0.70284  0.37220  0.24510  Biso   1.000  C
  C63      1.0000 0.73403  0.43990  0.29960  Biso   1.000  C
  H29      1.0000 0.76980  0.45200  0.28970  Biso   1.000  H
  C64      1.0000 0.71300  0.49030  0.36890  Biso   1.000  C
  C65      1.0000 0.74784  0.56390  0.42700  Biso   1.000  C
  C66      1.0000 0.66011  0.46940  0.38560  Biso   1.000  C
  H30      1.0000 0.64560  0.50470  0.43120  Biso   1.000  H
  C67      1.0000 0.62865  0.39640  0.33510  Biso   1.000  C
  C68      1.0000 0.65035  0.34950  0.26350  Biso   1.000  C
  H31      1.0000 0.62950  0.30240  0.22750  Biso   1.000  H
  C69      1.0000 0.57468  0.36400  0.35930  Biso   1.000  C
  C70      1.0000 0.54022  0.43470  0.39280  Biso   1.000  C
  H32      1.0000 0.54950  0.50470  0.39560  Biso   1.000  H
  C71      1.0000 0.49205  0.40280  0.42220  Biso   1.000  C
  H33      1.0000 0.46920  0.45150  0.44370  Biso   1.000  H
  C72      1.0000 0.47780  0.29930  0.42000  Biso   1.000  C
  C73      1.0000 0.42824  0.26540  0.46170  Biso   1.000  C
  C74      1.0000 0.51030  0.23030  0.38380  Biso   1.000  C
  H34      1.0000 0.50010  0.16090  0.37920  Biso   1.000  H
  C75      1.0000 0.55850  0.26120  0.35360  Biso   1.000  C
  H35      1.0000 0.58020  0.21240  0.32920  Biso   1.000  H
  Ce6      1.0000 0.17119  0.70304  0.96617  Biso   1.000  Ce
  O31      1.0000 0.19371  0.75890  0.12150  Biso   1.000  O
  O32      1.0000 0.27183  0.84430  0.15160  Biso   1.000  O
  O33      1.0000 0.29797  0.04730  0.43940  Biso   1.000  O
  O34      1.0000 0.22655  0.13940  0.46330  Biso   1.000  O
  O35      1.0000 0.90150  0.83210  0.49840  Biso   1.000  O
  O36      1.0000 0.91519  0.67070  0.45970  Biso   1.000  O
  C76      1.0000 0.22450  0.82150  0.16590  Biso   1.000  C
  C77      1.0000 0.20284  0.87220  0.24510  Biso   1.000  C
  C78      1.0000 0.23403  0.93990  0.29960  Biso   1.000  C
  H36      1.0000 0.26980  0.95200  0.28970  Biso   1.000  H
  C79      1.0000 0.21300  0.99030  0.36890  Biso   1.000  C
  C80      1.0000 0.24784  0.06390  0.42700  Biso   1.000  C
  C81      1.0000 0.16011  0.96940  0.38560  Biso   1.000  C
  H37      1.0000 0.14560  0.00470  0.43120  Biso   1.000  H
  C82      1.0000 0.12865  0.89640  0.33510  Biso   1.000  C
  C83      1.0000 0.15035  0.84950  0.26350  Biso   1.000  C
  H38      1.0000 0.12950  0.80240  0.22750  Biso   1.000  H
  C84      1.0000 0.07468  0.86400  0.35930  Biso   1.000  C
  C85      1.0000 0.04022  0.93470  0.39280  Biso   1.000  C
  H39      1.0000 0.04950  0.00470  0.39560  Biso   1.000  H
  C86      1.0000 0.99205  0.90280  0.42220  Biso   1.000  C
  H40      1.0000 0.96920  0.95150  0.44370  Biso   1.000  H
  C87      1.0000 0.97780  0.79930  0.42000  Biso   1.000  C
  C88      1.0000 0.92824  0.76540  0.46170  Biso   1.000  C
  C89      1.0000 0.01030  0.73030  0.38380  Biso   1.000  C
  H41      1.0000 0.00010  0.66090  0.37920  Biso   1.000  H
  C90      1.0000 0.05850  0.76120  0.35360  Biso   1.000  C
  H42      1.0000 0.08020  0.71240  0.32920  Biso   1.000  H
  Ce7      1.0000 0.32881  0.20304  0.53383  Biso   1.000  Ce
  O37      1.0000 0.30629  0.25890  0.37850  Biso   1.000  O
  O38      1.0000 0.22817  0.34430  0.34840  Biso   1.000  O
  O39      1.0000 0.20203  0.54730  0.06060  Biso   1.000  O
  O40      1.0000 0.27345  0.63940  0.03670  Biso   1.000  O
  O41      1.0000 0.59850  0.33210  0.00160  Biso   1.000  O
  O42      1.0000 0.58481  0.17070  0.04030  Biso   1.000  O
  C91      1.0000 0.27550  0.32150  0.33410  Biso   1.000  C
  C92      1.0000 0.29716  0.37220  0.25490  Biso   1.000  C
  C93      1.0000 0.26597  0.43990  0.20040  Biso   1.000  C
  H43      1.0000 0.23020  0.45200  0.21030  Biso   1.000  H
  C94      1.0000 0.28700  0.49030  0.13110  Biso   1.000  C
  C95      1.0000 0.25216  0.56390  0.07300  Biso   1.000  C
  C96      1.0000 0.33989  0.46940  0.11440  Biso   1.000  C
  H44      1.0000 0.35440  0.50470  0.06880  Biso   1.000  H
  C97      1.0000 0.37135  0.39640  0.16490  Biso   1.000  C
  C98      1.0000 0.34965  0.34950  0.23650  Biso   1.000  C
  H45      1.0000 0.37050  0.30240  0.27250  Biso   1.000  H
  C99      1.0000 0.42532  0.36400  0.14070  Biso   1.000  C
  C100     1.0000 0.45978  0.43470  0.10720  Biso   1.000  C
  H46      1.0000 0.45050  0.50470  0.10440  Biso   1.000  H
  C101     1.0000 0.50795  0.40280  0.07780  Biso   1.000  C
  H47      1.0000 0.53080  0.45150  0.05630  Biso   1.000  H
  C102     1.0000 0.52220  0.29930  0.08000  Biso   1.000  C
  C103     1.0000 0.57176  0.26540  0.03830  Biso   1.000  C
  C104     1.0000 0.48970  0.23030  0.11620  Biso   1.000  C
  H48      1.0000 0.49990  0.16090  0.12080  Biso   1.000  H
  C105     1.0000 0.44150  0.26120  0.14640  Biso   1.000  C
  H49      1.0000 0.41980  0.21240  0.17080  Biso   1.000  H
  Ce8      1.0000 0.82881  0.70304  0.53383  Biso   1.000  Ce
  O43      1.0000 0.80629  0.75890  0.37850  Biso   1.000  O
  O44      1.0000 0.72817  0.84430  0.34840  Biso   1.000  O
  O45      1.0000 0.70203  0.04730  0.06060  Biso   1.000  O
  O46      1.0000 0.77345  0.13940  0.03670  Biso   1.000  O
  O47      1.0000 0.09850  0.83210  0.00160  Biso   1.000  O
  O48      1.0000 0.08481  0.67070  0.04030  Biso   1.000  O
  C106     1.0000 0.77550  0.82150  0.33410  Biso   1.000  C
  C107     1.0000 0.79716  0.87220  0.25490  Biso   1.000  C
  C108     1.0000 0.76597  0.93990  0.20040  Biso   1.000  C
  H50      1.0000 0.73020  0.95200  0.21030  Biso   1.000  H
  C109     1.0000 0.78700  0.99030  0.13110  Biso   1.000  C
  C110     1.0000 0.75216  0.06390  0.07300  Biso   1.000  C
  C111     1.0000 0.83989  0.96940  0.11440  Biso   1.000  C
  H51      1.0000 0.85440  0.00470  0.06880  Biso   1.000  H
  C112     1.0000 0.87135  0.89640  0.16490  Biso   1.000  C
  C113     1.0000 0.84965  0.84950  0.23650  Biso   1.000  C
  H52      1.0000 0.87050  0.80240  0.27250  Biso   1.000  H
  C114     1.0000 0.92532  0.86400  0.14070  Biso   1.000  C
  C115     1.0000 0.95978  0.93470  0.10720  Biso   1.000  C
  H53      1.0000 0.95050  0.00470  0.10440  Biso   1.000  H
  C116     1.0000 0.00795  0.90280  0.07780  Biso   1.000  C
  H54      1.0000 0.03080  0.95150  0.05630  Biso   1.000  H
  C117     1.0000 0.02220  0.79930  0.08000  Biso   1.000  C
  C118     1.0000 0.07176  0.76540  0.03830  Biso   1.000  C
  C119     1.0000 0.98970  0.73030  0.11620  Biso   1.000  C
  H55      1.0000 0.99990  0.66090  0.12080  Biso   1.000  H
  C120     1.0000 0.94150  0.76120  0.14640  Biso   1.000  C
  H56      1.0000 0.91980  0.71240  0.17080  Biso   1.000  H
