data_image0
_cell_length_a       24.5711
_cell_length_b       13.2963
_cell_length_c       14.7313
_cell_angle_alpha    90
_cell_angle_beta     96.735
_cell_angle_gamma    90

_symmetry_space_group_name_H-M    "P 1"
_symmetry_int_tables_number       1

loop_
  _symmetry_equiv_pos_as_xyz
  'x, y, z'

loop_
  _atom_site_label
  _atom_site_occupancy
  _atom_site_fract_x
  _atom_site_fract_y
  _atom_site_fract_z
  _atom_site_thermal_displace_type
  _atom_site_B_iso_or_equiv
  _atom_site_type_symbol
  Eu1      1.0000 0.32877  0.79250  0.03020  Biso   1.000  Eu
  O1       1.0000 0.30450  0.73430  0.87940  Biso   1.000  O
  O2       1.0000 0.22569  0.64930  0.85390  Biso   1.000  O
  O3       1.0000 0.20160  0.43960  0.56240  Biso   1.000  O
  O4       1.0000 0.27490  0.35300  0.54240  Biso   1.000  O
  O5       1.0000 0.60060  0.66600  0.50070  Biso   1.000  O
  O6       1.0000 0.58690  0.81970  0.54380  Biso   1.000  O
  C1       1.0000 0.27310  0.67240  0.83650  Biso   1.000  C
  C2       1.0000 0.29510  0.62140  0.75620  Biso   1.000  C
  C3       1.0000 0.26420  0.55190  0.70240  Biso   1.000  C
  H1       1.0000 0.22840  0.53840  0.71330  Biso   1.000  H
  C4       1.0000 0.28620  0.50240  0.63270  Biso   1.000  C
  C5       1.0000 0.25200  0.42640  0.57680  Biso   1.000  C
  C6       1.0000 0.33920  0.52400  0.61510  Biso   1.000  C
  H2       1.0000 0.35450  0.48780  0.57040  Biso   1.000  H
  C7       1.0000 0.37000  0.59910  0.66340  Biso   1.000  C
  C8       1.0000 0.34700  0.64490  0.73640  Biso   1.000  C
  H3       1.0000 0.36750  0.69220  0.77230  Biso   1.000  H
  C9       1.0000 0.42400  0.63110  0.63870  Biso   1.000  C
  C10      1.0000 0.45990  0.56350  0.60590  Biso   1.000  C
  H4       1.0000 0.45070  0.49570  0.60230  Biso   1.000  H
  C11      1.0000 0.50890  0.59440  0.57840  Biso   1.000  C
  H5       1.0000 0.53260  0.54700  0.55840  Biso   1.000  H
  C12      1.0000 0.52320  0.69570  0.58000  Biso   1.000  C
  C13      1.0000 0.57370  0.72810  0.53900  Biso   1.000  C
  C14      1.0000 0.48850  0.76200  0.61530  Biso   1.000  C
  H6       1.0000 0.49800  0.82970  0.61940  Biso   1.000  H
  C15      1.0000 0.44020  0.73140  0.64470  Biso   1.000  C
  H7       1.0000 0.41790  0.77840  0.66910  Biso   1.000  H
  Eu2      1.0000 0.82877  0.29250  0.03020  Biso   1.000  Eu
  O7       1.0000 0.80450  0.23430  0.87940  Biso   1.000  O
  O8       1.0000 0.72569  0.14930  0.85390  Biso   1.000  O
  O9       1.0000 0.70160  0.93960  0.56240  Biso   1.000  O
  O10      1.0000 0.77490  0.85300  0.54240  Biso   1.000  O
  O11      1.0000 0.10060  0.16600  0.50070  Biso   1.000  O
  O12      1.0000 0.08690  0.31970  0.54380  Biso   1.000  O
  C16      1.0000 0.77310  0.17240  0.83650  Biso   1.000  C
  C17      1.0000 0.79510  0.12140  0.75620  Biso   1.000  C
  C18      1.0000 0.76420  0.05190  0.70240  Biso   1.000  C
  H8       1.0000 0.72840  0.03840  0.71330  Biso   1.000  H
  C19      1.0000 0.78620  0.00240  0.63270  Biso   1.000  C
  C20      1.0000 0.75200  0.92640  0.57680  Biso   1.000  C
  C21      1.0000 0.83920  0.02400  0.61510  Biso   1.000  C
  H9       1.0000 0.85450  0.98780  0.57040  Biso   1.000  H
  C22      1.0000 0.87000  0.09910  0.66340  Biso   1.000  C
  C23      1.0000 0.84700  0.14490  0.73640  Biso   1.000  C
  H10      1.0000 0.86750  0.19220  0.77230  Biso   1.000  H
  C24      1.0000 0.92400  0.13110  0.63870  Biso   1.000  C
  C25      1.0000 0.95990  0.06350  0.60590  Biso   1.000  C
  H11      1.0000 0.95070  0.99570  0.60230  Biso   1.000  H
  C26      1.0000 0.00890  0.09440  0.57840  Biso   1.000  C
  H12      1.0000 0.03260  0.04700  0.55840  Biso   1.000  H
  C27      1.0000 0.02320  0.19570  0.58000  Biso   1.000  C
  C28      1.0000 0.07370  0.22810  0.53900  Biso   1.000  C
  C29      1.0000 0.98850  0.26200  0.61530  Biso   1.000  C
  H13      1.0000 0.99800  0.32970  0.61940  Biso   1.000  H
  C30      1.0000 0.94020  0.23140  0.64470  Biso   1.000  C
  H14      1.0000 0.91790  0.27840  0.66910  Biso   1.000  H
  Eu3      1.0000 0.67123  0.79250  0.46980  Biso   1.000  Eu
  O13      1.0000 0.69550  0.73430  0.62060  Biso   1.000  O
  O14      1.0000 0.77431  0.64930  0.64610  Biso   1.000  O
  O15      1.0000 0.79840  0.43960  0.93760  Biso   1.000  O
  O16      1.0000 0.72510  0.35300  0.95760  Biso   1.000  O
  O17      1.0000 0.39940  0.66600  0.99930  Biso   1.000  O
  O18      1.0000 0.41310  0.81970  0.95620  Biso   1.000  O
  C31      1.0000 0.72690  0.67240  0.66350  Biso   1.000  C
  C32      1.0000 0.70490  0.62140  0.74380  Biso   1.000  C
  C33      1.0000 0.73580  0.55190  0.79760  Biso   1.000  C
  H15      1.0000 0.77160  0.53840  0.78670  Biso   1.000  H
  C34      1.0000 0.71380  0.50240  0.86730  Biso   1.000  C
  C35      1.0000 0.74800  0.42640  0.92320  Biso   1.000  C
  C36      1.0000 0.66080  0.52400  0.88490  Biso   1.000  C
  H16      1.0000 0.64550  0.48780  0.92960  Biso   1.000  H
  C37      1.0000 0.63000  0.59910  0.83660  Biso   1.000  C
  C38      1.0000 0.65300  0.64490  0.76360  Biso   1.000  C
  H17      1.0000 0.63250  0.69220  0.72770  Biso   1.000  H
  C39      1.0000 0.57600  0.63110  0.86130  Biso   1.000  C
  C40      1.0000 0.54010  0.56350  0.89410  Biso   1.000  C
  H18      1.0000 0.54930  0.49570  0.89770  Biso   1.000  H
  C41      1.0000 0.49110  0.59440  0.92160  Biso   1.000  C
  H19      1.0000 0.46740  0.54700  0.94160  Biso   1.000  H
  C42      1.0000 0.47680  0.69570  0.92000  Biso   1.000  C
  C43      1.0000 0.42630  0.72810  0.96100  Biso   1.000  C
  C44      1.0000 0.51150  0.76200  0.88470  Biso   1.000  C
  H20      1.0000 0.50200  0.82970  0.88060  Biso   1.000  H
  C45      1.0000 0.55980  0.73140  0.85530  Biso   1.000  C
  H21      1.0000 0.58210  0.77840  0.83090  Biso   1.000  H
  Eu4      1.0000 0.17123  0.29250  0.46980  Biso   1.000  Eu
  O19      1.0000 0.19550  0.23430  0.62060  Biso   1.000  O
  O20      1.0000 0.27431  0.14930  0.64610  Biso   1.000  O
  O21      1.0000 0.29840  0.93960  0.93760  Biso   1.000  O
  O22      1.0000 0.22510  0.85300  0.95760  Biso   1.000  O
  O23      1.0000 0.89940  0.16600  0.99930  Biso   1.000  O
  O24      1.0000 0.91310  0.31970  0.95620  Biso   1.000  O
  C46      1.0000 0.22690  0.17240  0.66350  Biso   1.000  C
  C47      1.0000 0.20490  0.12140  0.74380  Biso   1.000  C
  C48      1.0000 0.23580  0.05190  0.79760  Biso   1.000  C
  H22      1.0000 0.27160  0.03840  0.78670  Biso   1.000  H
  C49      1.0000 0.21380  0.00240  0.86730  Biso   1.000  C
  C50      1.0000 0.24800  0.92640  0.92320  Biso   1.000  C
  C51      1.0000 0.16080  0.02400  0.88490  Biso   1.000  C
  H23      1.0000 0.14550  0.98780  0.92960  Biso   1.000  H
  C52      1.0000 0.13000  0.09910  0.83660  Biso   1.000  C
  C53      1.0000 0.15300  0.14490  0.76360  Biso   1.000  C
  H24      1.0000 0.13250  0.19220  0.72770  Biso   1.000  H
  C54      1.0000 0.07600  0.13110  0.86130  Biso   1.000  C
  C55      1.0000 0.04010  0.06350  0.89410  Biso   1.000  C
  H25      1.0000 0.04930  0.99570  0.89770  Biso   1.000  H
  C56      1.0000 0.99110  0.09440  0.92160  Biso   1.000  C
  H26      1.0000 0.96740  0.04700  0.94160  Biso   1.000  H
  C57      1.0000 0.97680  0.19570  0.92000  Biso   1.000  C
  C58      1.0000 0.92630  0.22810  0.96100  Biso   1.000  C
  C59      1.0000 0.01150  0.26200  0.88470  Biso   1.000  C
  H27      1.0000 0.00200  0.32970  0.88060  Biso   1.000  H
  C60      1.0000 0.05980  0.23140  0.85530  Biso   1.000  C
  H28      1.0000 0.08210  0.27840  0.83090  Biso   1.000  H
  Eu5      1.0000 0.67123  0.20750  0.96980  Biso   1.000  Eu
  O25      1.0000 0.69550  0.26570  0.12060  Biso   1.000  O
  O26      1.0000 0.77431  0.35070  0.14610  Biso   1.000  O
  O27      1.0000 0.79840  0.56040  0.43760  Biso   1.000  O
  O28      1.0000 0.72510  0.64700  0.45760  Biso   1.000  O
  O29      1.0000 0.39940  0.33400  0.49930  Biso   1.000  O
  O30      1.0000 0.41310  0.18030  0.45620  Biso   1.000  O
  C61      1.0000 0.72690  0.32760  0.16350  Biso   1.000  C
  C62      1.0000 0.70490  0.37860  0.24380  Biso   1.000  C
  C63      1.0000 0.73580  0.44810  0.29760  Biso   1.000  C
  H29      1.0000 0.77160  0.46160  0.28670  Biso   1.000  H
  C64      1.0000 0.71380  0.49760  0.36730  Biso   1.000  C
  C65      1.0000 0.74800  0.57360  0.42320  Biso   1.000  C
  C66      1.0000 0.66080  0.47600  0.38490  Biso   1.000  C
  H30      1.0000 0.64550  0.51220  0.42960  Biso   1.000  H
  C67      1.0000 0.63000  0.40090  0.33660  Biso   1.000  C
  C68      1.0000 0.65300  0.35510  0.26360  Biso   1.000  C
  H31      1.0000 0.63250  0.30780  0.22770  Biso   1.000  H
  C69      1.0000 0.57600  0.36890  0.36130  Biso   1.000  C
  C70      1.0000 0.54010  0.43650  0.39410  Biso   1.000  C
  H32      1.0000 0.54930  0.50430  0.39770  Biso   1.000  H
  C71      1.0000 0.49110  0.40560  0.42160  Biso   1.000  C
  H33      1.0000 0.46740  0.45300  0.44160  Biso   1.000  H
  C72      1.0000 0.47680  0.30430  0.42000  Biso   1.000  C
  C73      1.0000 0.42630  0.27190  0.46100  Biso   1.000  C
  C74      1.0000 0.51150  0.23800  0.38470  Biso   1.000  C
  H34      1.0000 0.50200  0.17030  0.38060  Biso   1.000  H
  C75      1.0000 0.55980  0.26860  0.35530  Biso   1.000  C
  H35      1.0000 0.58210  0.22160  0.33090  Biso   1.000  H
  Eu6      1.0000 0.17123  0.70750  0.96980  Biso   1.000  Eu
  O31      1.0000 0.19550  0.76570  0.12060  Biso   1.000  O
  O32      1.0000 0.27431  0.85070  0.14610  Biso   1.000  O
  O33      1.0000 0.29840  0.06040  0.43760  Biso   1.000  O
  O34      1.0000 0.22510  0.14700  0.45760  Biso   1.000  O
  O35      1.0000 0.89940  0.83400  0.49930  Biso   1.000  O
  O36      1.0000 0.91310  0.68030  0.45620  Biso   1.000  O
  C76      1.0000 0.22690  0.82760  0.16350  Biso   1.000  C
  C77      1.0000 0.20490  0.87860  0.24380  Biso   1.000  C
  C78      1.0000 0.23580  0.94810  0.29760  Biso   1.000  C
  H36      1.0000 0.27160  0.96160  0.28670  Biso   1.000  H
  C79      1.0000 0.21380  0.99760  0.36730  Biso   1.000  C
  C80      1.0000 0.24800  0.07360  0.42320  Biso   1.000  C
  C81      1.0000 0.16080  0.97600  0.38490  Biso   1.000  C
  H37      1.0000 0.14550  0.01220  0.42960  Biso   1.000  H
  C82      1.0000 0.13000  0.90090  0.33660  Biso   1.000  C
  C83      1.0000 0.15300  0.85510  0.26360  Biso   1.000  C
  H38      1.0000 0.13250  0.80780  0.22770  Biso   1.000  H
  C84      1.0000 0.07600  0.86890  0.36130  Biso   1.000  C
  C85      1.0000 0.04010  0.93650  0.39410  Biso   1.000  C
  H39      1.0000 0.04930  0.00430  0.39770  Biso   1.000  H
  C86      1.0000 0.99110  0.90560  0.42160  Biso   1.000  C
  H40      1.0000 0.96740  0.95300  0.44160  Biso   1.000  H
  C87      1.0000 0.97680  0.80430  0.42000  Biso   1.000  C
  C88      1.0000 0.92630  0.77190  0.46100  Biso   1.000  C
  C89      1.0000 0.01150  0.73800  0.38470  Biso   1.000  C
  H41      1.0000 0.00200  0.67030  0.38060  Biso   1.000  H
  C90      1.0000 0.05980  0.76860  0.35530  Biso   1.000  C
  H42      1.0000 0.08210  0.72160  0.33090  Biso   1.000  H
  Eu7      1.0000 0.32877  0.20750  0.53020  Biso   1.000  Eu
  O37      1.0000 0.30450  0.26570  0.37940  Biso   1.000  O
  O38      1.0000 0.22569  0.35070  0.35390  Biso   1.000  O
  O39      1.0000 0.20160  0.56040  0.06240  Biso   1.000  O
  O40      1.0000 0.27490  0.64700  0.04240  Biso   1.000  O
  O41      1.0000 0.60060  0.33400  0.00070  Biso   1.000  O
  O42      1.0000 0.58690  0.18030  0.04380  Biso   1.000  O
  C91      1.0000 0.27310  0.32760  0.33650  Biso   1.000  C
  C92      1.0000 0.29510  0.37860  0.25620  Biso   1.000  C
  C93      1.0000 0.26420  0.44810  0.20240  Biso   1.000  C
  H43      1.0000 0.22840  0.46160  0.21330  Biso   1.000  H
  C94      1.0000 0.28620  0.49760  0.13270  Biso   1.000  C
  C95      1.0000 0.25200  0.57360  0.07680  Biso   1.000  C
  C96      1.0000 0.33920  0.47600  0.11510  Biso   1.000  C
  H44      1.0000 0.35450  0.51220  0.07040  Biso   1.000  H
  C97      1.0000 0.37000  0.40090  0.16340  Biso   1.000  C
  C98      1.0000 0.34700  0.35510  0.23640  Biso   1.000  C
  H45      1.0000 0.36750  0.30780  0.27230  Biso   1.000  H
  C99      1.0000 0.42400  0.36890  0.13870  Biso   1.000  C
  C100     1.0000 0.45990  0.43650  0.10590  Biso   1.000  C
  H46      1.0000 0.45070  0.50430  0.10230  Biso   1.000  H
  C101     1.0000 0.50890  0.40560  0.07840  Biso   1.000  C
  H47      1.0000 0.53260  0.45300  0.05840  Biso   1.000  H
  C102     1.0000 0.52320  0.30430  0.08000  Biso   1.000  C
  C103     1.0000 0.57370  0.27190  0.03900  Biso   1.000  C
  C104     1.0000 0.48850  0.23800  0.11530  Biso   1.000  C
  H48      1.0000 0.49800  0.17030  0.11940  Biso   1.000  H
  C105     1.0000 0.44020  0.26860  0.14470  Biso   1.000  C
  H49      1.0000 0.41790  0.22160  0.16910  Biso   1.000  H
  Eu8      1.0000 0.82877  0.70750  0.53020  Biso   1.000  Eu
  O43      1.0000 0.80450  0.76570  0.37940  Biso   1.000  O
  O44      1.0000 0.72569  0.85070  0.35390  Biso   1.000  O
  O45      1.0000 0.70160  0.06040  0.06240  Biso   1.000  O
  O46      1.0000 0.77490  0.14700  0.04240  Biso   1.000  O
  O47      1.0000 0.10060  0.83400  0.00070  Biso   1.000  O
  O48      1.0000 0.08690  0.68030  0.04380  Biso   1.000  O
  C106     1.0000 0.77310  0.82760  0.33650  Biso   1.000  C
  C107     1.0000 0.79510  0.87860  0.25620  Biso   1.000  C
  C108     1.0000 0.76420  0.94810  0.20240  Biso   1.000  C
  H50      1.0000 0.72840  0.96160  0.21330  Biso   1.000  H
  C109     1.0000 0.78620  0.99760  0.13270  Biso   1.000  C
  C110     1.0000 0.75200  0.07360  0.07680  Biso   1.000  C
  C111     1.0000 0.83920  0.97600  0.11510  Biso   1.000  C
  H51      1.0000 0.85450  0.01220  0.07040  Biso   1.000  H
  C112     1.0000 0.87000  0.90090  0.16340  Biso   1.000  C
  C113     1.0000 0.84700  0.85510  0.23640  Biso   1.000  C
  H52      1.0000 0.86750  0.80780  0.27230  Biso   1.000  H
  C114     1.0000 0.92400  0.86890  0.13870  Biso   1.000  C
  C115     1.0000 0.95990  0.93650  0.10590  Biso   1.000  C
  H53      1.0000 0.95070  0.00430  0.10230  Biso   1.000  H
  C116     1.0000 0.00890  0.90560  0.07840  Biso   1.000  C
  H54      1.0000 0.03260  0.95300  0.05840  Biso   1.000  H
  C117     1.0000 0.02320  0.80430  0.08000  Biso   1.000  C
  C118     1.0000 0.07370  0.77190  0.03900  Biso   1.000  C
  C119     1.0000 0.98850  0.73800  0.11530  Biso   1.000  C
  H55      1.0000 0.99800  0.67030  0.11940  Biso   1.000  H
  C120     1.0000 0.94020  0.76860  0.14470  Biso   1.000  C
  H56      1.0000 0.91790  0.72160  0.16910  Biso   1.000  H
