data_image0
_cell_length_a       24.8112
_cell_length_b       13.7461
_cell_length_c       13.6627
_cell_angle_alpha    90
_cell_angle_beta     99.153
_cell_angle_gamma    90

_symmetry_space_group_name_H-M    "P 1"
_symmetry_int_tables_number       1

loop_
  _symmetry_equiv_pos_as_xyz
  'x, y, z'

loop_
  _atom_site_label
  _atom_site_occupancy
  _atom_site_fract_x
  _atom_site_fract_y
  _atom_site_fract_z
  _atom_site_thermal_displace_type
  _atom_site_B_iso_or_equiv
  _atom_site_type_symbol
  Sm1      1.0000 0.17023  0.21548  0.46104  Biso   1.000  Sm
  C1       1.0000 0.07530  0.28048  0.53748  Biso   1.000  C
  C2       1.0000 0.02402  0.31182  0.57474  Biso   1.000  C
  C3       1.0000 0.98578  0.24360  0.59320  Biso   1.000  C
  H1       1.0000 0.99320  0.17760  0.58860  Biso   1.000  H
  C4       1.0000 0.93629  0.27370  0.61850  Biso   1.000  C
  H2       1.0000 0.91070  0.22720  0.62980  Biso   1.000  H
  C5       1.0000 0.92410  0.37206  0.62747  Biso   1.000  C
  C6       1.0000 0.96322  0.43980  0.61070  Biso   1.000  C
  H3       1.0000 0.95640  0.50600  0.61570  Biso   1.000  H
  C7       1.0000 0.01269  0.40800  0.58620  Biso   1.000  C
  H4       1.0000 0.03900  0.45390  0.57740  Biso   1.000  H
  C8       1.0000 0.86936  0.39993  0.65019  Biso   1.000  C
  C9       1.0000 0.84619  0.34657  0.71914  Biso   1.000  C
  H5       1.0000 0.86680  0.29820  0.75500  Biso   1.000  H
  C10      1.0000 0.79335  0.36301  0.73630  Biso   1.000  C
  C11      1.0000 0.76188  0.43346  0.67997  Biso   1.000  C
  H6       1.0000 0.72540  0.44210  0.68640  Biso   1.000  H
  C12      1.0000 0.78562  0.49103  0.61371  Biso   1.000  C
  C13      1.0000 0.83886  0.47529  0.60036  Biso   1.000  C
  H7       1.0000 0.85460  0.51530  0.55780  Biso   1.000  H
  C14      1.0000 0.77129  0.30712  0.81685  Biso   1.000  C
  C15      1.0000 0.75078  0.56970  0.55873  Biso   1.000  C
  O1       1.0000 0.10696  0.34308  0.51399  Biso   1.000  O
  O2       1.0000 0.08439  0.18995  0.52822  Biso   1.000  O
  O3       1.0000 0.77273  0.64462  0.53041  Biso   1.000  O
  O4       1.0000 0.69963  0.55892  0.54345  Biso   1.000  O
  O5       1.0000 0.72306  0.32743  0.83011  Biso   1.000  O
  O6       1.0000 0.80191  0.24671  0.86404  Biso   1.000  O
  Sm2      1.0000 0.67023  0.71548  0.46104  Biso   1.000  Sm
  C16      1.0000 0.57530  0.78048  0.53748  Biso   1.000  C
  C17      1.0000 0.52402  0.81182  0.57474  Biso   1.000  C
  C18      1.0000 0.48578  0.74360  0.59320  Biso   1.000  C
  H8       1.0000 0.49320  0.67760  0.58860  Biso   1.000  H
  C19      1.0000 0.43629  0.77370  0.61850  Biso   1.000  C
  H9       1.0000 0.41070  0.72720  0.62980  Biso   1.000  H
  C20      1.0000 0.42410  0.87206  0.62747  Biso   1.000  C
  C21      1.0000 0.46322  0.93980  0.61070  Biso   1.000  C
  H10      1.0000 0.45640  0.00600  0.61570  Biso   1.000  H
  C22      1.0000 0.51269  0.90800  0.58620  Biso   1.000  C
  H11      1.0000 0.53900  0.95390  0.57740  Biso   1.000  H
  C23      1.0000 0.36936  0.89993  0.65019  Biso   1.000  C
  C24      1.0000 0.34619  0.84657  0.71914  Biso   1.000  C
  H12      1.0000 0.36680  0.79820  0.75500  Biso   1.000  H
  C25      1.0000 0.29335  0.86301  0.73630  Biso   1.000  C
  C26      1.0000 0.26188  0.93346  0.67997  Biso   1.000  C
  H13      1.0000 0.22540  0.94210  0.68640  Biso   1.000  H
  C27      1.0000 0.28562  0.99103  0.61371  Biso   1.000  C
  C28      1.0000 0.33886  0.97529  0.60036  Biso   1.000  C
  H14      1.0000 0.35460  0.01530  0.55780  Biso   1.000  H
  C29      1.0000 0.27129  0.80712  0.81685  Biso   1.000  C
  C30      1.0000 0.25078  0.06970  0.55873  Biso   1.000  C
  O7       1.0000 0.60696  0.84308  0.51399  Biso   1.000  O
  O8       1.0000 0.58439  0.68995  0.52822  Biso   1.000  O
  O9       1.0000 0.27273  0.14462  0.53041  Biso   1.000  O
  O10      1.0000 0.19963  0.05892  0.54345  Biso   1.000  O
  O11      1.0000 0.22306  0.82743  0.83011  Biso   1.000  O
  O12      1.0000 0.30191  0.74671  0.86404  Biso   1.000  O
  Sm3      1.0000 0.82977  0.21548  0.03896  Biso   1.000  Sm
  C31      1.0000 0.92470  0.28048  0.96252  Biso   1.000  C
  C32      1.0000 0.97598  0.31182  0.92526  Biso   1.000  C
  C33      1.0000 0.01422  0.24360  0.90680  Biso   1.000  C
  H15      1.0000 0.00680  0.17760  0.91140  Biso   1.000  H
  C34      1.0000 0.06371  0.27370  0.88150  Biso   1.000  C
  H16      1.0000 0.08930  0.22720  0.87020  Biso   1.000  H
  C35      1.0000 0.07590  0.37206  0.87253  Biso   1.000  C
  C36      1.0000 0.03678  0.43980  0.88930  Biso   1.000  C
  H17      1.0000 0.04360  0.50600  0.88430  Biso   1.000  H
  C37      1.0000 0.98731  0.40800  0.91380  Biso   1.000  C
  H18      1.0000 0.96100  0.45390  0.92260  Biso   1.000  H
  C38      1.0000 0.13064  0.39993  0.84981  Biso   1.000  C
  C39      1.0000 0.15381  0.34657  0.78086  Biso   1.000  C
  H19      1.0000 0.13320  0.29820  0.74500  Biso   1.000  H
  C40      1.0000 0.20665  0.36301  0.76370  Biso   1.000  C
  C41      1.0000 0.23812  0.43346  0.82003  Biso   1.000  C
  H20      1.0000 0.27460  0.44210  0.81360  Biso   1.000  H
  C42      1.0000 0.21438  0.49103  0.88629  Biso   1.000  C
  C43      1.0000 0.16114  0.47529  0.89964  Biso   1.000  C
  H21      1.0000 0.14540  0.51530  0.94220  Biso   1.000  H
  C44      1.0000 0.22871  0.30712  0.68315  Biso   1.000  C
  C45      1.0000 0.24922  0.56970  0.94127  Biso   1.000  C
  O13      1.0000 0.89304  0.34308  0.98601  Biso   1.000  O
  O14      1.0000 0.91561  0.18995  0.97178  Biso   1.000  O
  O15      1.0000 0.22727  0.64462  0.96959  Biso   1.000  O
  O16      1.0000 0.30037  0.55892  0.95655  Biso   1.000  O
  O17      1.0000 0.27694  0.32743  0.66989  Biso   1.000  O
  O18      1.0000 0.19809  0.24671  0.63596  Biso   1.000  O
  Sm4      1.0000 0.32977  0.71548  0.03896  Biso   1.000  Sm
  C46      1.0000 0.42470  0.78048  0.96252  Biso   1.000  C
  C47      1.0000 0.47598  0.81182  0.92526  Biso   1.000  C
  C48      1.0000 0.51422  0.74360  0.90680  Biso   1.000  C
  H22      1.0000 0.50680  0.67760  0.91140  Biso   1.000  H
  C49      1.0000 0.56371  0.77370  0.88150  Biso   1.000  C
  H23      1.0000 0.58930  0.72720  0.87020  Biso   1.000  H
  C50      1.0000 0.57590  0.87206  0.87253  Biso   1.000  C
  C51      1.0000 0.53678  0.93980  0.88930  Biso   1.000  C
  H24      1.0000 0.54360  0.00600  0.88430  Biso   1.000  H
  C52      1.0000 0.48731  0.90800  0.91380  Biso   1.000  C
  H25      1.0000 0.46100  0.95390  0.92260  Biso   1.000  H
  C53      1.0000 0.63064  0.89993  0.84981  Biso   1.000  C
  C54      1.0000 0.65381  0.84657  0.78086  Biso   1.000  C
  H26      1.0000 0.63320  0.79820  0.74500  Biso   1.000  H
  C55      1.0000 0.70665  0.86301  0.76370  Biso   1.000  C
  C56      1.0000 0.73812  0.93346  0.82003  Biso   1.000  C
  H27      1.0000 0.77460  0.94210  0.81360  Biso   1.000  H
  C57      1.0000 0.71438  0.99103  0.88629  Biso   1.000  C
  C58      1.0000 0.66114  0.97529  0.89964  Biso   1.000  C
  H28      1.0000 0.64540  0.01530  0.94220  Biso   1.000  H
  C59      1.0000 0.72871  0.80712  0.68315  Biso   1.000  C
  C60      1.0000 0.74922  0.06970  0.94127  Biso   1.000  C
  O19      1.0000 0.39304  0.84308  0.98601  Biso   1.000  O
  O20      1.0000 0.41561  0.68995  0.97178  Biso   1.000  O
  O21      1.0000 0.72727  0.14462  0.96959  Biso   1.000  O
  O22      1.0000 0.80037  0.05892  0.95655  Biso   1.000  O
  O23      1.0000 0.77694  0.82743  0.66989  Biso   1.000  O
  O24      1.0000 0.69809  0.74671  0.63596  Biso   1.000  O
  Sm5      1.0000 0.82977  0.78452  0.53896  Biso   1.000  Sm
  C61      1.0000 0.92470  0.71952  0.46252  Biso   1.000  C
  C62      1.0000 0.97598  0.68818  0.42526  Biso   1.000  C
  C63      1.0000 0.01422  0.75640  0.40680  Biso   1.000  C
  H29      1.0000 0.00680  0.82240  0.41140  Biso   1.000  H
  C64      1.0000 0.06371  0.72630  0.38150  Biso   1.000  C
  H30      1.0000 0.08930  0.77280  0.37020  Biso   1.000  H
  C65      1.0000 0.07590  0.62794  0.37253  Biso   1.000  C
  C66      1.0000 0.03678  0.56020  0.38930  Biso   1.000  C
  H31      1.0000 0.04360  0.49400  0.38430  Biso   1.000  H
  C67      1.0000 0.98731  0.59200  0.41380  Biso   1.000  C
  H32      1.0000 0.96100  0.54610  0.42260  Biso   1.000  H
  C68      1.0000 0.13064  0.60007  0.34981  Biso   1.000  C
  C69      1.0000 0.15381  0.65343  0.28086  Biso   1.000  C
  H33      1.0000 0.13320  0.70180  0.24500  Biso   1.000  H
  C70      1.0000 0.20665  0.63699  0.26370  Biso   1.000  C
  C71      1.0000 0.23812  0.56654  0.32003  Biso   1.000  C
  H34      1.0000 0.27460  0.55790  0.31360  Biso   1.000  H
  C72      1.0000 0.21438  0.50897  0.38629  Biso   1.000  C
  C73      1.0000 0.16114  0.52471  0.39964  Biso   1.000  C
  H35      1.0000 0.14540  0.48470  0.44220  Biso   1.000  H
  C74      1.0000 0.22871  0.69288  0.18315  Biso   1.000  C
  C75      1.0000 0.24922  0.43030  0.44127  Biso   1.000  C
  O25      1.0000 0.89304  0.65692  0.48601  Biso   1.000  O
  O26      1.0000 0.91561  0.81005  0.47178  Biso   1.000  O
  O27      1.0000 0.22727  0.35538  0.46959  Biso   1.000  O
  O28      1.0000 0.30037  0.44108  0.45655  Biso   1.000  O
  O29      1.0000 0.27694  0.67257  0.16989  Biso   1.000  O
  O30      1.0000 0.19809  0.75329  0.13596  Biso   1.000  O
  Sm6      1.0000 0.32977  0.28452  0.53896  Biso   1.000  Sm
  C76      1.0000 0.42470  0.21952  0.46252  Biso   1.000  C
  C77      1.0000 0.47598  0.18818  0.42526  Biso   1.000  C
  C78      1.0000 0.51422  0.25640  0.40680  Biso   1.000  C
  H36      1.0000 0.50680  0.32240  0.41140  Biso   1.000  H
  C79      1.0000 0.56371  0.22630  0.38150  Biso   1.000  C
  H37      1.0000 0.58930  0.27280  0.37020  Biso   1.000  H
  C80      1.0000 0.57590  0.12794  0.37253  Biso   1.000  C
  C81      1.0000 0.53678  0.06020  0.38930  Biso   1.000  C
  H38      1.0000 0.54360  0.99400  0.38430  Biso   1.000  H
  C82      1.0000 0.48731  0.09200  0.41380  Biso   1.000  C
  H39      1.0000 0.46100  0.04610  0.42260  Biso   1.000  H
  C83      1.0000 0.63064  0.10007  0.34981  Biso   1.000  C
  C84      1.0000 0.65381  0.15343  0.28086  Biso   1.000  C
  H40      1.0000 0.63320  0.20180  0.24500  Biso   1.000  H
  C85      1.0000 0.70665  0.13699  0.26370  Biso   1.000  C
  C86      1.0000 0.73812  0.06654  0.32003  Biso   1.000  C
  H41      1.0000 0.77460  0.05790  0.31360  Biso   1.000  H
  C87      1.0000 0.71438  0.00897  0.38629  Biso   1.000  C
  C88      1.0000 0.66114  0.02471  0.39964  Biso   1.000  C
  H42      1.0000 0.64540  0.98470  0.44220  Biso   1.000  H
  C89      1.0000 0.72871  0.19288  0.18315  Biso   1.000  C
  C90      1.0000 0.74922  0.93030  0.44127  Biso   1.000  C
  O31      1.0000 0.39304  0.15692  0.48601  Biso   1.000  O
  O32      1.0000 0.41561  0.31005  0.47178  Biso   1.000  O
  O33      1.0000 0.72727  0.85538  0.46959  Biso   1.000  O
  O34      1.0000 0.80037  0.94108  0.45655  Biso   1.000  O
  O35      1.0000 0.77694  0.17257  0.16989  Biso   1.000  O
  O36      1.0000 0.69809  0.25329  0.13596  Biso   1.000  O
  Sm7      1.0000 0.17023  0.78452  0.96104  Biso   1.000  Sm
  C91      1.0000 0.07530  0.71952  0.03748  Biso   1.000  C
  C92      1.0000 0.02402  0.68818  0.07474  Biso   1.000  C
  C93      1.0000 0.98578  0.75640  0.09320  Biso   1.000  C
  H43      1.0000 0.99320  0.82240  0.08860  Biso   1.000  H
  C94      1.0000 0.93629  0.72630  0.11850  Biso   1.000  C
  H44      1.0000 0.91070  0.77280  0.12980  Biso   1.000  H
  C95      1.0000 0.92410  0.62794  0.12747  Biso   1.000  C
  C96      1.0000 0.96322  0.56020  0.11070  Biso   1.000  C
  H45      1.0000 0.95640  0.49400  0.11570  Biso   1.000  H
  C97      1.0000 0.01269  0.59200  0.08620  Biso   1.000  C
  H46      1.0000 0.03900  0.54610  0.07740  Biso   1.000  H
  C98      1.0000 0.86936  0.60007  0.15019  Biso   1.000  C
  C99      1.0000 0.84619  0.65343  0.21914  Biso   1.000  C
  H47      1.0000 0.86680  0.70180  0.25500  Biso   1.000  H
  C100     1.0000 0.79335  0.63699  0.23630  Biso   1.000  C
  C101     1.0000 0.76188  0.56654  0.17997  Biso   1.000  C
  H48      1.0000 0.72540  0.55790  0.18640  Biso   1.000  H
  C102     1.0000 0.78562  0.50897  0.11371  Biso   1.000  C
  C103     1.0000 0.83886  0.52471  0.10036  Biso   1.000  C
  H49      1.0000 0.85460  0.48470  0.05780  Biso   1.000  H
  C104     1.0000 0.77129  0.69288  0.31685  Biso   1.000  C
  C105     1.0000 0.75078  0.43030  0.05873  Biso   1.000  C
  O37      1.0000 0.10696  0.65692  0.01399  Biso   1.000  O
  O38      1.0000 0.08439  0.81005  0.02822  Biso   1.000  O
  O39      1.0000 0.77273  0.35538  0.03041  Biso   1.000  O
  O40      1.0000 0.69963  0.44108  0.04345  Biso   1.000  O
  O41      1.0000 0.72306  0.67257  0.33011  Biso   1.000  O
  O42      1.0000 0.80191  0.75329  0.36404  Biso   1.000  O
  Sm8      1.0000 0.67023  0.28452  0.96104  Biso   1.000  Sm
  C106     1.0000 0.57530  0.21952  0.03748  Biso   1.000  C
  C107     1.0000 0.52402  0.18818  0.07474  Biso   1.000  C
  C108     1.0000 0.48578  0.25640  0.09320  Biso   1.000  C
  H50      1.0000 0.49320  0.32240  0.08860  Biso   1.000  H
  C109     1.0000 0.43629  0.22630  0.11850  Biso   1.000  C
  H51      1.0000 0.41070  0.27280  0.12980  Biso   1.000  H
  C110     1.0000 0.42410  0.12794  0.12747  Biso   1.000  C
  C111     1.0000 0.46322  0.06020  0.11070  Biso   1.000  C
  H52      1.0000 0.45640  0.99400  0.11570  Biso   1.000  H
  C112     1.0000 0.51269  0.09200  0.08620  Biso   1.000  C
  H53      1.0000 0.53900  0.04610  0.07740  Biso   1.000  H
  C113     1.0000 0.36936  0.10007  0.15019  Biso   1.000  C
  C114     1.0000 0.34619  0.15343  0.21914  Biso   1.000  C
  H54      1.0000 0.36680  0.20180  0.25500  Biso   1.000  H
  C115     1.0000 0.29335  0.13699  0.23630  Biso   1.000  C
  C116     1.0000 0.26188  0.06654  0.17997  Biso   1.000  C
  H55      1.0000 0.22540  0.05790  0.18640  Biso   1.000  H
  C117     1.0000 0.28562  0.00897  0.11371  Biso   1.000  C
  C118     1.0000 0.33886  0.02471  0.10036  Biso   1.000  C
  H56      1.0000 0.35460  0.98470  0.05780  Biso   1.000  H
  C119     1.0000 0.27129  0.19288  0.31685  Biso   1.000  C
  C120     1.0000 0.25078  0.93030  0.05873  Biso   1.000  C
  O43      1.0000 0.60696  0.15692  0.01399  Biso   1.000  O
  O44      1.0000 0.58439  0.31005  0.02822  Biso   1.000  O
  O45      1.0000 0.27273  0.85538  0.03041  Biso   1.000  O
  O46      1.0000 0.19963  0.94108  0.04345  Biso   1.000  O
  O47      1.0000 0.22306  0.17257  0.33011  Biso   1.000  O
  O48      1.0000 0.30191  0.25329  0.36404  Biso   1.000  O
