data_image0
_cell_length_a       24.7168
_cell_length_b       13.0121
_cell_length_c       14.9778
_cell_angle_alpha    90
_cell_angle_beta     96.682
_cell_angle_gamma    90

_symmetry_space_group_name_H-M    "P 1"
_symmetry_int_tables_number       1

loop_
  _symmetry_equiv_pos_as_xyz
  'x, y, z'

loop_
  _atom_site_label
  _atom_site_occupancy
  _atom_site_fract_x
  _atom_site_fract_y
  _atom_site_fract_z
  _atom_site_thermal_displace_type
  _atom_site_B_iso_or_equiv
  _atom_site_type_symbol
  Pr1      1.0000 0.32881  0.79544  0.03267  Biso   1.000  Pr
  O1       1.0000 0.30531  0.73840  0.87840  Biso   1.000  O
  O2       1.0000 0.22721  0.65310  0.84960  Biso   1.000  O
  O3       1.0000 0.20146  0.44910  0.56110  Biso   1.000  O
  O4       1.0000 0.27373  0.35820  0.53820  Biso   1.000  O
  O5       1.0000 0.59904  0.66710  0.50180  Biso   1.000  O
  O6       1.0000 0.58532  0.82650  0.54130  Biso   1.000  O
  C1       1.0000 0.27477  0.67620  0.83470  Biso   1.000  C
  C2       1.0000 0.29652  0.62580  0.75500  Biso   1.000  C
  C3       1.0000 0.26524  0.55770  0.70100  Biso   1.000  C
  H1       1.0000 0.22950  0.54510  0.71140  Biso   1.000  H
  C4       1.0000 0.28644  0.50780  0.63150  Biso   1.000  C
  C5       1.0000 0.25179  0.43380  0.57430  Biso   1.000  C
  C6       1.0000 0.33963  0.52870  0.61430  Biso   1.000  C
  H2       1.0000 0.35440  0.49340  0.56890  Biso   1.000  H
  C7       1.0000 0.37055  0.60170  0.66440  Biso   1.000  C
  C8       1.0000 0.34844  0.64920  0.73640  Biso   1.000  C
  H3       1.0000 0.36910  0.69690  0.77190  Biso   1.000  H
  C9       1.0000 0.42481  0.63410  0.64020  Biso   1.000  C
  C10      1.0000 0.45960  0.56440  0.60700  Biso   1.000  C
  H4       1.0000 0.45040  0.49510  0.60420  Biso   1.000  H
  C11      1.0000 0.50810  0.59620  0.57800  Biso   1.000  C
  H5       1.0000 0.53120  0.54800  0.55670  Biso   1.000  H
  C12      1.0000 0.52240  0.69850  0.58030  Biso   1.000  C
  C13      1.0000 0.57224  0.73290  0.53940  Biso   1.000  C
  C14      1.0000 0.48900  0.76780  0.61580  Biso   1.000  C
  H6       1.0000 0.49900  0.83670  0.62000  Biso   1.000  H
  C15      1.0000 0.44060  0.73650  0.64550  Biso   1.000  C
  H7       1.0000 0.41840  0.78460  0.66910  Biso   1.000  H
  Pr2      1.0000 0.82881  0.29544  0.03267  Biso   1.000  Pr
  O7       1.0000 0.80531  0.23840  0.87840  Biso   1.000  O
  O8       1.0000 0.72721  0.15310  0.84960  Biso   1.000  O
  O9       1.0000 0.70146  0.94910  0.56110  Biso   1.000  O
  O10      1.0000 0.77373  0.85820  0.53820  Biso   1.000  O
  O11      1.0000 0.09904  0.16710  0.50180  Biso   1.000  O
  O12      1.0000 0.08532  0.32650  0.54130  Biso   1.000  O
  C16      1.0000 0.77477  0.17620  0.83470  Biso   1.000  C
  C17      1.0000 0.79652  0.12580  0.75500  Biso   1.000  C
  C18      1.0000 0.76524  0.05770  0.70100  Biso   1.000  C
  H8       1.0000 0.72950  0.04510  0.71140  Biso   1.000  H
  C19      1.0000 0.78644  0.00780  0.63150  Biso   1.000  C
  C20      1.0000 0.75179  0.93380  0.57430  Biso   1.000  C
  C21      1.0000 0.83963  0.02870  0.61430  Biso   1.000  C
  H9       1.0000 0.85440  0.99340  0.56890  Biso   1.000  H
  C22      1.0000 0.87055  0.10170  0.66440  Biso   1.000  C
  C23      1.0000 0.84844  0.14920  0.73640  Biso   1.000  C
  H10      1.0000 0.86910  0.19690  0.77190  Biso   1.000  H
  C24      1.0000 0.92481  0.13410  0.64020  Biso   1.000  C
  C25      1.0000 0.95960  0.06440  0.60700  Biso   1.000  C
  H11      1.0000 0.95040  0.99510  0.60420  Biso   1.000  H
  C26      1.0000 0.00810  0.09620  0.57800  Biso   1.000  C
  H12      1.0000 0.03120  0.04800  0.55670  Biso   1.000  H
  C27      1.0000 0.02240  0.19850  0.58030  Biso   1.000  C
  C28      1.0000 0.07224  0.23290  0.53940  Biso   1.000  C
  C29      1.0000 0.98900  0.26780  0.61580  Biso   1.000  C
  H13      1.0000 0.99900  0.33670  0.62000  Biso   1.000  H
  C30      1.0000 0.94060  0.23650  0.64550  Biso   1.000  C
  H14      1.0000 0.91840  0.28460  0.66910  Biso   1.000  H
  Pr3      1.0000 0.67119  0.79544  0.46733  Biso   1.000  Pr
  O13      1.0000 0.69469  0.73840  0.62160  Biso   1.000  O
  O14      1.0000 0.77279  0.65310  0.65040  Biso   1.000  O
  O15      1.0000 0.79854  0.44910  0.93890  Biso   1.000  O
  O16      1.0000 0.72627  0.35820  0.96180  Biso   1.000  O
  O17      1.0000 0.40096  0.66710  0.99820  Biso   1.000  O
  O18      1.0000 0.41468  0.82650  0.95870  Biso   1.000  O
  C31      1.0000 0.72523  0.67620  0.66530  Biso   1.000  C
  C32      1.0000 0.70348  0.62580  0.74500  Biso   1.000  C
  C33      1.0000 0.73476  0.55770  0.79900  Biso   1.000  C
  H15      1.0000 0.77050  0.54510  0.78860  Biso   1.000  H
  C34      1.0000 0.71356  0.50780  0.86850  Biso   1.000  C
  C35      1.0000 0.74821  0.43380  0.92570  Biso   1.000  C
  C36      1.0000 0.66037  0.52870  0.88570  Biso   1.000  C
  H16      1.0000 0.64560  0.49340  0.93110  Biso   1.000  H
  C37      1.0000 0.62945  0.60170  0.83560  Biso   1.000  C
  C38      1.0000 0.65156  0.64920  0.76360  Biso   1.000  C
  H17      1.0000 0.63090  0.69690  0.72810  Biso   1.000  H
  C39      1.0000 0.57519  0.63410  0.85980  Biso   1.000  C
  C40      1.0000 0.54040  0.56440  0.89300  Biso   1.000  C
  H18      1.0000 0.54960  0.49510  0.89580  Biso   1.000  H
  C41      1.0000 0.49190  0.59620  0.92200  Biso   1.000  C
  H19      1.0000 0.46880  0.54800  0.94330  Biso   1.000  H
  C42      1.0000 0.47760  0.69850  0.91970  Biso   1.000  C
  C43      1.0000 0.42776  0.73290  0.96060  Biso   1.000  C
  C44      1.0000 0.51100  0.76780  0.88420  Biso   1.000  C
  H20      1.0000 0.50100  0.83670  0.88000  Biso   1.000  H
  C45      1.0000 0.55940  0.73650  0.85450  Biso   1.000  C
  H21      1.0000 0.58160  0.78460  0.83090  Biso   1.000  H
  Pr4      1.0000 0.17119  0.29544  0.46733  Biso   1.000  Pr
  O19      1.0000 0.19469  0.23840  0.62160  Biso   1.000  O
  O20      1.0000 0.27279  0.15310  0.65040  Biso   1.000  O
  O21      1.0000 0.29854  0.94910  0.93890  Biso   1.000  O
  O22      1.0000 0.22627  0.85820  0.96180  Biso   1.000  O
  O23      1.0000 0.90096  0.16710  0.99820  Biso   1.000  O
  O24      1.0000 0.91468  0.32650  0.95870  Biso   1.000  O
  C46      1.0000 0.22523  0.17620  0.66530  Biso   1.000  C
  C47      1.0000 0.20348  0.12580  0.74500  Biso   1.000  C
  C48      1.0000 0.23476  0.05770  0.79900  Biso   1.000  C
  H22      1.0000 0.27050  0.04510  0.78860  Biso   1.000  H
  C49      1.0000 0.21356  0.00780  0.86850  Biso   1.000  C
  C50      1.0000 0.24821  0.93380  0.92570  Biso   1.000  C
  C51      1.0000 0.16037  0.02870  0.88570  Biso   1.000  C
  H23      1.0000 0.14560  0.99340  0.93110  Biso   1.000  H
  C52      1.0000 0.12945  0.10170  0.83560  Biso   1.000  C
  C53      1.0000 0.15156  0.14920  0.76360  Biso   1.000  C
  H24      1.0000 0.13090  0.19690  0.72810  Biso   1.000  H
  C54      1.0000 0.07519  0.13410  0.85980  Biso   1.000  C
  C55      1.0000 0.04040  0.06440  0.89300  Biso   1.000  C
  H25      1.0000 0.04960  0.99510  0.89580  Biso   1.000  H
  C56      1.0000 0.99190  0.09620  0.92200  Biso   1.000  C
  H26      1.0000 0.96880  0.04800  0.94330  Biso   1.000  H
  C57      1.0000 0.97760  0.19850  0.91970  Biso   1.000  C
  C58      1.0000 0.92776  0.23290  0.96060  Biso   1.000  C
  C59      1.0000 0.01100  0.26780  0.88420  Biso   1.000  C
  H27      1.0000 0.00100  0.33670  0.88000  Biso   1.000  H
  C60      1.0000 0.05940  0.23650  0.85450  Biso   1.000  C
  H28      1.0000 0.08160  0.28460  0.83090  Biso   1.000  H
  Pr5      1.0000 0.67119  0.20456  0.96733  Biso   1.000  Pr
  O25      1.0000 0.69469  0.26160  0.12160  Biso   1.000  O
  O26      1.0000 0.77279  0.34690  0.15040  Biso   1.000  O
  O27      1.0000 0.79854  0.55090  0.43890  Biso   1.000  O
  O28      1.0000 0.72627  0.64180  0.46180  Biso   1.000  O
  O29      1.0000 0.40096  0.33290  0.49820  Biso   1.000  O
  O30      1.0000 0.41468  0.17350  0.45870  Biso   1.000  O
  C61      1.0000 0.72523  0.32380  0.16530  Biso   1.000  C
  C62      1.0000 0.70348  0.37420  0.24500  Biso   1.000  C
  C63      1.0000 0.73476  0.44230  0.29900  Biso   1.000  C
  H29      1.0000 0.77050  0.45490  0.28860  Biso   1.000  H
  C64      1.0000 0.71356  0.49220  0.36850  Biso   1.000  C
  C65      1.0000 0.74821  0.56620  0.42570  Biso   1.000  C
  C66      1.0000 0.66037  0.47130  0.38570  Biso   1.000  C
  H30      1.0000 0.64560  0.50660  0.43110  Biso   1.000  H
  C67      1.0000 0.62945  0.39830  0.33560  Biso   1.000  C
  C68      1.0000 0.65156  0.35080  0.26360  Biso   1.000  C
  H31      1.0000 0.63090  0.30310  0.22810  Biso   1.000  H
  C69      1.0000 0.57519  0.36590  0.35980  Biso   1.000  C
  C70      1.0000 0.54040  0.43560  0.39300  Biso   1.000  C
  H32      1.0000 0.54960  0.50490  0.39580  Biso   1.000  H
  C71      1.0000 0.49190  0.40380  0.42200  Biso   1.000  C
  H33      1.0000 0.46880  0.45200  0.44330  Biso   1.000  H
  C72      1.0000 0.47760  0.30150  0.41970  Biso   1.000  C
  C73      1.0000 0.42776  0.26710  0.46060  Biso   1.000  C
  C74      1.0000 0.51100  0.23220  0.38420  Biso   1.000  C
  H34      1.0000 0.50100  0.16330  0.38000  Biso   1.000  H
  C75      1.0000 0.55940  0.26350  0.35450  Biso   1.000  C
  H35      1.0000 0.58160  0.21540  0.33090  Biso   1.000  H
  Pr6      1.0000 0.17119  0.70456  0.96733  Biso   1.000  Pr
  O31      1.0000 0.19469  0.76160  0.12160  Biso   1.000  O
  O32      1.0000 0.27279  0.84690  0.15040  Biso   1.000  O
  O33      1.0000 0.29854  0.05090  0.43890  Biso   1.000  O
  O34      1.0000 0.22627  0.14180  0.46180  Biso   1.000  O
  O35      1.0000 0.90096  0.83290  0.49820  Biso   1.000  O
  O36      1.0000 0.91468  0.67350  0.45870  Biso   1.000  O
  C76      1.0000 0.22523  0.82380  0.16530  Biso   1.000  C
  C77      1.0000 0.20348  0.87420  0.24500  Biso   1.000  C
  C78      1.0000 0.23476  0.94230  0.29900  Biso   1.000  C
  H36      1.0000 0.27050  0.95490  0.28860  Biso   1.000  H
  C79      1.0000 0.21356  0.99220  0.36850  Biso   1.000  C
  C80      1.0000 0.24821  0.06620  0.42570  Biso   1.000  C
  C81      1.0000 0.16037  0.97130  0.38570  Biso   1.000  C
  H37      1.0000 0.14560  0.00660  0.43110  Biso   1.000  H
  C82      1.0000 0.12945  0.89830  0.33560  Biso   1.000  C
  C83      1.0000 0.15156  0.85080  0.26360  Biso   1.000  C
  H38      1.0000 0.13090  0.80310  0.22810  Biso   1.000  H
  C84      1.0000 0.07519  0.86590  0.35980  Biso   1.000  C
  C85      1.0000 0.04040  0.93560  0.39300  Biso   1.000  C
  H39      1.0000 0.04960  0.00490  0.39580  Biso   1.000  H
  C86      1.0000 0.99190  0.90380  0.42200  Biso   1.000  C
  H40      1.0000 0.96880  0.95200  0.44330  Biso   1.000  H
  C87      1.0000 0.97760  0.80150  0.41970  Biso   1.000  C
  C88      1.0000 0.92776  0.76710  0.46060  Biso   1.000  C
  C89      1.0000 0.01100  0.73220  0.38420  Biso   1.000  C
  H41      1.0000 0.00100  0.66330  0.38000  Biso   1.000  H
  C90      1.0000 0.05940  0.76350  0.35450  Biso   1.000  C
  H42      1.0000 0.08160  0.71540  0.33090  Biso   1.000  H
  Pr7      1.0000 0.32881  0.20456  0.53267  Biso   1.000  Pr
  O37      1.0000 0.30531  0.26160  0.37840  Biso   1.000  O
  O38      1.0000 0.22721  0.34690  0.34960  Biso   1.000  O
  O39      1.0000 0.20146  0.55090  0.06110  Biso   1.000  O
  O40      1.0000 0.27373  0.64180  0.03820  Biso   1.000  O
  O41      1.0000 0.59904  0.33290  0.00180  Biso   1.000  O
  O42      1.0000 0.58532  0.17350  0.04130  Biso   1.000  O
  C91      1.0000 0.27477  0.32380  0.33470  Biso   1.000  C
  C92      1.0000 0.29652  0.37420  0.25500  Biso   1.000  C
  C93      1.0000 0.26524  0.44230  0.20100  Biso   1.000  C
  H43      1.0000 0.22950  0.45490  0.21140  Biso   1.000  H
  C94      1.0000 0.28644  0.49220  0.13150  Biso   1.000  C
  C95      1.0000 0.25179  0.56620  0.07430  Biso   1.000  C
  C96      1.0000 0.33963  0.47130  0.11430  Biso   1.000  C
  H44      1.0000 0.35440  0.50660  0.06890  Biso   1.000  H
  C97      1.0000 0.37055  0.39830  0.16440  Biso   1.000  C
  C98      1.0000 0.34844  0.35080  0.23640  Biso   1.000  C
  H45      1.0000 0.36910  0.30310  0.27190  Biso   1.000  H
  C99      1.0000 0.42481  0.36590  0.14020  Biso   1.000  C
  C100     1.0000 0.45960  0.43560  0.10700  Biso   1.000  C
  H46      1.0000 0.45040  0.50490  0.10420  Biso   1.000  H
  C101     1.0000 0.50810  0.40380  0.07800  Biso   1.000  C
  H47      1.0000 0.53120  0.45200  0.05670  Biso   1.000  H
  C102     1.0000 0.52240  0.30150  0.08030  Biso   1.000  C
  C103     1.0000 0.57224  0.26710  0.03940  Biso   1.000  C
  C104     1.0000 0.48900  0.23220  0.11580  Biso   1.000  C
  H48      1.0000 0.49900  0.16330  0.12000  Biso   1.000  H
  C105     1.0000 0.44060  0.26350  0.14550  Biso   1.000  C
  H49      1.0000 0.41840  0.21540  0.16910  Biso   1.000  H
  Pr8      1.0000 0.82881  0.70456  0.53267  Biso   1.000  Pr
  O43      1.0000 0.80531  0.76160  0.37840  Biso   1.000  O
  O44      1.0000 0.72721  0.84690  0.34960  Biso   1.000  O
  O45      1.0000 0.70146  0.05090  0.06110  Biso   1.000  O
  O46      1.0000 0.77373  0.14180  0.03820  Biso   1.000  O
  O47      1.0000 0.09904  0.83290  0.00180  Biso   1.000  O
  O48      1.0000 0.08532  0.67350  0.04130  Biso   1.000  O
  C106     1.0000 0.77477  0.82380  0.33470  Biso   1.000  C
  C107     1.0000 0.79652  0.87420  0.25500  Biso   1.000  C
  C108     1.0000 0.76524  0.94230  0.20100  Biso   1.000  C
  H50      1.0000 0.72950  0.95490  0.21140  Biso   1.000  H
  C109     1.0000 0.78644  0.99220  0.13150  Biso   1.000  C
  C110     1.0000 0.75179  0.06620  0.07430  Biso   1.000  C
  C111     1.0000 0.83963  0.97130  0.11430  Biso   1.000  C
  H51      1.0000 0.85440  0.00660  0.06890  Biso   1.000  H
  C112     1.0000 0.87055  0.89830  0.16440  Biso   1.000  C
  C113     1.0000 0.84844  0.85080  0.23640  Biso   1.000  C
  H52      1.0000 0.86910  0.80310  0.27190  Biso   1.000  H
  C114     1.0000 0.92481  0.86590  0.14020  Biso   1.000  C
  C115     1.0000 0.95960  0.93560  0.10700  Biso   1.000  C
  H53      1.0000 0.95040  0.00490  0.10420  Biso   1.000  H
  C116     1.0000 0.00810  0.90380  0.07800  Biso   1.000  C
  H54      1.0000 0.03120  0.95200  0.05670  Biso   1.000  H
  C117     1.0000 0.02240  0.80150  0.08030  Biso   1.000  C
  C118     1.0000 0.07224  0.76710  0.03940  Biso   1.000  C
  C119     1.0000 0.98900  0.73220  0.11580  Biso   1.000  C
  H55      1.0000 0.99900  0.66330  0.12000  Biso   1.000  H
  C120     1.0000 0.94060  0.76350  0.14550  Biso   1.000  C
  H56      1.0000 0.91840  0.71540  0.16910  Biso   1.000  H
