data_image0
_cell_length_a       5.0794
_cell_length_b       15.2154
_cell_length_c       16.3604
_cell_angle_alpha    90
_cell_angle_beta     95.696
_cell_angle_gamma    90

_symmetry_space_group_name_H-M    "P 1"
_symmetry_int_tables_number       1

loop_
  _symmetry_equiv_pos_as_xyz
  'x, y, z'

loop_
  _atom_site_label
  _atom_site_occupancy
  _atom_site_fract_x
  _atom_site_fract_y
  _atom_site_fract_z
  _atom_site_thermal_displace_type
  _atom_site_B_iso_or_equiv
  _atom_site_type_symbol
  Co1      1.0000 0.34531  0.19683  0.08150  Biso   1.000  Co
  Co2      1.0000 0.96517  0.32292  0.21633  Biso   1.000  Co
  Co3      1.0000 0.99154  0.92892  0.18005  Biso   1.000  Co
  P1       1.0000 0.41477  0.39932  0.13006  Biso   1.000  P
  P2       1.0000 0.92488  0.13034  0.16225  Biso   1.000  P
  P3       1.0000 0.52525  0.88622  0.08784  Biso   1.000  P
  O1       1.0000 0.30720  0.38624  0.21620  Biso   1.000  O
  O2       1.0000 0.29260  0.32627  0.07351  Biso   1.000  O
  O3       1.0000 0.71630  0.38990  0.14293  Biso   1.000  O
  O4       1.0000 0.33350  0.48800  0.09607  Biso   1.000  O
  O5       1.0000 0.03070  0.11464  0.07757  Biso   1.000  O
  O6       1.0000 0.96750  0.04994  0.21735  Biso   1.000  O
  O7       1.0000 0.10190  0.20543  0.20106  Biso   1.000  O
  O8       1.0000 0.63740  0.15830  0.15790  Biso   1.000  O
  O9       1.0000 0.24480  0.92096  0.09495  Biso   1.000  O
  O10      1.0000 0.65290  0.85468  0.17465  Biso   1.000  O
  O11      1.0000 0.52210  0.80917  0.02908  Biso   1.000  O
  O12      1.0000 0.71060  0.95977  0.06687  Biso   1.000  O
  Co4      1.0000 0.15469  0.69683  0.41850  Biso   1.000  Co
  Co5      1.0000 0.53483  0.82292  0.28367  Biso   1.000  Co
  Co6      1.0000 0.50846  0.42892  0.31995  Biso   1.000  Co
  P4       1.0000 0.08523  0.89932  0.36994  Biso   1.000  P
  P5       1.0000 0.57512  0.63034  0.33775  Biso   1.000  P
  P6       1.0000 0.97475  0.38622  0.41216  Biso   1.000  P
  O13      1.0000 0.19280  0.88624  0.28380  Biso   1.000  O
  O14      1.0000 0.20740  0.82627  0.42649  Biso   1.000  O
  O15      1.0000 0.78370  0.88990  0.35707  Biso   1.000  O
  O16      1.0000 0.16650  0.98800  0.40393  Biso   1.000  O
  O17      1.0000 0.46930  0.61464  0.42243  Biso   1.000  O
  O18      1.0000 0.53250  0.54994  0.28265  Biso   1.000  O
  O19      1.0000 0.39810  0.70543  0.29894  Biso   1.000  O
  O20      1.0000 0.86260  0.65830  0.34210  Biso   1.000  O
  O21      1.0000 0.25520  0.42096  0.40505  Biso   1.000  O
  O22      1.0000 0.84710  0.35468  0.32535  Biso   1.000  O
  O23      1.0000 0.97790  0.30917  0.47092  Biso   1.000  O
  O24      1.0000 0.78940  0.45977  0.43313  Biso   1.000  O
  Co7      1.0000 0.65469  0.80317  0.91850  Biso   1.000  Co
  Co8      1.0000 0.03483  0.67708  0.78367  Biso   1.000  Co
  Co9      1.0000 0.00846  0.07108  0.81995  Biso   1.000  Co
  P7       1.0000 0.58523  0.60068  0.86994  Biso   1.000  P
  P8       1.0000 0.07512  0.86966  0.83775  Biso   1.000  P
  P9       1.0000 0.47475  0.11378  0.91216  Biso   1.000  P
  O25      1.0000 0.69280  0.61376  0.78380  Biso   1.000  O
  O26      1.0000 0.70740  0.67373  0.92649  Biso   1.000  O
  O27      1.0000 0.28370  0.61010  0.85707  Biso   1.000  O
  O28      1.0000 0.66650  0.51200  0.90393  Biso   1.000  O
  O29      1.0000 0.96930  0.88536  0.92243  Biso   1.000  O
  O30      1.0000 0.03250  0.95006  0.78265  Biso   1.000  O
  O31      1.0000 0.89810  0.79457  0.79894  Biso   1.000  O
  O32      1.0000 0.36260  0.84170  0.84210  Biso   1.000  O
  O33      1.0000 0.75520  0.07904  0.90505  Biso   1.000  O
  O34      1.0000 0.34710  0.14532  0.82535  Biso   1.000  O
  O35      1.0000 0.47790  0.19083  0.97092  Biso   1.000  O
  O36      1.0000 0.28940  0.04023  0.93313  Biso   1.000  O
  Co10     1.0000 0.84531  0.30317  0.58150  Biso   1.000  Co
  Co11     1.0000 0.46517  0.17708  0.71633  Biso   1.000  Co
  Co12     1.0000 0.49154  0.57108  0.68005  Biso   1.000  Co
  P10      1.0000 0.91477  0.10068  0.63006  Biso   1.000  P
  P11      1.0000 0.42488  0.36966  0.66225  Biso   1.000  P
  P12      1.0000 0.02525  0.61378  0.58784  Biso   1.000  P
  O37      1.0000 0.80720  0.11376  0.71620  Biso   1.000  O
  O38      1.0000 0.79260  0.17373  0.57351  Biso   1.000  O
  O39      1.0000 0.21630  0.11010  0.64293  Biso   1.000  O
  O40      1.0000 0.83350  0.01200  0.59607  Biso   1.000  O
  O41      1.0000 0.53070  0.38536  0.57757  Biso   1.000  O
  O42      1.0000 0.46750  0.45006  0.71735  Biso   1.000  O
  O43      1.0000 0.60190  0.29457  0.70106  Biso   1.000  O
  O44      1.0000 0.13740  0.34170  0.65790  Biso   1.000  O
  O45      1.0000 0.74480  0.57904  0.59495  Biso   1.000  O
  O46      1.0000 0.15290  0.64532  0.67465  Biso   1.000  O
  O47      1.0000 0.02210  0.69083  0.52908  Biso   1.000  O
  O48      1.0000 0.21060  0.54023  0.56687  Biso   1.000  O
  Co13     1.0000 0.00000  0.00000  0.00000  Biso   1.000  Co
  Co14     1.0000 0.50000  0.50000  0.50000  Biso   1.000  Co
