data_image0
_cell_length_a       5.0979
_cell_length_b       15.2338
_cell_length_c       16.4247
_cell_angle_alpha    90
_cell_angle_beta     95.668
_cell_angle_gamma    90

_symmetry_space_group_name_H-M    "P 1"
_symmetry_int_tables_number       1

loop_
  _symmetry_equiv_pos_as_xyz
  'x, y, z'

loop_
  _atom_site_label
  _atom_site_occupancy
  _atom_site_fract_x
  _atom_site_fract_y
  _atom_site_fract_z
  _atom_site_thermal_displace_type
  _atom_site_B_iso_or_equiv
  _atom_site_type_symbol
  Co1      1.0000 0.96540  0.67711  0.21650  Biso   1.000  Co
  Co2      1.0000 0.34330  0.80262  0.08222  Biso   1.000  Co
  Co3      1.0000 0.01040  0.92849  0.82041  Biso   1.000  Co
  P1       1.0000 0.41510  0.59991  0.13049  Biso   1.000  P
  P2       1.0000 0.92440  0.86946  0.16220  Biso   1.000  P
  P3       1.0000 0.47610  0.88591  0.91248  Biso   1.000  P
  O1       1.0000 0.29050  0.95970  0.93320  Biso   1.000  O
  O2       1.0000 0.02940  0.88520  0.07710  Biso   1.000  O
  O3       1.0000 0.75720  0.92060  0.90600  Biso   1.000  O
  O4       1.0000 0.10420  0.79490  0.20110  Biso   1.000  O
  O5       1.0000 0.71780  0.60950  0.14280  Biso   1.000  O
  O6       1.0000 0.80650  0.88590  0.71630  Biso   1.000  O
  O7       1.0000 0.34830  0.85390  0.82560  Biso   1.000  O
  O8       1.0000 0.63720  0.83970  0.15850  Biso   1.000  O
  O9       1.0000 0.29290  0.67270  0.07350  Biso   1.000  O
  O10      1.0000 0.47900  0.80890  0.97170  Biso   1.000  O
  O11      1.0000 0.03420  0.04890  0.78240  Biso   1.000  O
  O12      1.0000 0.33410  0.51000  0.09740  Biso   1.000  O
  Co4      1.0000 0.53460  0.17711  0.28350  Biso   1.000  Co
  Co5      1.0000 0.15670  0.30262  0.41778  Biso   1.000  Co
  Co6      1.0000 0.48960  0.42849  0.67959  Biso   1.000  Co
  P4       1.0000 0.08490  0.09991  0.36951  Biso   1.000  P
  P5       1.0000 0.57560  0.36946  0.33780  Biso   1.000  P
  P6       1.0000 0.02390  0.38591  0.58752  Biso   1.000  P
  O13      1.0000 0.20950  0.45970  0.56680  Biso   1.000  O
  O14      1.0000 0.47060  0.38520  0.42290  Biso   1.000  O
  O15      1.0000 0.74280  0.42060  0.59400  Biso   1.000  O
  O16      1.0000 0.39580  0.29490  0.29890  Biso   1.000  O
  O17      1.0000 0.78220  0.10950  0.35720  Biso   1.000  O
  O18      1.0000 0.69350  0.38590  0.78370  Biso   1.000  O
  O19      1.0000 0.15170  0.35390  0.67440  Biso   1.000  O
  O20      1.0000 0.86280  0.33970  0.34150  Biso   1.000  O
  O21      1.0000 0.20710  0.17270  0.42650  Biso   1.000  O
  O22      1.0000 0.02100  0.30890  0.52830  Biso   1.000  O
  O23      1.0000 0.46580  0.54890  0.71760  Biso   1.000  O
  O24      1.0000 0.16590  0.01000  0.40260  Biso   1.000  O
  Co7      1.0000 0.03460  0.32289  0.78350  Biso   1.000  Co
  Co8      1.0000 0.65670  0.19738  0.91778  Biso   1.000  Co
  Co9      1.0000 0.98960  0.07151  0.17959  Biso   1.000  Co
  P7       1.0000 0.58490  0.40009  0.86951  Biso   1.000  P
  P8       1.0000 0.07560  0.13054  0.83780  Biso   1.000  P
  P9       1.0000 0.52390  0.11409  0.08752  Biso   1.000  P
  O25      1.0000 0.70950  0.04030  0.06680  Biso   1.000  O
  O26      1.0000 0.97060  0.11480  0.92290  Biso   1.000  O
  O27      1.0000 0.24280  0.07940  0.09400  Biso   1.000  O
  O28      1.0000 0.89580  0.20510  0.79890  Biso   1.000  O
  O29      1.0000 0.28220  0.39050  0.85720  Biso   1.000  O
  O30      1.0000 0.19350  0.11410  0.28370  Biso   1.000  O
  O31      1.0000 0.65170  0.14610  0.17440  Biso   1.000  O
  O32      1.0000 0.36280  0.16030  0.84150  Biso   1.000  O
  O33      1.0000 0.70710  0.32730  0.92650  Biso   1.000  O
  O34      1.0000 0.52100  0.19110  0.02830  Biso   1.000  O
  O35      1.0000 0.96580  0.95110  0.21760  Biso   1.000  O
  O36      1.0000 0.66590  0.49000  0.90260  Biso   1.000  O
  Co10     1.0000 0.46540  0.82289  0.71650  Biso   1.000  Co
  Co11     1.0000 0.84330  0.69738  0.58222  Biso   1.000  Co
  Co12     1.0000 0.51040  0.57151  0.32041  Biso   1.000  Co
  P10      1.0000 0.91510  0.90009  0.63049  Biso   1.000  P
  P11      1.0000 0.42440  0.63054  0.66220  Biso   1.000  P
  P12      1.0000 0.97610  0.61409  0.41248  Biso   1.000  P
  O37      1.0000 0.79050  0.54030  0.43320  Biso   1.000  O
  O38      1.0000 0.52940  0.61480  0.57710  Biso   1.000  O
  O39      1.0000 0.25720  0.57940  0.40600  Biso   1.000  O
  O40      1.0000 0.60420  0.70510  0.70110  Biso   1.000  O
  O41      1.0000 0.21780  0.89050  0.64280  Biso   1.000  O
  O42      1.0000 0.30650  0.61410  0.21630  Biso   1.000  O
  O43      1.0000 0.84830  0.64610  0.32560  Biso   1.000  O
  O44      1.0000 0.13720  0.66030  0.65850  Biso   1.000  O
  O45      1.0000 0.79290  0.82730  0.57350  Biso   1.000  O
  O46      1.0000 0.97900  0.69110  0.47170  Biso   1.000  O
  O47      1.0000 0.53420  0.45110  0.28240  Biso   1.000  O
  O48      1.0000 0.83410  0.99000  0.59740  Biso   1.000  O
  Co13     1.0000 0.00000  0.00000  0.00000  Biso   1.000  Co
  Co14     1.0000 0.50000  0.50000  0.50000  Biso   1.000  Co
