data_image0
_cell_length_a       5.0798
_cell_length_b       15.203
_cell_length_c       16.3535
_cell_angle_alpha    90
_cell_angle_beta     95.69
_cell_angle_gamma    90

_symmetry_space_group_name_H-M    "P 1"
_symmetry_int_tables_number       1

loop_
  _symmetry_equiv_pos_as_xyz
  'x, y, z'

loop_
  _atom_site_label
  _atom_site_occupancy
  _atom_site_fract_x
  _atom_site_fract_y
  _atom_site_fract_z
  _atom_site_thermal_displace_type
  _atom_site_B_iso_or_equiv
  _atom_site_type_symbol
  Co1      1.0000 0.96550  0.67712  0.21639  Biso   1.000  Co
  Co2      1.0000 0.34570  0.80312  0.08154  Biso   1.000  Co
  Co3      1.0000 0.00850  0.92897  0.81984  Biso   1.000  Co
  P1       1.0000 0.41540  0.60078  0.13008  Biso   1.000  P
  P2       1.0000 0.92460  0.86945  0.16219  Biso   1.000  P
  P3       1.0000 0.47480  0.88604  0.91184  Biso   1.000  P
  O1       1.0000 0.28980  0.95980  0.93370  Biso   1.000  O
  O2       1.0000 0.02980  0.88520  0.07730  Biso   1.000  O
  O3       1.0000 0.75430  0.92140  0.90500  Biso   1.000  O
  O4       1.0000 0.10000  0.79420  0.20120  Biso   1.000  O
  O5       1.0000 0.71640  0.61050  0.14280  Biso   1.000  O
  O6       1.0000 0.80590  0.88590  0.71590  Biso   1.000  O
  O7       1.0000 0.34680  0.85490  0.82540  Biso   1.000  O
  O8       1.0000 0.63700  0.84120  0.15810  Biso   1.000  O
  O9       1.0000 0.29430  0.67420  0.07380  Biso   1.000  O
  O10      1.0000 0.47710  0.80880  0.97120  Biso   1.000  O
  O11      1.0000 0.03260  0.04930  0.78290  Biso   1.000  O
  O12      1.0000 0.33300  0.51210  0.09650  Biso   1.000  O
  Co4      1.0000 0.53450  0.17712  0.28361  Biso   1.000  Co
  Co5      1.0000 0.15430  0.30312  0.41846  Biso   1.000  Co
  Co6      1.0000 0.49150  0.42897  0.68016  Biso   1.000  Co
  P4       1.0000 0.08460  0.10078  0.36992  Biso   1.000  P
  P5       1.0000 0.57540  0.36945  0.33781  Biso   1.000  P
  P6       1.0000 0.02520  0.38604  0.58816  Biso   1.000  P
  O13      1.0000 0.21020  0.45980  0.56630  Biso   1.000  O
  O14      1.0000 0.47020  0.38520  0.42270  Biso   1.000  O
  O15      1.0000 0.74570  0.42140  0.59500  Biso   1.000  O
  O16      1.0000 0.40000  0.29420  0.29880  Biso   1.000  O
  O17      1.0000 0.78360  0.11050  0.35720  Biso   1.000  O
  O18      1.0000 0.69410  0.38590  0.78410  Biso   1.000  O
  O19      1.0000 0.15320  0.35490  0.67460  Biso   1.000  O
  O20      1.0000 0.86300  0.34120  0.34190  Biso   1.000  O
  O21      1.0000 0.20570  0.17420  0.42620  Biso   1.000  O
  O22      1.0000 0.02290  0.30880  0.52880  Biso   1.000  O
  O23      1.0000 0.46740  0.54930  0.71710  Biso   1.000  O
  O24      1.0000 0.16700  0.01210  0.40350  Biso   1.000  O
  Co7      1.0000 0.03450  0.32288  0.78361  Biso   1.000  Co
  Co8      1.0000 0.65430  0.19688  0.91846  Biso   1.000  Co
  Co9      1.0000 0.99150  0.07103  0.18016  Biso   1.000  Co
  P7       1.0000 0.58460  0.39922  0.86992  Biso   1.000  P
  P8       1.0000 0.07540  0.13055  0.83781  Biso   1.000  P
  P9       1.0000 0.52520  0.11396  0.08816  Biso   1.000  P
  O25      1.0000 0.71020  0.04020  0.06630  Biso   1.000  O
  O26      1.0000 0.97020  0.11480  0.92270  Biso   1.000  O
  O27      1.0000 0.24570  0.07860  0.09500  Biso   1.000  O
  O28      1.0000 0.90000  0.20580  0.79880  Biso   1.000  O
  O29      1.0000 0.28360  0.38950  0.85720  Biso   1.000  O
  O30      1.0000 0.19410  0.11410  0.28410  Biso   1.000  O
  O31      1.0000 0.65320  0.14510  0.17460  Biso   1.000  O
  O32      1.0000 0.36300  0.15880  0.84190  Biso   1.000  O
  O33      1.0000 0.70570  0.32580  0.92620  Biso   1.000  O
  O34      1.0000 0.52290  0.19120  0.02880  Biso   1.000  O
  O35      1.0000 0.96740  0.95070  0.21710  Biso   1.000  O
  O36      1.0000 0.66700  0.48790  0.90350  Biso   1.000  O
  Co10     1.0000 0.46550  0.82288  0.71639  Biso   1.000  Co
  Co11     1.0000 0.84570  0.69688  0.58154  Biso   1.000  Co
  Co12     1.0000 0.50850  0.57103  0.31984  Biso   1.000  Co
  P10      1.0000 0.91540  0.89922  0.63008  Biso   1.000  P
  P11      1.0000 0.42460  0.63055  0.66219  Biso   1.000  P
  P12      1.0000 0.97480  0.61396  0.41184  Biso   1.000  P
  O37      1.0000 0.78980  0.54020  0.43370  Biso   1.000  O
  O38      1.0000 0.52980  0.61480  0.57730  Biso   1.000  O
  O39      1.0000 0.25430  0.57860  0.40500  Biso   1.000  O
  O40      1.0000 0.60000  0.70580  0.70120  Biso   1.000  O
  O41      1.0000 0.21640  0.88950  0.64280  Biso   1.000  O
  O42      1.0000 0.30590  0.61410  0.21590  Biso   1.000  O
  O43      1.0000 0.84680  0.64510  0.32540  Biso   1.000  O
  O44      1.0000 0.13700  0.65880  0.65810  Biso   1.000  O
  O45      1.0000 0.79430  0.82580  0.57380  Biso   1.000  O
  O46      1.0000 0.97710  0.69120  0.47120  Biso   1.000  O
  O47      1.0000 0.53260  0.45070  0.28290  Biso   1.000  O
  O48      1.0000 0.83300  0.98790  0.59650  Biso   1.000  O
  Co13     1.0000 0.00000  0.00000  0.00000  Biso   1.000  Co
  Co14     1.0000 0.50000  0.50000  0.50000  Biso   1.000  Co
