data_WONXIH_clean
_audit_creation_date              2014-07-02
_audit_creation_method            'Materials Studio'
_symmetry_space_group_name_H-M    'P1'
_symmetry_Int_Tables_number       1
_symmetry_cell_setting            triclinic
loop_
_symmetry_equiv_pos_as_xyz
  x,y,z
_cell_length_a                    9.2209
_cell_length_b                    9.5441
_cell_length_c                    21.5841
_cell_angle_alpha                 90.0000
_cell_angle_beta                  90.0000
_cell_angle_gamma                 116.2190
loop_
_atom_site_label
_atom_site_type_symbol
_atom_site_fract_x
_atom_site_fract_y
_atom_site_fract_z
_atom_site_U_iso_or_equiv
_atom_site_adp_type
_atom_site_occupancy
Gd1    Gd    0.12410   0.85832   0.49154   0.01267  Uiso   1.00
Gd2    Gd    0.37590   0.14168   0.99154   0.01267  Uiso   1.00
Gd3    Gd    0.87590   0.14168   0.50846   0.01267  Uiso   1.00
Gd4    Gd    0.62410   0.85832   0.00846   0.01267  Uiso   1.00
Cu1    Cu    0.04005   0.19136   0.85407   0.01267  Uiso   1.00
Cu2    Cu    0.45995   0.80864   0.35407   0.01267  Uiso   1.00
Cu3    Cu    0.95995   0.80864   0.14593   0.01267  Uiso   1.00
Cu4    Cu    0.54005   0.19136   0.64593   0.01267  Uiso   1.00
H1     H     0.99480   0.15260   0.72370   0.01267  Uiso   1.00
H2     H     0.10670   0.81340   0.66670   0.01267  Uiso   1.00
H3     H     0.15210   0.77410   0.76940   0.01267  Uiso   1.00
H4     H     0.11670   0.92340   0.84550   0.01267  Uiso   1.00
H5     H     0.79460   0.29820   0.84360   0.01267  Uiso   1.00
H6     H     0.74700   0.50460   0.87260   0.01267  Uiso   1.00
H7     H     0.93860   0.70330   0.93140   0.01267  Uiso   1.00
H8     H     0.20930   0.47370   0.92930   0.01267  Uiso   1.00
H9     H     0.50520   0.84740   0.22370   0.01267  Uiso   1.00
H10    H     0.39330   0.18660   0.16670   0.01267  Uiso   1.00
H11    H     0.34790   0.22590   0.26940   0.01267  Uiso   1.00
H12    H     0.38330   0.07660   0.34550   0.01267  Uiso   1.00
H13    H     0.70540   0.70180   0.34360   0.01267  Uiso   1.00
H14    H     0.75300   0.49540   0.37260   0.01267  Uiso   1.00
H15    H     0.56140   0.29670   0.43140   0.01267  Uiso   1.00
H16    H     0.29070   0.52630   0.42930   0.01267  Uiso   1.00
H17    H     0.00520   0.84740   0.27630   0.01267  Uiso   1.00
H18    H     0.89330   0.18660   0.33330   0.01267  Uiso   1.00
H19    H     0.84790   0.22590   0.23060   0.01267  Uiso   1.00
H20    H     0.88330   0.07660   0.15450   0.01267  Uiso   1.00
H21    H     0.20540   0.70180   0.15640   0.01267  Uiso   1.00
H22    H     0.25300   0.49540   0.12740   0.01267  Uiso   1.00
H23    H     0.06140   0.29670   0.06860   0.01267  Uiso   1.00
H24    H     0.79070   0.52630   0.07070   0.01267  Uiso   1.00
H25    H     0.49480   0.15260   0.77630   0.01267  Uiso   1.00
H26    H     0.60670   0.81340   0.83330   0.01267  Uiso   1.00
H27    H     0.65210   0.77410   0.73060   0.01267  Uiso   1.00
H28    H     0.61670   0.92340   0.65450   0.01267  Uiso   1.00
H29    H     0.29460   0.29820   0.65640   0.01267  Uiso   1.00
H30    H     0.24700   0.50460   0.62740   0.01267  Uiso   1.00
H31    H     0.43860   0.70330   0.56860   0.01267  Uiso   1.00
H32    H     0.70930   0.47370   0.57070   0.01267  Uiso   1.00
C1     C     0.02870   0.07640   0.73270   0.01267  Uiso   1.00
C2     C     0.04500   0.99020   0.68360   0.01267  Uiso   1.00
C3     C     0.09320   0.87400   0.69790   0.01267  Uiso   1.00
C4     C     0.12040   0.85100   0.75890   0.01267  Uiso   1.00
C5     C     0.10050   0.94240   0.80440   0.01267  Uiso   1.00
C6     C     0.01220   0.02430   0.61950   0.01267  Uiso   1.00
C7     C     0.87190   0.37720   0.86740   0.01267  Uiso   1.00
C8     C     0.84230   0.50090   0.88440   0.01267  Uiso   1.00
C9     C     0.95590   0.61860   0.91900   0.01267  Uiso   1.00
C10    C     0.09670   0.60980   0.93520   0.01267  Uiso   1.00
C11    C     0.11600   0.48100   0.91740   0.01267  Uiso   1.00
C12    C     0.23090   0.74200   0.97000   0.01267  Uiso   1.00
C13    C     0.98870   0.49230   0.46460   0.01267  Uiso   1.00
C14    C     0.99640   0.02270   0.96580   0.01267  Uiso   1.00
C15    C     0.47130   0.92360   0.23270   0.01267  Uiso   1.00
C16    C     0.45500   0.00980   0.18360   0.01267  Uiso   1.00
C17    C     0.40680   0.12600   0.19790   0.01267  Uiso   1.00
C18    C     0.37960   0.14900   0.25890   0.01267  Uiso   1.00
C19    C     0.39950   0.05760   0.30440   0.01267  Uiso   1.00
C20    C     0.48780   0.97570   0.11950   0.01267  Uiso   1.00
C21    C     0.62810   0.62280   0.36740   0.01267  Uiso   1.00
C22    C     0.65770   0.49910   0.38440   0.01267  Uiso   1.00
C23    C     0.54410   0.38140   0.41900   0.01267  Uiso   1.00
C24    C     0.40330   0.39020   0.43520   0.01267  Uiso   1.00
C25    C     0.38400   0.51900   0.41740   0.01267  Uiso   1.00
C26    C     0.26910   0.25800   0.47000   0.01267  Uiso   1.00
C27    C     0.51130   0.50770   0.96460   0.01267  Uiso   1.00
C28    C     0.50360   0.97730   0.46580   0.01267  Uiso   1.00
C29    C     0.97130   0.92360   0.26730   0.01267  Uiso   1.00
C30    C     0.95500   0.00980   0.31640   0.01267  Uiso   1.00
C31    C     0.90680   0.12600   0.30210   0.01267  Uiso   1.00
C32    C     0.87960   0.14900   0.24110   0.01267  Uiso   1.00
C33    C     0.89950   0.05760   0.19560   0.01267  Uiso   1.00
C34    C     0.98780   0.97570   0.38050   0.01267  Uiso   1.00
C35    C     0.12810   0.62280   0.13260   0.01267  Uiso   1.00
C36    C     0.15770   0.49910   0.11560   0.01267  Uiso   1.00
C37    C     0.04410   0.38140   0.08100   0.01267  Uiso   1.00
C38    C     0.90330   0.39020   0.06480   0.01267  Uiso   1.00
C39    C     0.88400   0.51900   0.08260   0.01267  Uiso   1.00
C40    C     0.76910   0.25800   0.03000   0.01267  Uiso   1.00
C41    C     0.01130   0.50770   0.53540   0.01267  Uiso   1.00
C42    C     0.00360   0.97730   0.03420   0.01267  Uiso   1.00
C43    C     0.52870   0.07640   0.76730   0.01267  Uiso   1.00
C44    C     0.54500   0.99020   0.81640   0.01267  Uiso   1.00
C45    C     0.59320   0.87400   0.80210   0.01267  Uiso   1.00
C46    C     0.62040   0.85100   0.74110   0.01267  Uiso   1.00
C47    C     0.60050   0.94240   0.69560   0.01267  Uiso   1.00
C48    C     0.51220   0.02430   0.88050   0.01267  Uiso   1.00
C49    C     0.37190   0.37720   0.63260   0.01267  Uiso   1.00
C50    C     0.34230   0.50090   0.61560   0.01267  Uiso   1.00
C51    C     0.45590   0.61860   0.58100   0.01267  Uiso   1.00
C52    C     0.59670   0.60980   0.56480   0.01267  Uiso   1.00
C53    C     0.61600   0.48100   0.58260   0.01267  Uiso   1.00
C54    C     0.73090   0.74200   0.53000   0.01267  Uiso   1.00
C55    C     0.48870   0.49230   0.03540   0.01267  Uiso   1.00
C56    C     0.49640   0.02270   0.53420   0.01267  Uiso   1.00
N1     N     0.05870   0.05730   0.79209   0.01267  Uiso   1.00
N2     N     0.00460   0.36400   0.88300   0.01267  Uiso   1.00
N3     N     0.44130   0.94270   0.29209   0.01267  Uiso   1.00
N4     N     0.49540   0.63600   0.38300   0.01267  Uiso   1.00
N5     N     0.94130   0.94270   0.20791   0.01267  Uiso   1.00
N6     N     0.99540   0.63600   0.11700   0.01267  Uiso   1.00
N7     N     0.55870   0.05730   0.70791   0.01267  Uiso   1.00
N8     N     0.50460   0.36400   0.61700   0.01267  Uiso   1.00
O1     O     0.05190   0.96380   0.57543   0.01267  Uiso   1.00
O2     O     0.94520   0.11210   0.61256   0.01267  Uiso   1.00
O3     O     0.33690   0.71460   0.99528   0.01267  Uiso   1.00
O4     O     0.22140   0.86860   0.97089   0.01267  Uiso   1.00
O5     O     0.05130   0.61620   0.43357   0.01267  Uiso   1.00
O6     O     0.90810   0.35660   0.44339   0.01267  Uiso   1.00
O7     O     0.12890   0.11780   0.94171   0.01267  Uiso   1.00
O8     O     0.86310   0.96140   0.93898   0.01267  Uiso   1.00
O9     O     0.44810   0.03620   0.07543   0.01267  Uiso   1.00
O10    O     0.55480   0.88790   0.11256   0.01267  Uiso   1.00
O11    O     0.16310   0.28540   0.49528   0.01267  Uiso   1.00
O12    O     0.27860   0.13140   0.47089   0.01267  Uiso   1.00
O13    O     0.44870   0.38380   0.93357   0.01267  Uiso   1.00
O14    O     0.59190   0.64340   0.94339   0.01267  Uiso   1.00
O15    O     0.37110   0.88220   0.44171   0.01267  Uiso   1.00
O16    O     0.63690   0.03860   0.43898   0.01267  Uiso   1.00
O17    O     0.94810   0.03620   0.42457   0.01267  Uiso   1.00
O18    O     0.05480   0.88790   0.38744   0.01267  Uiso   1.00
O19    O     0.66310   0.28540   0.00472   0.01267  Uiso   1.00
O20    O     0.77860   0.13140   0.02911   0.01267  Uiso   1.00
O21    O     0.94870   0.38380   0.56643   0.01267  Uiso   1.00
O22    O     0.09190   0.64340   0.55661   0.01267  Uiso   1.00
O23    O     0.87110   0.88220   0.05829   0.01267  Uiso   1.00
O24    O     0.13690   0.03860   0.06102   0.01267  Uiso   1.00
O25    O     0.55190   0.96380   0.92457   0.01267  Uiso   1.00
O26    O     0.44520   0.11210   0.88744   0.01267  Uiso   1.00
O27    O     0.83690   0.71460   0.50472   0.01267  Uiso   1.00
O28    O     0.72140   0.86860   0.52911   0.01267  Uiso   1.00
O29    O     0.55130   0.61620   0.06643   0.01267  Uiso   1.00
O30    O     0.40810   0.35660   0.05661   0.01267  Uiso   1.00
O31    O     0.62890   0.11780   0.55829   0.01267  Uiso   1.00
O32    O     0.36310   0.96140   0.56102   0.01267  Uiso   1.00
