data_image0
_cell_length_a       38.03
_cell_length_b       10.0098
_cell_length_c       26.423
_cell_angle_alpha    90
_cell_angle_beta     125.589
_cell_angle_gamma    90

_symmetry_space_group_name_H-M    "P 1"
_symmetry_int_tables_number       1

loop_
  _symmetry_equiv_pos_as_xyz
  'x, y, z'

loop_
  _atom_site_label
  _atom_site_occupancy
  _atom_site_fract_x
  _atom_site_fract_y
  _atom_site_fract_z
  _atom_site_thermal_displace_type
  _atom_site_B_iso_or_equiv
  _atom_site_type_symbol
  Zn1      1.0000 0.83734  0.66779  0.29160  Biso   1.000  Zn
  Zn2      1.0000 0.88609  0.96437  0.41558  Biso   1.000  Zn
  C1       1.0000 0.07079  0.72050  0.08420  Biso   1.000  C
  C2       1.0000 0.02774  0.66110  0.06120  Biso   1.000  C
  C3       1.0000 0.02565  0.53680  0.08250  Biso   1.000  C
  H1       1.0000 0.05070  0.48850  0.10990  Biso   1.000  H
  C4       1.0000 0.98530  0.48530  0.06210  Biso   1.000  C
  C5       1.0000 0.94775  0.55840  0.02180  Biso   1.000  C
  H2       1.0000 0.92100  0.52510  0.00920  Biso   1.000  H
  C6       1.0000 0.95093  0.68330  0.00050  Biso   1.000  C
  C7       1.0000 0.99084  0.73290  0.02030  Biso   1.000  C
  H3       1.0000 0.99280  0.81530  0.00580  Biso   1.000  H
  C8       1.0000 0.91170  0.76740  0.95980  Biso   1.000  C
  C9       1.0000 0.01460  0.28590  0.12260  Biso   1.000  C
  H4       1.0000 0.03180  0.33390  0.16180  Biso   1.000  H
  H5       1.0000 0.03230  0.26870  0.10790  Biso   1.000  H
  C10      1.0000 0.99850  0.15670  0.13120  Biso   1.000  C
  C11      1.0000 0.97270  0.15510  0.15320  Biso   1.000  C
  H6       1.0000 0.96540  0.23540  0.16250  Biso   1.000  H
  C12      1.0000 0.95790  0.03730  0.16110  Biso   1.000  C
  C13      1.0000 0.97100  0.92090  0.14980  Biso   1.000  C
  H7       1.0000 0.96150  0.84030  0.15530  Biso   1.000  H
  C14      1.0000 0.99700  0.91850  0.13100  Biso   1.000  C
  H8       1.0000 0.00540  0.83690  0.12430  Biso   1.000  H
  C15      1.0000 0.01200  0.03880  0.12130  Biso   1.000  C
  H9       1.0000 0.03030  0.03780  0.10870  Biso   1.000  H
  C16      1.0000 0.92950  0.02980  0.18250  Biso   1.000  C
  H10      1.0000 0.90470  0.97400  0.15410  Biso   1.000  H
  H11      1.0000 0.94530  0.98820  0.22330  Biso   1.000  H
  C17      1.0000 0.89430  0.16170  0.21530  Biso   1.000  C
  C18      1.0000 0.88550  0.28910  0.22590  Biso   1.000  C
  H12      1.0000 0.89270  0.36340  0.21260  Biso   1.000  H
  C19      1.0000 0.86610  0.30580  0.25640  Biso   1.000  C
  C20      1.0000 0.85650  0.19340  0.27720  Biso   1.000  C
  H13      1.0000 0.84410  0.20370  0.29870  Biso   1.000  H
  C21      1.0000 0.86491  0.06930  0.26660  Biso   1.000  C
  C22      1.0000 0.88400  0.05040  0.23440  Biso   1.000  C
  H14      1.0000 0.88930  0.96510  0.22640  Biso   1.000  H
  C23      1.0000 0.85520  0.44220  0.26820  Biso   1.000  C
  C24      1.0000 0.85441  0.94650  0.28860  Biso   1.000  C
  C25      1.0000 0.77337  0.79150  0.31200  Biso   1.000  C
  H15      1.0000 0.77030  0.85480  0.28400  Biso   1.000  H
  C26      1.0000 0.74973  0.80680  0.33540  Biso   1.000  C
  H16      1.0000 0.73240  0.88200  0.32480  Biso   1.000  H
  C27      1.0000 0.75120  0.71250  0.37430  Biso   1.000  C
  C28      1.0000 0.77960  0.60260  0.39060  Biso   1.000  C
  H17      1.0000 0.78210  0.53470  0.41650  Biso   1.000  H
  C29      1.0000 0.80360  0.60120  0.36590  Biso   1.000  C
  H18      1.0000 0.82320  0.53190  0.37770  Biso   1.000  H
  C30      1.0000 0.72650  0.73190  0.40030  Biso   1.000  C
  C31      1.0000 0.69080  0.70820  0.43970  Biso   1.000  C
  C32      1.0000 0.67080  0.65370  0.46980  Biso   1.000  C
  C33      1.0000 0.64190  0.73830  0.47130  Biso   1.000  C
  H19      1.0000 0.63420  0.82090  0.45140  Biso   1.000  H
  C34      1.0000 0.62530  0.69550  0.50290  Biso   1.000  C
  H20      1.0000 0.60510  0.74920  0.50240  Biso   1.000  H
  C35      1.0000 0.66290  0.50040  0.52980  Biso   1.000  C
  H21      1.0000 0.66990  0.41730  0.54920  Biso   1.000  H
  C36      1.0000 0.67970  0.53520  0.49790  Biso   1.000  C
  H22      1.0000 0.69760  0.47570  0.49580  Biso   1.000  H
  N1       1.0000 0.80031  0.69140  0.32720  Biso   1.000  N
  N2       1.0000 0.71053  0.64040  0.41810  Biso   1.000  N
  N3       1.0000 0.71765  0.84980  0.40990  Biso   1.000  N
  N4       1.0000 0.69490  0.83510  0.43480  Biso   1.000  N
  N5       1.0000 0.70900  0.49920  0.41100  Biso   1.000  N
  H23      1.0000 0.71940  0.46270  0.39290  Biso   1.000  H
  H24      1.0000 0.69760  0.45040  0.42470  Biso   1.000  H
  N6       1.0000 0.63672  0.58050  0.53440  Biso   1.000  N
  O1       1.0000 0.06962  0.83880  0.06550  Biso   1.000  O
  O2       1.0000 0.10415  0.65330  0.11720  Biso   1.000  O
  O3       1.0000 0.87655  0.73380  0.95070  Biso   1.000  O
  O4       1.0000 0.91695  0.86910  0.93760  Biso   1.000  O
  O5       1.0000 0.97780  0.36180  0.07830  Biso   1.000  O
  O6       1.0000 0.91515  0.15610  0.18590  Biso   1.000  O
  O7       1.0000 0.85680  0.83430  0.27070  Biso   1.000  O
  O8       1.0000 0.84354  0.96560  0.32520  Biso   1.000  O
  O9       1.0000 0.83454  0.45200  0.29060  Biso   1.000  O
  O10      1.0000 0.86760  0.54230  0.25570  Biso   1.000  O
  Zn3      1.0000 0.33734  0.16779  0.29160  Biso   1.000  Zn
  Zn4      1.0000 0.38609  0.46437  0.41558  Biso   1.000  Zn
  C37      1.0000 0.57079  0.22050  0.08420  Biso   1.000  C
  C38      1.0000 0.52774  0.16110  0.06120  Biso   1.000  C
  C39      1.0000 0.52565  0.03680  0.08250  Biso   1.000  C
  H25      1.0000 0.55070  0.98850  0.10990  Biso   1.000  H
  C40      1.0000 0.48530  0.98530  0.06210  Biso   1.000  C
  C41      1.0000 0.44775  0.05840  0.02180  Biso   1.000  C
  H26      1.0000 0.42100  0.02510  0.00920  Biso   1.000  H
  C42      1.0000 0.45093  0.18330  0.00050  Biso   1.000  C
  C43      1.0000 0.49084  0.23290  0.02030  Biso   1.000  C
  H27      1.0000 0.49280  0.31530  0.00580  Biso   1.000  H
  C44      1.0000 0.41170  0.26740  0.95980  Biso   1.000  C
  C45      1.0000 0.51460  0.78590  0.12260  Biso   1.000  C
  H28      1.0000 0.53180  0.83390  0.16180  Biso   1.000  H
  H29      1.0000 0.53230  0.76870  0.10790  Biso   1.000  H
  C46      1.0000 0.49850  0.65670  0.13120  Biso   1.000  C
  C47      1.0000 0.47270  0.65510  0.15320  Biso   1.000  C
  H30      1.0000 0.46540  0.73540  0.16250  Biso   1.000  H
  C48      1.0000 0.45790  0.53730  0.16110  Biso   1.000  C
  C49      1.0000 0.47100  0.42090  0.14980  Biso   1.000  C
  H31      1.0000 0.46150  0.34030  0.15530  Biso   1.000  H
  C50      1.0000 0.49700  0.41850  0.13100  Biso   1.000  C
  H32      1.0000 0.50540  0.33690  0.12430  Biso   1.000  H
  C51      1.0000 0.51200  0.53880  0.12130  Biso   1.000  C
  H33      1.0000 0.53030  0.53780  0.10870  Biso   1.000  H
  C52      1.0000 0.42950  0.52980  0.18250  Biso   1.000  C
  H34      1.0000 0.40470  0.47400  0.15410  Biso   1.000  H
  H35      1.0000 0.44530  0.48820  0.22330  Biso   1.000  H
  C53      1.0000 0.39430  0.66170  0.21530  Biso   1.000  C
  C54      1.0000 0.38550  0.78910  0.22590  Biso   1.000  C
  H36      1.0000 0.39270  0.86340  0.21260  Biso   1.000  H
  C55      1.0000 0.36610  0.80580  0.25640  Biso   1.000  C
  C56      1.0000 0.35650  0.69340  0.27720  Biso   1.000  C
  H37      1.0000 0.34410  0.70370  0.29870  Biso   1.000  H
  C57      1.0000 0.36491  0.56930  0.26660  Biso   1.000  C
  C58      1.0000 0.38400  0.55040  0.23440  Biso   1.000  C
  H38      1.0000 0.38930  0.46510  0.22640  Biso   1.000  H
  C59      1.0000 0.35520  0.94220  0.26820  Biso   1.000  C
  C60      1.0000 0.35441  0.44650  0.28860  Biso   1.000  C
  C61      1.0000 0.27337  0.29150  0.31200  Biso   1.000  C
  H39      1.0000 0.27030  0.35480  0.28400  Biso   1.000  H
  C62      1.0000 0.24973  0.30680  0.33540  Biso   1.000  C
  H40      1.0000 0.23240  0.38200  0.32480  Biso   1.000  H
  C63      1.0000 0.25120  0.21250  0.37430  Biso   1.000  C
  C64      1.0000 0.27960  0.10260  0.39060  Biso   1.000  C
  H41      1.0000 0.28210  0.03470  0.41650  Biso   1.000  H
  C65      1.0000 0.30360  0.10120  0.36590  Biso   1.000  C
  H42      1.0000 0.32320  0.03190  0.37770  Biso   1.000  H
  C66      1.0000 0.22650  0.23190  0.40030  Biso   1.000  C
  C67      1.0000 0.19080  0.20820  0.43970  Biso   1.000  C
  C68      1.0000 0.17080  0.15370  0.46980  Biso   1.000  C
  C69      1.0000 0.14190  0.23830  0.47130  Biso   1.000  C
  H43      1.0000 0.13420  0.32090  0.45140  Biso   1.000  H
  C70      1.0000 0.12530  0.19550  0.50290  Biso   1.000  C
  H44      1.0000 0.10510  0.24920  0.50240  Biso   1.000  H
  C71      1.0000 0.16290  0.00040  0.52980  Biso   1.000  C
  H45      1.0000 0.16990  0.91730  0.54920  Biso   1.000  H
  C72      1.0000 0.17970  0.03520  0.49790  Biso   1.000  C
  H46      1.0000 0.19760  0.97570  0.49580  Biso   1.000  H
  N7       1.0000 0.30031  0.19140  0.32720  Biso   1.000  N
  N8       1.0000 0.21053  0.14040  0.41810  Biso   1.000  N
  N9       1.0000 0.21765  0.34980  0.40990  Biso   1.000  N
  N10      1.0000 0.19490  0.33510  0.43480  Biso   1.000  N
  N11      1.0000 0.20900  0.99920  0.41100  Biso   1.000  N
  H47      1.0000 0.21940  0.96270  0.39290  Biso   1.000  H
  H48      1.0000 0.19760  0.95040  0.42470  Biso   1.000  H
  N12      1.0000 0.13672  0.08050  0.53440  Biso   1.000  N
  O11      1.0000 0.56962  0.33880  0.06550  Biso   1.000  O
  O12      1.0000 0.60415  0.15330  0.11720  Biso   1.000  O
  O13      1.0000 0.37655  0.23380  0.95070  Biso   1.000  O
  O14      1.0000 0.41695  0.36910  0.93760  Biso   1.000  O
  O15      1.0000 0.47780  0.86180  0.07830  Biso   1.000  O
  O16      1.0000 0.41515  0.65610  0.18590  Biso   1.000  O
  O17      1.0000 0.35680  0.33430  0.27070  Biso   1.000  O
  O18      1.0000 0.34354  0.46560  0.32520  Biso   1.000  O
  O19      1.0000 0.33454  0.95200  0.29060  Biso   1.000  O
  O20      1.0000 0.36760  0.04230  0.25570  Biso   1.000  O
  Zn5      1.0000 0.16266  0.66779  0.20840  Biso   1.000  Zn
  Zn6      1.0000 0.11391  0.96437  0.08442  Biso   1.000  Zn
  C73      1.0000 0.92921  0.72050  0.41580  Biso   1.000  C
  C74      1.0000 0.97226  0.66110  0.43880  Biso   1.000  C
  C75      1.0000 0.97435  0.53680  0.41750  Biso   1.000  C
  H49      1.0000 0.94930  0.48850  0.39010  Biso   1.000  H
  C76      1.0000 0.01470  0.48530  0.43790  Biso   1.000  C
  C77      1.0000 0.05225  0.55840  0.47820  Biso   1.000  C
  H50      1.0000 0.07900  0.52510  0.49080  Biso   1.000  H
  C78      1.0000 0.04907  0.68330  0.49950  Biso   1.000  C
  C79      1.0000 0.00916  0.73290  0.47970  Biso   1.000  C
  H51      1.0000 0.00720  0.81530  0.49420  Biso   1.000  H
  C80      1.0000 0.08830  0.76740  0.54020  Biso   1.000  C
  C81      1.0000 0.98540  0.28590  0.37740  Biso   1.000  C
  H52      1.0000 0.96820  0.33390  0.33820  Biso   1.000  H
  H53      1.0000 0.96770  0.26870  0.39210  Biso   1.000  H
  C82      1.0000 0.00150  0.15670  0.36880  Biso   1.000  C
  C83      1.0000 0.02730  0.15510  0.34680  Biso   1.000  C
  H54      1.0000 0.03460  0.23540  0.33750  Biso   1.000  H
  C84      1.0000 0.04210  0.03730  0.33890  Biso   1.000  C
  C85      1.0000 0.02900  0.92090  0.35020  Biso   1.000  C
  H55      1.0000 0.03850  0.84030  0.34470  Biso   1.000  H
  C86      1.0000 0.00300  0.91850  0.36900  Biso   1.000  C
  H56      1.0000 0.99460  0.83690  0.37570  Biso   1.000  H
  C87      1.0000 0.98800  0.03880  0.37870  Biso   1.000  C
  H57      1.0000 0.96970  0.03780  0.39130  Biso   1.000  H
  C88      1.0000 0.07050  0.02980  0.31750  Biso   1.000  C
  H58      1.0000 0.09530  0.97400  0.34590  Biso   1.000  H
  H59      1.0000 0.05470  0.98820  0.27670  Biso   1.000  H
  C89      1.0000 0.10570  0.16170  0.28470  Biso   1.000  C
  C90      1.0000 0.11450  0.28910  0.27410  Biso   1.000  C
  H60      1.0000 0.10730  0.36340  0.28740  Biso   1.000  H
  C91      1.0000 0.13390  0.30580  0.24360  Biso   1.000  C
  C92      1.0000 0.14350  0.19340  0.22280  Biso   1.000  C
  H61      1.0000 0.15590  0.20370  0.20130  Biso   1.000  H
  C93      1.0000 0.13509  0.06930  0.23340  Biso   1.000  C
  C94      1.0000 0.11600  0.05040  0.26560  Biso   1.000  C
  H62      1.0000 0.11070  0.96510  0.27360  Biso   1.000  H
  C95      1.0000 0.14480  0.44220  0.23180  Biso   1.000  C
  C96      1.0000 0.14559  0.94650  0.21140  Biso   1.000  C
  C97      1.0000 0.22663  0.79150  0.18800  Biso   1.000  C
  H63      1.0000 0.22970  0.85480  0.21600  Biso   1.000  H
  C98      1.0000 0.25027  0.80680  0.16460  Biso   1.000  C
  H64      1.0000 0.26760  0.88200  0.17520  Biso   1.000  H
  C99      1.0000 0.24880  0.71250  0.12570  Biso   1.000  C
  C100     1.0000 0.22040  0.60260  0.10940  Biso   1.000  C
  H65      1.0000 0.21790  0.53470  0.08350  Biso   1.000  H
  C101     1.0000 0.19640  0.60120  0.13410  Biso   1.000  C
  H66      1.0000 0.17680  0.53190  0.12230  Biso   1.000  H
  C102     1.0000 0.27350  0.73190  0.09970  Biso   1.000  C
  C103     1.0000 0.30920  0.70820  0.06030  Biso   1.000  C
  C104     1.0000 0.32920  0.65370  0.03020  Biso   1.000  C
  C105     1.0000 0.35810  0.73830  0.02870  Biso   1.000  C
  H67      1.0000 0.36580  0.82090  0.04860  Biso   1.000  H
  C106     1.0000 0.37470  0.69550  0.99710  Biso   1.000  C
  H68      1.0000 0.39490  0.74920  0.99760  Biso   1.000  H
  C107     1.0000 0.33710  0.50040  0.97020  Biso   1.000  C
  H69      1.0000 0.33010  0.41730  0.95080  Biso   1.000  H
  C108     1.0000 0.32030  0.53520  0.00210  Biso   1.000  C
  H70      1.0000 0.30240  0.47570  0.00420  Biso   1.000  H
  N13      1.0000 0.19969  0.69140  0.17280  Biso   1.000  N
  N14      1.0000 0.28947  0.64040  0.08190  Biso   1.000  N
  N15      1.0000 0.28235  0.84980  0.09010  Biso   1.000  N
  N16      1.0000 0.30510  0.83510  0.06520  Biso   1.000  N
  N17      1.0000 0.29100  0.49920  0.08900  Biso   1.000  N
  H71      1.0000 0.28060  0.46270  0.10710  Biso   1.000  H
  H72      1.0000 0.30240  0.45040  0.07530  Biso   1.000  H
  N18      1.0000 0.36328  0.58050  0.96560  Biso   1.000  N
  O21      1.0000 0.93038  0.83880  0.43450  Biso   1.000  O
  O22      1.0000 0.89585  0.65330  0.38280  Biso   1.000  O
  O23      1.0000 0.12345  0.73380  0.54930  Biso   1.000  O
  O24      1.0000 0.08305  0.86910  0.56240  Biso   1.000  O
  O25      1.0000 0.02220  0.36180  0.42170  Biso   1.000  O
  O26      1.0000 0.08485  0.15610  0.31410  Biso   1.000  O
  O27      1.0000 0.14320  0.83430  0.22930  Biso   1.000  O
  O28      1.0000 0.15646  0.96560  0.17480  Biso   1.000  O
  O29      1.0000 0.16546  0.45200  0.20940  Biso   1.000  O
  O30      1.0000 0.13240  0.54230  0.24430  Biso   1.000  O
  Zn7      1.0000 0.66266  0.16779  0.20840  Biso   1.000  Zn
  Zn8      1.0000 0.61391  0.46437  0.08442  Biso   1.000  Zn
  C109     1.0000 0.42921  0.22050  0.41580  Biso   1.000  C
  C110     1.0000 0.47226  0.16110  0.43880  Biso   1.000  C
  C111     1.0000 0.47435  0.03680  0.41750  Biso   1.000  C
  H73      1.0000 0.44930  0.98850  0.39010  Biso   1.000  H
  C112     1.0000 0.51470  0.98530  0.43790  Biso   1.000  C
  C113     1.0000 0.55225  0.05840  0.47820  Biso   1.000  C
  H74      1.0000 0.57900  0.02510  0.49080  Biso   1.000  H
  C114     1.0000 0.54907  0.18330  0.49950  Biso   1.000  C
  C115     1.0000 0.50916  0.23290  0.47970  Biso   1.000  C
  H75      1.0000 0.50720  0.31530  0.49420  Biso   1.000  H
  C116     1.0000 0.58830  0.26740  0.54020  Biso   1.000  C
  C117     1.0000 0.48540  0.78590  0.37740  Biso   1.000  C
  H76      1.0000 0.46820  0.83390  0.33820  Biso   1.000  H
  H77      1.0000 0.46770  0.76870  0.39210  Biso   1.000  H
  C118     1.0000 0.50150  0.65670  0.36880  Biso   1.000  C
  C119     1.0000 0.52730  0.65510  0.34680  Biso   1.000  C
  H78      1.0000 0.53460  0.73540  0.33750  Biso   1.000  H
  C120     1.0000 0.54210  0.53730  0.33890  Biso   1.000  C
  C121     1.0000 0.52900  0.42090  0.35020  Biso   1.000  C
  H79      1.0000 0.53850  0.34030  0.34470  Biso   1.000  H
  C122     1.0000 0.50300  0.41850  0.36900  Biso   1.000  C
  H80      1.0000 0.49460  0.33690  0.37570  Biso   1.000  H
  C123     1.0000 0.48800  0.53880  0.37870  Biso   1.000  C
  H81      1.0000 0.46970  0.53780  0.39130  Biso   1.000  H
  C124     1.0000 0.57050  0.52980  0.31750  Biso   1.000  C
  H82      1.0000 0.59530  0.47400  0.34590  Biso   1.000  H
  H83      1.0000 0.55470  0.48820  0.27670  Biso   1.000  H
  C125     1.0000 0.60570  0.66170  0.28470  Biso   1.000  C
  C126     1.0000 0.61450  0.78910  0.27410  Biso   1.000  C
  H84      1.0000 0.60730  0.86340  0.28740  Biso   1.000  H
  C127     1.0000 0.63390  0.80580  0.24360  Biso   1.000  C
  C128     1.0000 0.64350  0.69340  0.22280  Biso   1.000  C
  H85      1.0000 0.65590  0.70370  0.20130  Biso   1.000  H
  C129     1.0000 0.63509  0.56930  0.23340  Biso   1.000  C
  C130     1.0000 0.61600  0.55040  0.26560  Biso   1.000  C
  H86      1.0000 0.61070  0.46510  0.27360  Biso   1.000  H
  C131     1.0000 0.64480  0.94220  0.23180  Biso   1.000  C
  C132     1.0000 0.64559  0.44650  0.21140  Biso   1.000  C
  C133     1.0000 0.72663  0.29150  0.18800  Biso   1.000  C
  H87      1.0000 0.72970  0.35480  0.21600  Biso   1.000  H
  C134     1.0000 0.75027  0.30680  0.16460  Biso   1.000  C
  H88      1.0000 0.76760  0.38200  0.17520  Biso   1.000  H
  C135     1.0000 0.74880  0.21250  0.12570  Biso   1.000  C
  C136     1.0000 0.72040  0.10260  0.10940  Biso   1.000  C
  H89      1.0000 0.71790  0.03470  0.08350  Biso   1.000  H
  C137     1.0000 0.69640  0.10120  0.13410  Biso   1.000  C
  H90      1.0000 0.67680  0.03190  0.12230  Biso   1.000  H
  C138     1.0000 0.77350  0.23190  0.09970  Biso   1.000  C
  C139     1.0000 0.80920  0.20820  0.06030  Biso   1.000  C
  C140     1.0000 0.82920  0.15370  0.03020  Biso   1.000  C
  C141     1.0000 0.85810  0.23830  0.02870  Biso   1.000  C
  H91      1.0000 0.86580  0.32090  0.04860  Biso   1.000  H
  C142     1.0000 0.87470  0.19550  0.99710  Biso   1.000  C
  H92      1.0000 0.89490  0.24920  0.99760  Biso   1.000  H
  C143     1.0000 0.83710  0.00040  0.97020  Biso   1.000  C
  H93      1.0000 0.83010  0.91730  0.95080  Biso   1.000  H
  C144     1.0000 0.82030  0.03520  0.00210  Biso   1.000  C
  H94      1.0000 0.80240  0.97570  0.00420  Biso   1.000  H
  N19      1.0000 0.69969  0.19140  0.17280  Biso   1.000  N
  N20      1.0000 0.78947  0.14040  0.08190  Biso   1.000  N
  N21      1.0000 0.78235  0.34980  0.09010  Biso   1.000  N
  N22      1.0000 0.80510  0.33510  0.06520  Biso   1.000  N
  N23      1.0000 0.79100  0.99920  0.08900  Biso   1.000  N
  H95      1.0000 0.78060  0.96270  0.10710  Biso   1.000  H
  H96      1.0000 0.80240  0.95040  0.07530  Biso   1.000  H
  N24      1.0000 0.86328  0.08050  0.96560  Biso   1.000  N
  O31      1.0000 0.43038  0.33880  0.43450  Biso   1.000  O
  O32      1.0000 0.39585  0.15330  0.38280  Biso   1.000  O
  O33      1.0000 0.62345  0.23380  0.54930  Biso   1.000  O
  O34      1.0000 0.58305  0.36910  0.56240  Biso   1.000  O
  O35      1.0000 0.52220  0.86180  0.42170  Biso   1.000  O
  O36      1.0000 0.58485  0.65610  0.31410  Biso   1.000  O
  O37      1.0000 0.64320  0.33430  0.22930  Biso   1.000  O
  O38      1.0000 0.65646  0.46560  0.17480  Biso   1.000  O
  O39      1.0000 0.66546  0.95200  0.20940  Biso   1.000  O
  O40      1.0000 0.63240  0.04230  0.24430  Biso   1.000  O
  Zn9      1.0000 0.16266  0.33221  0.70840  Biso   1.000  Zn
  Zn10     1.0000 0.11391  0.03563  0.58442  Biso   1.000  Zn
  C145     1.0000 0.92921  0.27950  0.91580  Biso   1.000  C
  C146     1.0000 0.97226  0.33890  0.93880  Biso   1.000  C
  C147     1.0000 0.97435  0.46320  0.91750  Biso   1.000  C
  H97      1.0000 0.94930  0.51150  0.89010  Biso   1.000  H
  C148     1.0000 0.01470  0.51470  0.93790  Biso   1.000  C
  C149     1.0000 0.05225  0.44160  0.97820  Biso   1.000  C
  H98      1.0000 0.07900  0.47490  0.99080  Biso   1.000  H
  C150     1.0000 0.04907  0.31670  0.99950  Biso   1.000  C
  C151     1.0000 0.00916  0.26710  0.97970  Biso   1.000  C
  H99      1.0000 0.00720  0.18470  0.99420  Biso   1.000  H
  C152     1.0000 0.08830  0.23260  0.04020  Biso   1.000  C
  C153     1.0000 0.98540  0.71410  0.87740  Biso   1.000  C
  H100     1.0000 0.96820  0.66610  0.83820  Biso   1.000  H
  H101     1.0000 0.96770  0.73130  0.89210  Biso   1.000  H
  C154     1.0000 0.00150  0.84330  0.86880  Biso   1.000  C
  C155     1.0000 0.02730  0.84490  0.84680  Biso   1.000  C
  H102     1.0000 0.03460  0.76460  0.83750  Biso   1.000  H
  C156     1.0000 0.04210  0.96270  0.83890  Biso   1.000  C
  C157     1.0000 0.02900  0.07910  0.85020  Biso   1.000  C
  H103     1.0000 0.03850  0.15970  0.84470  Biso   1.000  H
  C158     1.0000 0.00300  0.08150  0.86900  Biso   1.000  C
  H104     1.0000 0.99460  0.16310  0.87570  Biso   1.000  H
  C159     1.0000 0.98800  0.96120  0.87870  Biso   1.000  C
  H105     1.0000 0.96970  0.96220  0.89130  Biso   1.000  H
  C160     1.0000 0.07050  0.97020  0.81750  Biso   1.000  C
  H106     1.0000 0.09530  0.02600  0.84590  Biso   1.000  H
  H107     1.0000 0.05470  0.01180  0.77670  Biso   1.000  H
  C161     1.0000 0.10570  0.83830  0.78470  Biso   1.000  C
  C162     1.0000 0.11450  0.71090  0.77410  Biso   1.000  C
  H108     1.0000 0.10730  0.63660  0.78740  Biso   1.000  H
  C163     1.0000 0.13390  0.69420  0.74360  Biso   1.000  C
  C164     1.0000 0.14350  0.80660  0.72280  Biso   1.000  C
  H109     1.0000 0.15590  0.79630  0.70130  Biso   1.000  H
  C165     1.0000 0.13509  0.93070  0.73340  Biso   1.000  C
  C166     1.0000 0.11600  0.94960  0.76560  Biso   1.000  C
  H110     1.0000 0.11070  0.03490  0.77360  Biso   1.000  H
  C167     1.0000 0.14480  0.55780  0.73180  Biso   1.000  C
  C168     1.0000 0.14559  0.05350  0.71140  Biso   1.000  C
  C169     1.0000 0.22663  0.20850  0.68800  Biso   1.000  C
  H111     1.0000 0.22970  0.14520  0.71600  Biso   1.000  H
  C170     1.0000 0.25027  0.19320  0.66460  Biso   1.000  C
  H112     1.0000 0.26760  0.11800  0.67520  Biso   1.000  H
  C171     1.0000 0.24880  0.28750  0.62570  Biso   1.000  C
  C172     1.0000 0.22040  0.39740  0.60940  Biso   1.000  C
  H113     1.0000 0.21790  0.46530  0.58350  Biso   1.000  H
  C173     1.0000 0.19640  0.39880  0.63410  Biso   1.000  C
  H114     1.0000 0.17680  0.46810  0.62230  Biso   1.000  H
  C174     1.0000 0.27350  0.26810  0.59970  Biso   1.000  C
  C175     1.0000 0.30920  0.29180  0.56030  Biso   1.000  C
  C176     1.0000 0.32920  0.34630  0.53020  Biso   1.000  C
  C177     1.0000 0.35810  0.26170  0.52870  Biso   1.000  C
  H115     1.0000 0.36580  0.17910  0.54860  Biso   1.000  H
  C178     1.0000 0.37470  0.30450  0.49710  Biso   1.000  C
  H116     1.0000 0.39490  0.25080  0.49760  Biso   1.000  H
  C179     1.0000 0.33710  0.49960  0.47020  Biso   1.000  C
  H117     1.0000 0.33010  0.58270  0.45080  Biso   1.000  H
  C180     1.0000 0.32030  0.46480  0.50210  Biso   1.000  C
  H118     1.0000 0.30240  0.52430  0.50420  Biso   1.000  H
  N25      1.0000 0.19969  0.30860  0.67280  Biso   1.000  N
  N26      1.0000 0.28947  0.35960  0.58190  Biso   1.000  N
  N27      1.0000 0.28235  0.15020  0.59010  Biso   1.000  N
  N28      1.0000 0.30510  0.16490  0.56520  Biso   1.000  N
  N29      1.0000 0.29100  0.50080  0.58900  Biso   1.000  N
  H119     1.0000 0.28060  0.53730  0.60710  Biso   1.000  H
  H120     1.0000 0.30240  0.54960  0.57530  Biso   1.000  H
  N30      1.0000 0.36328  0.41950  0.46560  Biso   1.000  N
  O41      1.0000 0.93038  0.16120  0.93450  Biso   1.000  O
  O42      1.0000 0.89585  0.34670  0.88280  Biso   1.000  O
  O43      1.0000 0.12345  0.26620  0.04930  Biso   1.000  O
  O44      1.0000 0.08305  0.13090  0.06240  Biso   1.000  O
  O45      1.0000 0.02220  0.63820  0.92170  Biso   1.000  O
  O46      1.0000 0.08485  0.84390  0.81410  Biso   1.000  O
  O47      1.0000 0.14320  0.16570  0.72930  Biso   1.000  O
  O48      1.0000 0.15646  0.03440  0.67480  Biso   1.000  O
  O49      1.0000 0.16546  0.54800  0.70940  Biso   1.000  O
  O50      1.0000 0.13240  0.45770  0.74430  Biso   1.000  O
  Zn11     1.0000 0.66266  0.83221  0.70840  Biso   1.000  Zn
  Zn12     1.0000 0.61391  0.53563  0.58442  Biso   1.000  Zn
  C181     1.0000 0.42921  0.77950  0.91580  Biso   1.000  C
  C182     1.0000 0.47226  0.83890  0.93880  Biso   1.000  C
  C183     1.0000 0.47435  0.96320  0.91750  Biso   1.000  C
  H121     1.0000 0.44930  0.01150  0.89010  Biso   1.000  H
  C184     1.0000 0.51470  0.01470  0.93790  Biso   1.000  C
  C185     1.0000 0.55225  0.94160  0.97820  Biso   1.000  C
  H122     1.0000 0.57900  0.97490  0.99080  Biso   1.000  H
  C186     1.0000 0.54907  0.81670  0.99950  Biso   1.000  C
  C187     1.0000 0.50916  0.76710  0.97970  Biso   1.000  C
  H123     1.0000 0.50720  0.68470  0.99420  Biso   1.000  H
  C188     1.0000 0.58830  0.73260  0.04020  Biso   1.000  C
  C189     1.0000 0.48540  0.21410  0.87740  Biso   1.000  C
  H124     1.0000 0.46820  0.16610  0.83820  Biso   1.000  H
  H125     1.0000 0.46770  0.23130  0.89210  Biso   1.000  H
  C190     1.0000 0.50150  0.34330  0.86880  Biso   1.000  C
  C191     1.0000 0.52730  0.34490  0.84680  Biso   1.000  C
  H126     1.0000 0.53460  0.26460  0.83750  Biso   1.000  H
  C192     1.0000 0.54210  0.46270  0.83890  Biso   1.000  C
  C193     1.0000 0.52900  0.57910  0.85020  Biso   1.000  C
  H127     1.0000 0.53850  0.65970  0.84470  Biso   1.000  H
  C194     1.0000 0.50300  0.58150  0.86900  Biso   1.000  C
  H128     1.0000 0.49460  0.66310  0.87570  Biso   1.000  H
  C195     1.0000 0.48800  0.46120  0.87870  Biso   1.000  C
  H129     1.0000 0.46970  0.46220  0.89130  Biso   1.000  H
  C196     1.0000 0.57050  0.47020  0.81750  Biso   1.000  C
  H130     1.0000 0.59530  0.52600  0.84590  Biso   1.000  H
  H131     1.0000 0.55470  0.51180  0.77670  Biso   1.000  H
  C197     1.0000 0.60570  0.33830  0.78470  Biso   1.000  C
  C198     1.0000 0.61450  0.21090  0.77410  Biso   1.000  C
  H132     1.0000 0.60730  0.13660  0.78740  Biso   1.000  H
  C199     1.0000 0.63390  0.19420  0.74360  Biso   1.000  C
  C200     1.0000 0.64350  0.30660  0.72280  Biso   1.000  C
  H133     1.0000 0.65590  0.29630  0.70130  Biso   1.000  H
  C201     1.0000 0.63509  0.43070  0.73340  Biso   1.000  C
  C202     1.0000 0.61600  0.44960  0.76560  Biso   1.000  C
  H134     1.0000 0.61070  0.53490  0.77360  Biso   1.000  H
  C203     1.0000 0.64480  0.05780  0.73180  Biso   1.000  C
  C204     1.0000 0.64559  0.55350  0.71140  Biso   1.000  C
  C205     1.0000 0.72663  0.70850  0.68800  Biso   1.000  C
  H135     1.0000 0.72970  0.64520  0.71600  Biso   1.000  H
  C206     1.0000 0.75027  0.69320  0.66460  Biso   1.000  C
  H136     1.0000 0.76760  0.61800  0.67520  Biso   1.000  H
  C207     1.0000 0.74880  0.78750  0.62570  Biso   1.000  C
  C208     1.0000 0.72040  0.89740  0.60940  Biso   1.000  C
  H137     1.0000 0.71790  0.96530  0.58350  Biso   1.000  H
  C209     1.0000 0.69640  0.89880  0.63410  Biso   1.000  C
  H138     1.0000 0.67680  0.96810  0.62230  Biso   1.000  H
  C210     1.0000 0.77350  0.76810  0.59970  Biso   1.000  C
  C211     1.0000 0.80920  0.79180  0.56030  Biso   1.000  C
  C212     1.0000 0.82920  0.84630  0.53020  Biso   1.000  C
  C213     1.0000 0.85810  0.76170  0.52870  Biso   1.000  C
  H139     1.0000 0.86580  0.67910  0.54860  Biso   1.000  H
  C214     1.0000 0.87470  0.80450  0.49710  Biso   1.000  C
  H140     1.0000 0.89490  0.75080  0.49760  Biso   1.000  H
  C215     1.0000 0.83710  0.99960  0.47020  Biso   1.000  C
  H141     1.0000 0.83010  0.08270  0.45080  Biso   1.000  H
  C216     1.0000 0.82030  0.96480  0.50210  Biso   1.000  C
  H142     1.0000 0.80240  0.02430  0.50420  Biso   1.000  H
  N31      1.0000 0.69969  0.80860  0.67280  Biso   1.000  N
  N32      1.0000 0.78947  0.85960  0.58190  Biso   1.000  N
  N33      1.0000 0.78235  0.65020  0.59010  Biso   1.000  N
  N34      1.0000 0.80510  0.66490  0.56520  Biso   1.000  N
  N35      1.0000 0.79100  0.00080  0.58900  Biso   1.000  N
  H143     1.0000 0.78060  0.03730  0.60710  Biso   1.000  H
  H144     1.0000 0.80240  0.04960  0.57530  Biso   1.000  H
  N36      1.0000 0.86328  0.91950  0.46560  Biso   1.000  N
  O51      1.0000 0.43038  0.66120  0.93450  Biso   1.000  O
  O52      1.0000 0.39585  0.84670  0.88280  Biso   1.000  O
  O53      1.0000 0.62345  0.76620  0.04930  Biso   1.000  O
  O54      1.0000 0.58305  0.63090  0.06240  Biso   1.000  O
  O55      1.0000 0.52220  0.13820  0.92170  Biso   1.000  O
  O56      1.0000 0.58485  0.34390  0.81410  Biso   1.000  O
  O57      1.0000 0.64320  0.66570  0.72930  Biso   1.000  O
  O58      1.0000 0.65646  0.53440  0.67480  Biso   1.000  O
  O59      1.0000 0.66546  0.04800  0.70940  Biso   1.000  O
  O60      1.0000 0.63240  0.95770  0.74430  Biso   1.000  O
  Zn13     1.0000 0.83734  0.33221  0.79160  Biso   1.000  Zn
  Zn14     1.0000 0.88609  0.03563  0.91558  Biso   1.000  Zn
  C217     1.0000 0.07079  0.27950  0.58420  Biso   1.000  C
  C218     1.0000 0.02774  0.33890  0.56120  Biso   1.000  C
  C219     1.0000 0.02565  0.46320  0.58250  Biso   1.000  C
  H145     1.0000 0.05070  0.51150  0.60990  Biso   1.000  H
  C220     1.0000 0.98530  0.51470  0.56210  Biso   1.000  C
  C221     1.0000 0.94775  0.44160  0.52180  Biso   1.000  C
  H146     1.0000 0.92100  0.47490  0.50920  Biso   1.000  H
  C222     1.0000 0.95093  0.31670  0.50050  Biso   1.000  C
  C223     1.0000 0.99084  0.26710  0.52030  Biso   1.000  C
  H147     1.0000 0.99280  0.18470  0.50580  Biso   1.000  H
  C224     1.0000 0.91170  0.23260  0.45980  Biso   1.000  C
  C225     1.0000 0.01460  0.71410  0.62260  Biso   1.000  C
  H148     1.0000 0.03180  0.66610  0.66180  Biso   1.000  H
  H149     1.0000 0.03230  0.73130  0.60790  Biso   1.000  H
  C226     1.0000 0.99850  0.84330  0.63120  Biso   1.000  C
  C227     1.0000 0.97270  0.84490  0.65320  Biso   1.000  C
  H150     1.0000 0.96540  0.76460  0.66250  Biso   1.000  H
  C228     1.0000 0.95790  0.96270  0.66110  Biso   1.000  C
  C229     1.0000 0.97100  0.07910  0.64980  Biso   1.000  C
  H151     1.0000 0.96150  0.15970  0.65530  Biso   1.000  H
  C230     1.0000 0.99700  0.08150  0.63100  Biso   1.000  C
  H152     1.0000 0.00540  0.16310  0.62430  Biso   1.000  H
  C231     1.0000 0.01200  0.96120  0.62130  Biso   1.000  C
  H153     1.0000 0.03030  0.96220  0.60870  Biso   1.000  H
  C232     1.0000 0.92950  0.97020  0.68250  Biso   1.000  C
  H154     1.0000 0.90470  0.02600  0.65410  Biso   1.000  H
  H155     1.0000 0.94530  0.01180  0.72330  Biso   1.000  H
  C233     1.0000 0.89430  0.83830  0.71530  Biso   1.000  C
  C234     1.0000 0.88550  0.71090  0.72590  Biso   1.000  C
  H156     1.0000 0.89270  0.63660  0.71260  Biso   1.000  H
  C235     1.0000 0.86610  0.69420  0.75640  Biso   1.000  C
  C236     1.0000 0.85650  0.80660  0.77720  Biso   1.000  C
  H157     1.0000 0.84410  0.79630  0.79870  Biso   1.000  H
  C237     1.0000 0.86491  0.93070  0.76660  Biso   1.000  C
  C238     1.0000 0.88400  0.94960  0.73440  Biso   1.000  C
  H158     1.0000 0.88930  0.03490  0.72640  Biso   1.000  H
  C239     1.0000 0.85520  0.55780  0.76820  Biso   1.000  C
  C240     1.0000 0.85441  0.05350  0.78860  Biso   1.000  C
  C241     1.0000 0.77337  0.20850  0.81200  Biso   1.000  C
  H159     1.0000 0.77030  0.14520  0.78400  Biso   1.000  H
  C242     1.0000 0.74973  0.19320  0.83540  Biso   1.000  C
  H160     1.0000 0.73240  0.11800  0.82480  Biso   1.000  H
  C243     1.0000 0.75120  0.28750  0.87430  Biso   1.000  C
  C244     1.0000 0.77960  0.39740  0.89060  Biso   1.000  C
  H161     1.0000 0.78210  0.46530  0.91650  Biso   1.000  H
  C245     1.0000 0.80360  0.39880  0.86590  Biso   1.000  C
  H162     1.0000 0.82320  0.46810  0.87770  Biso   1.000  H
  C246     1.0000 0.72650  0.26810  0.90030  Biso   1.000  C
  C247     1.0000 0.69080  0.29180  0.93970  Biso   1.000  C
  C248     1.0000 0.67080  0.34630  0.96980  Biso   1.000  C
  C249     1.0000 0.64190  0.26170  0.97130  Biso   1.000  C
  H163     1.0000 0.63420  0.17910  0.95140  Biso   1.000  H
  C250     1.0000 0.62530  0.30450  0.00290  Biso   1.000  C
  H164     1.0000 0.60510  0.25080  0.00240  Biso   1.000  H
  C251     1.0000 0.66290  0.49960  0.02980  Biso   1.000  C
  H165     1.0000 0.66990  0.58270  0.04920  Biso   1.000  H
  C252     1.0000 0.67970  0.46480  0.99790  Biso   1.000  C
  H166     1.0000 0.69760  0.52430  0.99580  Biso   1.000  H
  N37      1.0000 0.80031  0.30860  0.82720  Biso   1.000  N
  N38      1.0000 0.71053  0.35960  0.91810  Biso   1.000  N
  N39      1.0000 0.71765  0.15020  0.90990  Biso   1.000  N
  N40      1.0000 0.69490  0.16490  0.93480  Biso   1.000  N
  N41      1.0000 0.70900  0.50080  0.91100  Biso   1.000  N
  H167     1.0000 0.71940  0.53730  0.89290  Biso   1.000  H
  H168     1.0000 0.69760  0.54960  0.92470  Biso   1.000  H
  N42      1.0000 0.63672  0.41950  0.03440  Biso   1.000  N
  O61      1.0000 0.06962  0.16120  0.56550  Biso   1.000  O
  O62      1.0000 0.10415  0.34670  0.61720  Biso   1.000  O
  O63      1.0000 0.87655  0.26620  0.45070  Biso   1.000  O
  O64      1.0000 0.91695  0.13090  0.43760  Biso   1.000  O
  O65      1.0000 0.97780  0.63820  0.57830  Biso   1.000  O
  O66      1.0000 0.91515  0.84390  0.68590  Biso   1.000  O
  O67      1.0000 0.85680  0.16570  0.77070  Biso   1.000  O
  O68      1.0000 0.84354  0.03440  0.82520  Biso   1.000  O
  O69      1.0000 0.83454  0.54800  0.79060  Biso   1.000  O
  O70      1.0000 0.86760  0.45770  0.75570  Biso   1.000  O
  Zn15     1.0000 0.33734  0.83221  0.79160  Biso   1.000  Zn
  Zn16     1.0000 0.38609  0.53563  0.91558  Biso   1.000  Zn
  C253     1.0000 0.57079  0.77950  0.58420  Biso   1.000  C
  C254     1.0000 0.52774  0.83890  0.56120  Biso   1.000  C
  C255     1.0000 0.52565  0.96320  0.58250  Biso   1.000  C
  H169     1.0000 0.55070  0.01150  0.60990  Biso   1.000  H
  C256     1.0000 0.48530  0.01470  0.56210  Biso   1.000  C
  C257     1.0000 0.44775  0.94160  0.52180  Biso   1.000  C
  H170     1.0000 0.42100  0.97490  0.50920  Biso   1.000  H
  C258     1.0000 0.45093  0.81670  0.50050  Biso   1.000  C
  C259     1.0000 0.49084  0.76710  0.52030  Biso   1.000  C
  H171     1.0000 0.49280  0.68470  0.50580  Biso   1.000  H
  C260     1.0000 0.41170  0.73260  0.45980  Biso   1.000  C
  C261     1.0000 0.51460  0.21410  0.62260  Biso   1.000  C
  H172     1.0000 0.53180  0.16610  0.66180  Biso   1.000  H
  H173     1.0000 0.53230  0.23130  0.60790  Biso   1.000  H
  C262     1.0000 0.49850  0.34330  0.63120  Biso   1.000  C
  C263     1.0000 0.47270  0.34490  0.65320  Biso   1.000  C
  H174     1.0000 0.46540  0.26460  0.66250  Biso   1.000  H
  C264     1.0000 0.45790  0.46270  0.66110  Biso   1.000  C
  C265     1.0000 0.47100  0.57910  0.64980  Biso   1.000  C
  H175     1.0000 0.46150  0.65970  0.65530  Biso   1.000  H
  C266     1.0000 0.49700  0.58150  0.63100  Biso   1.000  C
  H176     1.0000 0.50540  0.66310  0.62430  Biso   1.000  H
  C267     1.0000 0.51200  0.46120  0.62130  Biso   1.000  C
  H177     1.0000 0.53030  0.46220  0.60870  Biso   1.000  H
  C268     1.0000 0.42950  0.47020  0.68250  Biso   1.000  C
  H178     1.0000 0.40470  0.52600  0.65410  Biso   1.000  H
  H179     1.0000 0.44530  0.51180  0.72330  Biso   1.000  H
  C269     1.0000 0.39430  0.33830  0.71530  Biso   1.000  C
  C270     1.0000 0.38550  0.21090  0.72590  Biso   1.000  C
  H180     1.0000 0.39270  0.13660  0.71260  Biso   1.000  H
  C271     1.0000 0.36610  0.19420  0.75640  Biso   1.000  C
  C272     1.0000 0.35650  0.30660  0.77720  Biso   1.000  C
  H181     1.0000 0.34410  0.29630  0.79870  Biso   1.000  H
  C273     1.0000 0.36491  0.43070  0.76660  Biso   1.000  C
  C274     1.0000 0.38400  0.44960  0.73440  Biso   1.000  C
  H182     1.0000 0.38930  0.53490  0.72640  Biso   1.000  H
  C275     1.0000 0.35520  0.05780  0.76820  Biso   1.000  C
  C276     1.0000 0.35441  0.55350  0.78860  Biso   1.000  C
  C277     1.0000 0.27337  0.70850  0.81200  Biso   1.000  C
  H183     1.0000 0.27030  0.64520  0.78400  Biso   1.000  H
  C278     1.0000 0.24973  0.69320  0.83540  Biso   1.000  C
  H184     1.0000 0.23240  0.61800  0.82480  Biso   1.000  H
  C279     1.0000 0.25120  0.78750  0.87430  Biso   1.000  C
  C280     1.0000 0.27960  0.89740  0.89060  Biso   1.000  C
  H185     1.0000 0.28210  0.96530  0.91650  Biso   1.000  H
  C281     1.0000 0.30360  0.89880  0.86590  Biso   1.000  C
  H186     1.0000 0.32320  0.96810  0.87770  Biso   1.000  H
  C282     1.0000 0.22650  0.76810  0.90030  Biso   1.000  C
  C283     1.0000 0.19080  0.79180  0.93970  Biso   1.000  C
  C284     1.0000 0.17080  0.84630  0.96980  Biso   1.000  C
  C285     1.0000 0.14190  0.76170  0.97130  Biso   1.000  C
  H187     1.0000 0.13420  0.67910  0.95140  Biso   1.000  H
  C286     1.0000 0.12530  0.80450  0.00290  Biso   1.000  C
  H188     1.0000 0.10510  0.75080  0.00240  Biso   1.000  H
  C287     1.0000 0.16290  0.99960  0.02980  Biso   1.000  C
  H189     1.0000 0.16990  0.08270  0.04920  Biso   1.000  H
  C288     1.0000 0.17970  0.96480  0.99790  Biso   1.000  C
  H190     1.0000 0.19760  0.02430  0.99580  Biso   1.000  H
  N43      1.0000 0.30031  0.80860  0.82720  Biso   1.000  N
  N44      1.0000 0.21053  0.85960  0.91810  Biso   1.000  N
  N45      1.0000 0.21765  0.65020  0.90990  Biso   1.000  N
  N46      1.0000 0.19490  0.66490  0.93480  Biso   1.000  N
  N47      1.0000 0.20900  0.00080  0.91100  Biso   1.000  N
  H191     1.0000 0.21940  0.03730  0.89290  Biso   1.000  H
  H192     1.0000 0.19760  0.04960  0.92470  Biso   1.000  H
  N48      1.0000 0.13672  0.91950  0.03440  Biso   1.000  N
  O71      1.0000 0.56962  0.66120  0.56550  Biso   1.000  O
  O72      1.0000 0.60415  0.84670  0.61720  Biso   1.000  O
  O73      1.0000 0.37655  0.76620  0.45070  Biso   1.000  O
  O74      1.0000 0.41695  0.63090  0.43760  Biso   1.000  O
  O75      1.0000 0.47780  0.13820  0.57830  Biso   1.000  O
  O76      1.0000 0.41515  0.34390  0.68590  Biso   1.000  O
  O77      1.0000 0.35680  0.66570  0.77070  Biso   1.000  O
  O78      1.0000 0.34354  0.53440  0.82520  Biso   1.000  O
  O79      1.0000 0.33454  0.04800  0.79060  Biso   1.000  O
  O80      1.0000 0.36760  0.95770  0.75570  Biso   1.000  O
