data_image0
_cell_length_a       30.892
_cell_length_b       14.751
_cell_length_c       19.08
_cell_angle_alpha    90
_cell_angle_beta     111.552
_cell_angle_gamma    90

_symmetry_space_group_name_H-M    "P 1"
_symmetry_int_tables_number       1

loop_
  _symmetry_equiv_pos_as_xyz
  'x, y, z'

loop_
  _atom_site_label
  _atom_site_occupancy
  _atom_site_fract_x
  _atom_site_fract_y
  _atom_site_fract_z
  _atom_site_thermal_displace_type
  _atom_site_B_iso_or_equiv
  _atom_site_type_symbol
  C1       1.0000 0.43560  0.45570  0.27510  Biso   1.000  C
  C2       1.0000 0.40040  0.47490  0.30980  Biso   1.000  C
  C3       1.0000 0.35350  0.47850  0.26530  Biso   1.000  C
  H1       1.0000 0.34340  0.46710  0.21390  Biso   1.000  H
  C4       1.0000 0.32190  0.49940  0.29910  Biso   1.000  C
  C5       1.0000 0.33700  0.51940  0.37620  Biso   1.000  C
  H2       1.0000 0.31540  0.53470  0.39770  Biso   1.000  H
  C6       1.0000 0.38350  0.51640  0.42030  Biso   1.000  C
  C7       1.0000 0.39940  0.54190  0.50190  Biso   1.000  C
  C8       1.0000 0.41520  0.49300  0.38590  Biso   1.000  C
  H3       1.0000 0.44680  0.48960  0.41510  Biso   1.000  H
  C9       1.0000 0.25730  0.48670  0.18210  Biso   1.000  C
  H4       1.0000 0.26770  0.42750  0.17260  Biso   1.000  H
  H5       1.0000 0.26900  0.53200  0.15670  Biso   1.000  H
  C10      1.0000 0.20540  0.48970  0.15340  Biso   1.000  C
  C11      1.0000 0.18200  0.50370  0.07710  Biso   1.000  C
  H6       1.0000 0.19870  0.51300  0.04590  Biso   1.000  H
  C12      1.0000 0.13390  0.50390  0.04690  Biso   1.000  C
  H7       1.0000 0.11880  0.51340  0.99550  Biso   1.000  H
  C13      1.0000 0.10890  0.49130  0.08850  Biso   1.000  C
  H8       1.0000 0.07660  0.49220  0.06700  Biso   1.000  H
  C14      1.0000 0.13140  0.47660  0.16530  Biso   1.000  C
  C15      1.0000 0.18010  0.47910  0.19680  Biso   1.000  C
  H9       1.0000 0.19510  0.47340  0.24870  Biso   1.000  H
  C16      1.0000 0.10290  0.45250  0.22020  Biso   1.000  C
  H10      1.0000 0.07470  0.41920  0.19290  Biso   1.000  H
  H11      1.0000 0.12200  0.41640  0.26300  Biso   1.000  H
  C17      1.0000 0.07060  0.53200  0.29010  Biso   1.000  C
  C18      1.0000 0.05630  0.45690  0.32000  Biso   1.000  C
  H12      1.0000 0.06150  0.39870  0.30610  Biso   1.000  H
  C19      1.0000 0.03370  0.46990  0.37180  Biso   1.000  C
  C20      1.0000 0.02080  0.39030  0.40710  Biso   1.000  C
  C21      1.0000 0.02530  0.55640  0.39100  Biso   1.000  C
  H13      1.0000 0.01050  0.56490  0.42500  Biso   1.000  H
  C22      1.0000 0.03920  0.63150  0.35930  Biso   1.000  C
  C23      1.0000 0.03130  0.72620  0.37780  Biso   1.000  C
  C24      1.0000 0.06170  0.61760  0.30810  Biso   1.000  C
  H14      1.0000 0.07070  0.66710  0.28650  Biso   1.000  H
  C25      1.0000 0.07740  0.77510  0.65590  Biso   1.000  C
  H15      1.0000 0.05240  0.78870  0.67030  Biso   1.000  H
  C26      1.0000 0.12130  0.78140  0.70820  Biso   1.000  C
  H16      1.0000 0.12530  0.80130  0.75640  Biso   1.000  H
  C27      1.0000 0.15790  0.76070  0.69330  Biso   1.000  C
  C28      1.0000 0.15170  0.73870  0.61780  Biso   1.000  C
  H17      1.0000 0.17680  0.72730  0.60340  Biso   1.000  H
  C29      1.0000 0.10510  0.73490  0.56530  Biso   1.000  C
  H18      1.0000 0.10030  0.72120  0.51540  Biso   1.000  H
  C30      1.0000 0.20260  0.76020  0.75900  Biso   1.000  C
  C31      1.0000 0.27460  0.75410  0.83010  Biso   1.000  C
  C32      1.0000 0.32830  0.75540  0.86530  Biso   1.000  C
  C33      1.0000 0.35650  0.78210  0.83180  Biso   1.000  C
  H19      1.0000 0.34490  0.80040  0.78170  Biso   1.000  H
  C34      1.0000 0.40480  0.78220  0.87420  Biso   1.000  C
  H20      1.0000 0.42480  0.80070  0.85060  Biso   1.000  H
  C35      1.0000 0.39240  0.73600  0.97220  Biso   1.000  C
  H21      1.0000 0.40300  0.72170  0.02320  Biso   1.000  H
  C36      1.0000 0.34550  0.73160  0.93380  Biso   1.000  C
  H22      1.0000 0.32620  0.71120  0.95800  Biso   1.000  H
  N1       1.0000 0.06860  0.74950  0.58290  Biso   1.000  N
  N2       1.0000 0.20430  0.74780  0.82540  Biso   1.000  N
  N3       1.0000 0.24790  0.74170  0.86420  Biso   1.000  N
  N4       1.0000 0.24660  0.76130  0.76000  Biso   1.000  N
  N5       1.0000 0.25920  0.78550  0.69410  Biso   1.000  N
  H23      1.0000 0.28770  0.79640  0.70030  Biso   1.000  H
  H24      1.0000 0.23790  0.78850  0.64980  Biso   1.000  H
  N6       1.0000 0.42290  0.75770  0.94520  Biso   1.000  N
  O1       1.0000 0.42192  0.44990  0.20510  Biso   1.000  O
  O2       1.0000 0.47604  0.44700  0.31730  Biso   1.000  O
  O3       1.0000 0.44343  0.54210  0.53830  Biso   1.000  O
  O4       1.0000 0.37160  0.56510  0.52940  Biso   1.000  O
  O5       1.0000 0.27416  0.50440  0.26100  Biso   1.000  O
  O6       1.0000 0.09310  0.53130  0.24260  Biso   1.000  O
  O7       1.0000 0.02440  0.31170  0.38460  Biso   1.000  O
  O8       1.0000 0.00732  0.40050  0.46110  Biso   1.000  O
  O9       1.0000 0.00910  0.74270  0.41910  Biso   1.000  O
  O10      1.0000 0.04800  0.78800  0.34840  Biso   1.000  O
  Zn1      1.0000 0.45816  0.41975  0.14393  Biso   1.000  Zn
  Zn2      1.0000 0.99548  0.73549  0.51363  Biso   1.000  Zn
  C37      1.0000 0.93560  0.95570  0.27510  Biso   1.000  C
  C38      1.0000 0.90040  0.97490  0.30980  Biso   1.000  C
  C39      1.0000 0.85350  0.97850  0.26530  Biso   1.000  C
  H25      1.0000 0.84340  0.96710  0.21390  Biso   1.000  H
  C40      1.0000 0.82190  0.99940  0.29910  Biso   1.000  C
  C41      1.0000 0.83700  0.01940  0.37620  Biso   1.000  C
  H26      1.0000 0.81540  0.03470  0.39770  Biso   1.000  H
  C42      1.0000 0.88350  0.01640  0.42030  Biso   1.000  C
  C43      1.0000 0.89940  0.04190  0.50190  Biso   1.000  C
  C44      1.0000 0.91520  0.99300  0.38590  Biso   1.000  C
  H27      1.0000 0.94680  0.98960  0.41510  Biso   1.000  H
  C45      1.0000 0.75730  0.98670  0.18210  Biso   1.000  C
  H28      1.0000 0.76770  0.92750  0.17260  Biso   1.000  H
  H29      1.0000 0.76900  0.03200  0.15670  Biso   1.000  H
  C46      1.0000 0.70540  0.98970  0.15340  Biso   1.000  C
  C47      1.0000 0.68200  0.00370  0.07710  Biso   1.000  C
  H30      1.0000 0.69870  0.01300  0.04590  Biso   1.000  H
  C48      1.0000 0.63390  0.00390  0.04690  Biso   1.000  C
  H31      1.0000 0.61880  0.01340  0.99550  Biso   1.000  H
  C49      1.0000 0.60890  0.99130  0.08850  Biso   1.000  C
  H32      1.0000 0.57660  0.99220  0.06700  Biso   1.000  H
  C50      1.0000 0.63140  0.97660  0.16530  Biso   1.000  C
  C51      1.0000 0.68010  0.97910  0.19680  Biso   1.000  C
  H33      1.0000 0.69510  0.97340  0.24870  Biso   1.000  H
  C52      1.0000 0.60290  0.95250  0.22020  Biso   1.000  C
  H34      1.0000 0.57470  0.91920  0.19290  Biso   1.000  H
  H35      1.0000 0.62200  0.91640  0.26300  Biso   1.000  H
  C53      1.0000 0.57060  0.03200  0.29010  Biso   1.000  C
  C54      1.0000 0.55630  0.95690  0.32000  Biso   1.000  C
  H36      1.0000 0.56150  0.89870  0.30610  Biso   1.000  H
  C55      1.0000 0.53370  0.96990  0.37180  Biso   1.000  C
  C56      1.0000 0.52080  0.89030  0.40710  Biso   1.000  C
  C57      1.0000 0.52530  0.05640  0.39100  Biso   1.000  C
  H37      1.0000 0.51050  0.06490  0.42500  Biso   1.000  H
  C58      1.0000 0.53920  0.13150  0.35930  Biso   1.000  C
  C59      1.0000 0.53130  0.22620  0.37780  Biso   1.000  C
  C60      1.0000 0.56170  0.11760  0.30810  Biso   1.000  C
  H38      1.0000 0.57070  0.16710  0.28650  Biso   1.000  H
  C61      1.0000 0.57740  0.27510  0.65590  Biso   1.000  C
  H39      1.0000 0.55240  0.28870  0.67030  Biso   1.000  H
  C62      1.0000 0.62130  0.28140  0.70820  Biso   1.000  C
  H40      1.0000 0.62530  0.30130  0.75640  Biso   1.000  H
  C63      1.0000 0.65790  0.26070  0.69330  Biso   1.000  C
  C64      1.0000 0.65170  0.23870  0.61780  Biso   1.000  C
  H41      1.0000 0.67680  0.22730  0.60340  Biso   1.000  H
  C65      1.0000 0.60510  0.23490  0.56530  Biso   1.000  C
  H42      1.0000 0.60030  0.22120  0.51540  Biso   1.000  H
  C66      1.0000 0.70260  0.26020  0.75900  Biso   1.000  C
  C67      1.0000 0.77460  0.25410  0.83010  Biso   1.000  C
  C68      1.0000 0.82830  0.25540  0.86530  Biso   1.000  C
  C69      1.0000 0.85650  0.28210  0.83180  Biso   1.000  C
  H43      1.0000 0.84490  0.30040  0.78170  Biso   1.000  H
  C70      1.0000 0.90480  0.28220  0.87420  Biso   1.000  C
  H44      1.0000 0.92480  0.30070  0.85060  Biso   1.000  H
  C71      1.0000 0.89240  0.23600  0.97220  Biso   1.000  C
  H45      1.0000 0.90300  0.22170  0.02320  Biso   1.000  H
  C72      1.0000 0.84550  0.23160  0.93380  Biso   1.000  C
  H46      1.0000 0.82620  0.21120  0.95800  Biso   1.000  H
  N7       1.0000 0.56860  0.24950  0.58290  Biso   1.000  N
  N8       1.0000 0.70430  0.24780  0.82540  Biso   1.000  N
  N9       1.0000 0.74790  0.24170  0.86420  Biso   1.000  N
  N10      1.0000 0.74660  0.26130  0.76000  Biso   1.000  N
  N11      1.0000 0.75920  0.28550  0.69410  Biso   1.000  N
  H47      1.0000 0.78770  0.29640  0.70030  Biso   1.000  H
  H48      1.0000 0.73790  0.28850  0.64980  Biso   1.000  H
  N12      1.0000 0.92290  0.25770  0.94520  Biso   1.000  N
  O11      1.0000 0.92192  0.94990  0.20510  Biso   1.000  O
  O12      1.0000 0.97604  0.94700  0.31730  Biso   1.000  O
  O13      1.0000 0.94343  0.04210  0.53830  Biso   1.000  O
  O14      1.0000 0.87160  0.06510  0.52940  Biso   1.000  O
  O15      1.0000 0.77416  0.00440  0.26100  Biso   1.000  O
  O16      1.0000 0.59310  0.03130  0.24260  Biso   1.000  O
  O17      1.0000 0.52440  0.81170  0.38460  Biso   1.000  O
  O18      1.0000 0.50732  0.90050  0.46110  Biso   1.000  O
  O19      1.0000 0.50910  0.24270  0.41910  Biso   1.000  O
  O20      1.0000 0.54800  0.28800  0.34840  Biso   1.000  O
  Zn3      1.0000 0.95816  0.91975  0.14393  Biso   1.000  Zn
  Zn4      1.0000 0.49548  0.23549  0.51363  Biso   1.000  Zn
  C73      1.0000 0.56440  0.45570  0.22490  Biso   1.000  C
  C74      1.0000 0.59960  0.47490  0.19020  Biso   1.000  C
  C75      1.0000 0.64650  0.47850  0.23470  Biso   1.000  C
  H49      1.0000 0.65660  0.46710  0.28610  Biso   1.000  H
  C76      1.0000 0.67810  0.49940  0.20090  Biso   1.000  C
  C77      1.0000 0.66300  0.51940  0.12380  Biso   1.000  C
  H50      1.0000 0.68460  0.53470  0.10230  Biso   1.000  H
  C78      1.0000 0.61650  0.51640  0.07970  Biso   1.000  C
  C79      1.0000 0.60060  0.54190  0.99810  Biso   1.000  C
  C80      1.0000 0.58480  0.49300  0.11410  Biso   1.000  C
  H51      1.0000 0.55320  0.48960  0.08490  Biso   1.000  H
  C81      1.0000 0.74270  0.48670  0.31790  Biso   1.000  C
  H52      1.0000 0.73230  0.42750  0.32740  Biso   1.000  H
  H53      1.0000 0.73100  0.53200  0.34330  Biso   1.000  H
  C82      1.0000 0.79460  0.48970  0.34660  Biso   1.000  C
  C83      1.0000 0.81800  0.50370  0.42290  Biso   1.000  C
  H54      1.0000 0.80130  0.51300  0.45410  Biso   1.000  H
  C84      1.0000 0.86610  0.50390  0.45310  Biso   1.000  C
  H55      1.0000 0.88120  0.51340  0.50450  Biso   1.000  H
  C85      1.0000 0.89110  0.49130  0.41150  Biso   1.000  C
  H56      1.0000 0.92340  0.49220  0.43300  Biso   1.000  H
  C86      1.0000 0.86860  0.47660  0.33470  Biso   1.000  C
  C87      1.0000 0.81990  0.47910  0.30320  Biso   1.000  C
  H57      1.0000 0.80490  0.47340  0.25130  Biso   1.000  H
  C88      1.0000 0.89710  0.45250  0.27980  Biso   1.000  C
  H58      1.0000 0.92530  0.41920  0.30710  Biso   1.000  H
  H59      1.0000 0.87800  0.41640  0.23700  Biso   1.000  H
  C89      1.0000 0.92940  0.53200  0.20990  Biso   1.000  C
  C90      1.0000 0.94370  0.45690  0.18000  Biso   1.000  C
  H60      1.0000 0.93850  0.39870  0.19390  Biso   1.000  H
  C91      1.0000 0.96630  0.46990  0.12820  Biso   1.000  C
  C92      1.0000 0.97920  0.39030  0.09290  Biso   1.000  C
  C93      1.0000 0.97470  0.55640  0.10900  Biso   1.000  C
  H61      1.0000 0.98950  0.56490  0.07500  Biso   1.000  H
  C94      1.0000 0.96080  0.63150  0.14070  Biso   1.000  C
  C95      1.0000 0.96870  0.72620  0.12220  Biso   1.000  C
  C96      1.0000 0.93830  0.61760  0.19190  Biso   1.000  C
  H62      1.0000 0.92930  0.66710  0.21350  Biso   1.000  H
  C97      1.0000 0.92260  0.77510  0.84410  Biso   1.000  C
  H63      1.0000 0.94760  0.78870  0.82970  Biso   1.000  H
  C98      1.0000 0.87870  0.78140  0.79180  Biso   1.000  C
  H64      1.0000 0.87470  0.80130  0.74360  Biso   1.000  H
  C99      1.0000 0.84210  0.76070  0.80670  Biso   1.000  C
  C100     1.0000 0.84830  0.73870  0.88220  Biso   1.000  C
  H65      1.0000 0.82320  0.72730  0.89660  Biso   1.000  H
  C101     1.0000 0.89490  0.73490  0.93470  Biso   1.000  C
  H66      1.0000 0.89970  0.72120  0.98460  Biso   1.000  H
  C102     1.0000 0.79740  0.76020  0.74100  Biso   1.000  C
  C103     1.0000 0.72540  0.75410  0.66990  Biso   1.000  C
  C104     1.0000 0.67170  0.75540  0.63470  Biso   1.000  C
  C105     1.0000 0.64350  0.78210  0.66820  Biso   1.000  C
  H67      1.0000 0.65510  0.80040  0.71830  Biso   1.000  H
  C106     1.0000 0.59520  0.78220  0.62580  Biso   1.000  C
  H68      1.0000 0.57520  0.80070  0.64940  Biso   1.000  H
  C107     1.0000 0.60760  0.73600  0.52780  Biso   1.000  C
  H69      1.0000 0.59700  0.72170  0.47680  Biso   1.000  H
  C108     1.0000 0.65450  0.73160  0.56620  Biso   1.000  C
  H70      1.0000 0.67380  0.71120  0.54200  Biso   1.000  H
  N13      1.0000 0.93140  0.74950  0.91710  Biso   1.000  N
  N14      1.0000 0.79570  0.74780  0.67460  Biso   1.000  N
  N15      1.0000 0.75210  0.74170  0.63580  Biso   1.000  N
  N16      1.0000 0.75340  0.76130  0.74000  Biso   1.000  N
  N17      1.0000 0.74080  0.78550  0.80590  Biso   1.000  N
  H71      1.0000 0.71230  0.79640  0.79970  Biso   1.000  H
  H72      1.0000 0.76210  0.78850  0.85020  Biso   1.000  H
  N18      1.0000 0.57710  0.75770  0.55480  Biso   1.000  N
  O21      1.0000 0.57808  0.44990  0.29490  Biso   1.000  O
  O22      1.0000 0.52396  0.44700  0.18270  Biso   1.000  O
  O23      1.0000 0.55657  0.54210  0.96170  Biso   1.000  O
  O24      1.0000 0.62840  0.56510  0.97060  Biso   1.000  O
  O25      1.0000 0.72584  0.50440  0.23900  Biso   1.000  O
  O26      1.0000 0.90690  0.53130  0.25740  Biso   1.000  O
  O27      1.0000 0.97560  0.31170  0.11540  Biso   1.000  O
  O28      1.0000 0.99268  0.40050  0.03890  Biso   1.000  O
  O29      1.0000 0.99090  0.74270  0.08090  Biso   1.000  O
  O30      1.0000 0.95200  0.78800  0.15160  Biso   1.000  O
  Zn5      1.0000 0.54184  0.41975  0.35607  Biso   1.000  Zn
  Zn6      1.0000 0.00452  0.73549  0.98637  Biso   1.000  Zn
  C109     1.0000 0.06440  0.95570  0.22490  Biso   1.000  C
  C110     1.0000 0.09960  0.97490  0.19020  Biso   1.000  C
  C111     1.0000 0.14650  0.97850  0.23470  Biso   1.000  C
  H73      1.0000 0.15660  0.96710  0.28610  Biso   1.000  H
  C112     1.0000 0.17810  0.99940  0.20090  Biso   1.000  C
  C113     1.0000 0.16300  0.01940  0.12380  Biso   1.000  C
  H74      1.0000 0.18460  0.03470  0.10230  Biso   1.000  H
  C114     1.0000 0.11650  0.01640  0.07970  Biso   1.000  C
  C115     1.0000 0.10060  0.04190  0.99810  Biso   1.000  C
  C116     1.0000 0.08480  0.99300  0.11410  Biso   1.000  C
  H75      1.0000 0.05320  0.98960  0.08490  Biso   1.000  H
  C117     1.0000 0.24270  0.98670  0.31790  Biso   1.000  C
  H76      1.0000 0.23230  0.92750  0.32740  Biso   1.000  H
  H77      1.0000 0.23100  0.03200  0.34330  Biso   1.000  H
  C118     1.0000 0.29460  0.98970  0.34660  Biso   1.000  C
  C119     1.0000 0.31800  0.00370  0.42290  Biso   1.000  C
  H78      1.0000 0.30130  0.01300  0.45410  Biso   1.000  H
  C120     1.0000 0.36610  0.00390  0.45310  Biso   1.000  C
  H79      1.0000 0.38120  0.01340  0.50450  Biso   1.000  H
  C121     1.0000 0.39110  0.99130  0.41150  Biso   1.000  C
  H80      1.0000 0.42340  0.99220  0.43300  Biso   1.000  H
  C122     1.0000 0.36860  0.97660  0.33470  Biso   1.000  C
  C123     1.0000 0.31990  0.97910  0.30320  Biso   1.000  C
  H81      1.0000 0.30490  0.97340  0.25130  Biso   1.000  H
  C124     1.0000 0.39710  0.95250  0.27980  Biso   1.000  C
  H82      1.0000 0.42530  0.91920  0.30710  Biso   1.000  H
  H83      1.0000 0.37800  0.91640  0.23700  Biso   1.000  H
  C125     1.0000 0.42940  0.03200  0.20990  Biso   1.000  C
  C126     1.0000 0.44370  0.95690  0.18000  Biso   1.000  C
  H84      1.0000 0.43850  0.89870  0.19390  Biso   1.000  H
  C127     1.0000 0.46630  0.96990  0.12820  Biso   1.000  C
  C128     1.0000 0.47920  0.89030  0.09290  Biso   1.000  C
  C129     1.0000 0.47470  0.05640  0.10900  Biso   1.000  C
  H85      1.0000 0.48950  0.06490  0.07500  Biso   1.000  H
  C130     1.0000 0.46080  0.13150  0.14070  Biso   1.000  C
  C131     1.0000 0.46870  0.22620  0.12220  Biso   1.000  C
  C132     1.0000 0.43830  0.11760  0.19190  Biso   1.000  C
  H86      1.0000 0.42930  0.16710  0.21350  Biso   1.000  H
  C133     1.0000 0.42260  0.27510  0.84410  Biso   1.000  C
  H87      1.0000 0.44760  0.28870  0.82970  Biso   1.000  H
  C134     1.0000 0.37870  0.28140  0.79180  Biso   1.000  C
  H88      1.0000 0.37470  0.30130  0.74360  Biso   1.000  H
  C135     1.0000 0.34210  0.26070  0.80670  Biso   1.000  C
  C136     1.0000 0.34830  0.23870  0.88220  Biso   1.000  C
  H89      1.0000 0.32320  0.22730  0.89660  Biso   1.000  H
  C137     1.0000 0.39490  0.23490  0.93470  Biso   1.000  C
  H90      1.0000 0.39970  0.22120  0.98460  Biso   1.000  H
  C138     1.0000 0.29740  0.26020  0.74100  Biso   1.000  C
  C139     1.0000 0.22540  0.25410  0.66990  Biso   1.000  C
  C140     1.0000 0.17170  0.25540  0.63470  Biso   1.000  C
  C141     1.0000 0.14350  0.28210  0.66820  Biso   1.000  C
  H91      1.0000 0.15510  0.30040  0.71830  Biso   1.000  H
  C142     1.0000 0.09520  0.28220  0.62580  Biso   1.000  C
  H92      1.0000 0.07520  0.30070  0.64940  Biso   1.000  H
  C143     1.0000 0.10760  0.23600  0.52780  Biso   1.000  C
  H93      1.0000 0.09700  0.22170  0.47680  Biso   1.000  H
  C144     1.0000 0.15450  0.23160  0.56620  Biso   1.000  C
  H94      1.0000 0.17380  0.21120  0.54200  Biso   1.000  H
  N19      1.0000 0.43140  0.24950  0.91710  Biso   1.000  N
  N20      1.0000 0.29570  0.24780  0.67460  Biso   1.000  N
  N21      1.0000 0.25210  0.24170  0.63580  Biso   1.000  N
  N22      1.0000 0.25340  0.26130  0.74000  Biso   1.000  N
  N23      1.0000 0.24080  0.28550  0.80590  Biso   1.000  N
  H95      1.0000 0.21230  0.29640  0.79970  Biso   1.000  H
  H96      1.0000 0.26210  0.28850  0.85020  Biso   1.000  H
  N24      1.0000 0.07710  0.25770  0.55480  Biso   1.000  N
  O31      1.0000 0.07808  0.94990  0.29490  Biso   1.000  O
  O32      1.0000 0.02396  0.94700  0.18270  Biso   1.000  O
  O33      1.0000 0.05657  0.04210  0.96170  Biso   1.000  O
  O34      1.0000 0.12840  0.06510  0.97060  Biso   1.000  O
  O35      1.0000 0.22584  0.00440  0.23900  Biso   1.000  O
  O36      1.0000 0.40690  0.03130  0.25740  Biso   1.000  O
  O37      1.0000 0.47560  0.81170  0.11540  Biso   1.000  O
  O38      1.0000 0.49268  0.90050  0.03890  Biso   1.000  O
  O39      1.0000 0.49090  0.24270  0.08090  Biso   1.000  O
  O40      1.0000 0.45200  0.28800  0.15160  Biso   1.000  O
  Zn7      1.0000 0.04184  0.91975  0.35607  Biso   1.000  Zn
  Zn8      1.0000 0.50452  0.23549  0.98637  Biso   1.000  Zn
  C145     1.0000 0.56440  0.54430  0.72490  Biso   1.000  C
  C146     1.0000 0.59960  0.52510  0.69020  Biso   1.000  C
  C147     1.0000 0.64650  0.52150  0.73470  Biso   1.000  C
  H97      1.0000 0.65660  0.53290  0.78610  Biso   1.000  H
  C148     1.0000 0.67810  0.50060  0.70090  Biso   1.000  C
  C149     1.0000 0.66300  0.48060  0.62380  Biso   1.000  C
  H98      1.0000 0.68460  0.46530  0.60230  Biso   1.000  H
  C150     1.0000 0.61650  0.48360  0.57970  Biso   1.000  C
  C151     1.0000 0.60060  0.45810  0.49810  Biso   1.000  C
  C152     1.0000 0.58480  0.50700  0.61410  Biso   1.000  C
  H99      1.0000 0.55320  0.51040  0.58490  Biso   1.000  H
  C153     1.0000 0.74270  0.51330  0.81790  Biso   1.000  C
  H100     1.0000 0.73230  0.57250  0.82740  Biso   1.000  H
  H101     1.0000 0.73100  0.46800  0.84330  Biso   1.000  H
  C154     1.0000 0.79460  0.51030  0.84660  Biso   1.000  C
  C155     1.0000 0.81800  0.49630  0.92290  Biso   1.000  C
  H102     1.0000 0.80130  0.48700  0.95410  Biso   1.000  H
  C156     1.0000 0.86610  0.49610  0.95310  Biso   1.000  C
  H103     1.0000 0.88120  0.48660  0.00450  Biso   1.000  H
  C157     1.0000 0.89110  0.50870  0.91150  Biso   1.000  C
  H104     1.0000 0.92340  0.50780  0.93300  Biso   1.000  H
  C158     1.0000 0.86860  0.52340  0.83470  Biso   1.000  C
  C159     1.0000 0.81990  0.52090  0.80320  Biso   1.000  C
  H105     1.0000 0.80490  0.52660  0.75130  Biso   1.000  H
  C160     1.0000 0.89710  0.54750  0.77980  Biso   1.000  C
  H106     1.0000 0.92530  0.58080  0.80710  Biso   1.000  H
  H107     1.0000 0.87800  0.58360  0.73700  Biso   1.000  H
  C161     1.0000 0.92940  0.46800  0.70990  Biso   1.000  C
  C162     1.0000 0.94370  0.54310  0.68000  Biso   1.000  C
  H108     1.0000 0.93850  0.60130  0.69390  Biso   1.000  H
  C163     1.0000 0.96630  0.53010  0.62820  Biso   1.000  C
  C164     1.0000 0.97920  0.60970  0.59290  Biso   1.000  C
  C165     1.0000 0.97470  0.44360  0.60900  Biso   1.000  C
  H109     1.0000 0.98950  0.43510  0.57500  Biso   1.000  H
  C166     1.0000 0.96080  0.36850  0.64070  Biso   1.000  C
  C167     1.0000 0.96870  0.27380  0.62220  Biso   1.000  C
  C168     1.0000 0.93830  0.38240  0.69190  Biso   1.000  C
  H110     1.0000 0.92930  0.33290  0.71350  Biso   1.000  H
  C169     1.0000 0.92260  0.22490  0.34410  Biso   1.000  C
  H111     1.0000 0.94760  0.21130  0.32970  Biso   1.000  H
  C170     1.0000 0.87870  0.21860  0.29180  Biso   1.000  C
  H112     1.0000 0.87470  0.19870  0.24360  Biso   1.000  H
  C171     1.0000 0.84210  0.23930  0.30670  Biso   1.000  C
  C172     1.0000 0.84830  0.26130  0.38220  Biso   1.000  C
  H113     1.0000 0.82320  0.27270  0.39660  Biso   1.000  H
  C173     1.0000 0.89490  0.26510  0.43470  Biso   1.000  C
  H114     1.0000 0.89970  0.27880  0.48460  Biso   1.000  H
  C174     1.0000 0.79740  0.23980  0.24100  Biso   1.000  C
  C175     1.0000 0.72540  0.24590  0.16990  Biso   1.000  C
  C176     1.0000 0.67170  0.24460  0.13470  Biso   1.000  C
  C177     1.0000 0.64350  0.21790  0.16820  Biso   1.000  C
  H115     1.0000 0.65510  0.19960  0.21830  Biso   1.000  H
  C178     1.0000 0.59520  0.21780  0.12580  Biso   1.000  C
  H116     1.0000 0.57520  0.19930  0.14940  Biso   1.000  H
  C179     1.0000 0.60760  0.26400  0.02780  Biso   1.000  C
  H117     1.0000 0.59700  0.27830  0.97680  Biso   1.000  H
  C180     1.0000 0.65450  0.26840  0.06620  Biso   1.000  C
  H118     1.0000 0.67380  0.28880  0.04200  Biso   1.000  H
  N25      1.0000 0.93140  0.25050  0.41710  Biso   1.000  N
  N26      1.0000 0.79570  0.25220  0.17460  Biso   1.000  N
  N27      1.0000 0.75210  0.25830  0.13580  Biso   1.000  N
  N28      1.0000 0.75340  0.23870  0.24000  Biso   1.000  N
  N29      1.0000 0.74080  0.21450  0.30590  Biso   1.000  N
  H119     1.0000 0.71230  0.20360  0.29970  Biso   1.000  H
  H120     1.0000 0.76210  0.21150  0.35020  Biso   1.000  H
  N30      1.0000 0.57710  0.24230  0.05480  Biso   1.000  N
  O41      1.0000 0.57808  0.55010  0.79490  Biso   1.000  O
  O42      1.0000 0.52396  0.55300  0.68270  Biso   1.000  O
  O43      1.0000 0.55657  0.45790  0.46170  Biso   1.000  O
  O44      1.0000 0.62840  0.43490  0.47060  Biso   1.000  O
  O45      1.0000 0.72584  0.49560  0.73900  Biso   1.000  O
  O46      1.0000 0.90690  0.46870  0.75740  Biso   1.000  O
  O47      1.0000 0.97560  0.68830  0.61540  Biso   1.000  O
  O48      1.0000 0.99268  0.59950  0.53890  Biso   1.000  O
  O49      1.0000 0.99090  0.25730  0.58090  Biso   1.000  O
  O50      1.0000 0.95200  0.21200  0.65160  Biso   1.000  O
  Zn9      1.0000 0.54184  0.58025  0.85607  Biso   1.000  Zn
  Zn10     1.0000 0.00452  0.26451  0.48637  Biso   1.000  Zn
  C181     1.0000 0.06440  0.04430  0.72490  Biso   1.000  C
  C182     1.0000 0.09960  0.02510  0.69020  Biso   1.000  C
  C183     1.0000 0.14650  0.02150  0.73470  Biso   1.000  C
  H121     1.0000 0.15660  0.03290  0.78610  Biso   1.000  H
  C184     1.0000 0.17810  0.00060  0.70090  Biso   1.000  C
  C185     1.0000 0.16300  0.98060  0.62380  Biso   1.000  C
  H122     1.0000 0.18460  0.96530  0.60230  Biso   1.000  H
  C186     1.0000 0.11650  0.98360  0.57970  Biso   1.000  C
  C187     1.0000 0.10060  0.95810  0.49810  Biso   1.000  C
  C188     1.0000 0.08480  0.00700  0.61410  Biso   1.000  C
  H123     1.0000 0.05320  0.01040  0.58490  Biso   1.000  H
  C189     1.0000 0.24270  0.01330  0.81790  Biso   1.000  C
  H124     1.0000 0.23230  0.07250  0.82740  Biso   1.000  H
  H125     1.0000 0.23100  0.96800  0.84330  Biso   1.000  H
  C190     1.0000 0.29460  0.01030  0.84660  Biso   1.000  C
  C191     1.0000 0.31800  0.99630  0.92290  Biso   1.000  C
  H126     1.0000 0.30130  0.98700  0.95410  Biso   1.000  H
  C192     1.0000 0.36610  0.99610  0.95310  Biso   1.000  C
  H127     1.0000 0.38120  0.98660  0.00450  Biso   1.000  H
  C193     1.0000 0.39110  0.00870  0.91150  Biso   1.000  C
  H128     1.0000 0.42340  0.00780  0.93300  Biso   1.000  H
  C194     1.0000 0.36860  0.02340  0.83470  Biso   1.000  C
  C195     1.0000 0.31990  0.02090  0.80320  Biso   1.000  C
  H129     1.0000 0.30490  0.02660  0.75130  Biso   1.000  H
  C196     1.0000 0.39710  0.04750  0.77980  Biso   1.000  C
  H130     1.0000 0.42530  0.08080  0.80710  Biso   1.000  H
  H131     1.0000 0.37800  0.08360  0.73700  Biso   1.000  H
  C197     1.0000 0.42940  0.96800  0.70990  Biso   1.000  C
  C198     1.0000 0.44370  0.04310  0.68000  Biso   1.000  C
  H132     1.0000 0.43850  0.10130  0.69390  Biso   1.000  H
  C199     1.0000 0.46630  0.03010  0.62820  Biso   1.000  C
  C200     1.0000 0.47920  0.10970  0.59290  Biso   1.000  C
  C201     1.0000 0.47470  0.94360  0.60900  Biso   1.000  C
  H133     1.0000 0.48950  0.93510  0.57500  Biso   1.000  H
  C202     1.0000 0.46080  0.86850  0.64070  Biso   1.000  C
  C203     1.0000 0.46870  0.77380  0.62220  Biso   1.000  C
  C204     1.0000 0.43830  0.88240  0.69190  Biso   1.000  C
  H134     1.0000 0.42930  0.83290  0.71350  Biso   1.000  H
  C205     1.0000 0.42260  0.72490  0.34410  Biso   1.000  C
  H135     1.0000 0.44760  0.71130  0.32970  Biso   1.000  H
  C206     1.0000 0.37870  0.71860  0.29180  Biso   1.000  C
  H136     1.0000 0.37470  0.69870  0.24360  Biso   1.000  H
  C207     1.0000 0.34210  0.73930  0.30670  Biso   1.000  C
  C208     1.0000 0.34830  0.76130  0.38220  Biso   1.000  C
  H137     1.0000 0.32320  0.77270  0.39660  Biso   1.000  H
  C209     1.0000 0.39490  0.76510  0.43470  Biso   1.000  C
  H138     1.0000 0.39970  0.77880  0.48460  Biso   1.000  H
  C210     1.0000 0.29740  0.73980  0.24100  Biso   1.000  C
  C211     1.0000 0.22540  0.74590  0.16990  Biso   1.000  C
  C212     1.0000 0.17170  0.74460  0.13470  Biso   1.000  C
  C213     1.0000 0.14350  0.71790  0.16820  Biso   1.000  C
  H139     1.0000 0.15510  0.69960  0.21830  Biso   1.000  H
  C214     1.0000 0.09520  0.71780  0.12580  Biso   1.000  C
  H140     1.0000 0.07520  0.69930  0.14940  Biso   1.000  H
  C215     1.0000 0.10760  0.76400  0.02780  Biso   1.000  C
  H141     1.0000 0.09700  0.77830  0.97680  Biso   1.000  H
  C216     1.0000 0.15450  0.76840  0.06620  Biso   1.000  C
  H142     1.0000 0.17380  0.78880  0.04200  Biso   1.000  H
  N31      1.0000 0.43140  0.75050  0.41710  Biso   1.000  N
  N32      1.0000 0.29570  0.75220  0.17460  Biso   1.000  N
  N33      1.0000 0.25210  0.75830  0.13580  Biso   1.000  N
  N34      1.0000 0.25340  0.73870  0.24000  Biso   1.000  N
  N35      1.0000 0.24080  0.71450  0.30590  Biso   1.000  N
  H143     1.0000 0.21230  0.70360  0.29970  Biso   1.000  H
  H144     1.0000 0.26210  0.71150  0.35020  Biso   1.000  H
  N36      1.0000 0.07710  0.74230  0.05480  Biso   1.000  N
  O51      1.0000 0.07808  0.05010  0.79490  Biso   1.000  O
  O52      1.0000 0.02396  0.05300  0.68270  Biso   1.000  O
  O53      1.0000 0.05657  0.95790  0.46170  Biso   1.000  O
  O54      1.0000 0.12840  0.93490  0.47060  Biso   1.000  O
  O55      1.0000 0.22584  0.99560  0.73900  Biso   1.000  O
  O56      1.0000 0.40690  0.96870  0.75740  Biso   1.000  O
  O57      1.0000 0.47560  0.18830  0.61540  Biso   1.000  O
  O58      1.0000 0.49268  0.09950  0.53890  Biso   1.000  O
  O59      1.0000 0.49090  0.75730  0.58090  Biso   1.000  O
  O60      1.0000 0.45200  0.71200  0.65160  Biso   1.000  O
  Zn11     1.0000 0.04184  0.08025  0.85607  Biso   1.000  Zn
  Zn12     1.0000 0.50452  0.76451  0.48637  Biso   1.000  Zn
  C217     1.0000 0.43560  0.54430  0.77510  Biso   1.000  C
  C218     1.0000 0.40040  0.52510  0.80980  Biso   1.000  C
  C219     1.0000 0.35350  0.52150  0.76530  Biso   1.000  C
  H145     1.0000 0.34340  0.53290  0.71390  Biso   1.000  H
  C220     1.0000 0.32190  0.50060  0.79910  Biso   1.000  C
  C221     1.0000 0.33700  0.48060  0.87620  Biso   1.000  C
  H146     1.0000 0.31540  0.46530  0.89770  Biso   1.000  H
  C222     1.0000 0.38350  0.48360  0.92030  Biso   1.000  C
  C223     1.0000 0.39940  0.45810  0.00190  Biso   1.000  C
  C224     1.0000 0.41520  0.50700  0.88590  Biso   1.000  C
  H147     1.0000 0.44680  0.51040  0.91510  Biso   1.000  H
  C225     1.0000 0.25730  0.51330  0.68210  Biso   1.000  C
  H148     1.0000 0.26770  0.57250  0.67260  Biso   1.000  H
  H149     1.0000 0.26900  0.46800  0.65670  Biso   1.000  H
  C226     1.0000 0.20540  0.51030  0.65340  Biso   1.000  C
  C227     1.0000 0.18200  0.49630  0.57710  Biso   1.000  C
  H150     1.0000 0.19870  0.48700  0.54590  Biso   1.000  H
  C228     1.0000 0.13390  0.49610  0.54690  Biso   1.000  C
  H151     1.0000 0.11880  0.48660  0.49550  Biso   1.000  H
  C229     1.0000 0.10890  0.50870  0.58850  Biso   1.000  C
  H152     1.0000 0.07660  0.50780  0.56700  Biso   1.000  H
  C230     1.0000 0.13140  0.52340  0.66530  Biso   1.000  C
  C231     1.0000 0.18010  0.52090  0.69680  Biso   1.000  C
  H153     1.0000 0.19510  0.52660  0.74870  Biso   1.000  H
  C232     1.0000 0.10290  0.54750  0.72020  Biso   1.000  C
  H154     1.0000 0.07470  0.58080  0.69290  Biso   1.000  H
  H155     1.0000 0.12200  0.58360  0.76300  Biso   1.000  H
  C233     1.0000 0.07060  0.46800  0.79010  Biso   1.000  C
  C234     1.0000 0.05630  0.54310  0.82000  Biso   1.000  C
  H156     1.0000 0.06150  0.60130  0.80610  Biso   1.000  H
  C235     1.0000 0.03370  0.53010  0.87180  Biso   1.000  C
  C236     1.0000 0.02080  0.60970  0.90710  Biso   1.000  C
  C237     1.0000 0.02530  0.44360  0.89100  Biso   1.000  C
  H157     1.0000 0.01050  0.43510  0.92500  Biso   1.000  H
  C238     1.0000 0.03920  0.36850  0.85930  Biso   1.000  C
  C239     1.0000 0.03130  0.27380  0.87780  Biso   1.000  C
  C240     1.0000 0.06170  0.38240  0.80810  Biso   1.000  C
  H158     1.0000 0.07070  0.33290  0.78650  Biso   1.000  H
  C241     1.0000 0.07740  0.22490  0.15590  Biso   1.000  C
  H159     1.0000 0.05240  0.21130  0.17030  Biso   1.000  H
  C242     1.0000 0.12130  0.21860  0.20820  Biso   1.000  C
  H160     1.0000 0.12530  0.19870  0.25640  Biso   1.000  H
  C243     1.0000 0.15790  0.23930  0.19330  Biso   1.000  C
  C244     1.0000 0.15170  0.26130  0.11780  Biso   1.000  C
  H161     1.0000 0.17680  0.27270  0.10340  Biso   1.000  H
  C245     1.0000 0.10510  0.26510  0.06530  Biso   1.000  C
  H162     1.0000 0.10030  0.27880  0.01540  Biso   1.000  H
  C246     1.0000 0.20260  0.23980  0.25900  Biso   1.000  C
  C247     1.0000 0.27460  0.24590  0.33010  Biso   1.000  C
  C248     1.0000 0.32830  0.24460  0.36530  Biso   1.000  C
  C249     1.0000 0.35650  0.21790  0.33180  Biso   1.000  C
  H163     1.0000 0.34490  0.19960  0.28170  Biso   1.000  H
  C250     1.0000 0.40480  0.21780  0.37420  Biso   1.000  C
  H164     1.0000 0.42480  0.19930  0.35060  Biso   1.000  H
  C251     1.0000 0.39240  0.26400  0.47220  Biso   1.000  C
  H165     1.0000 0.40300  0.27830  0.52320  Biso   1.000  H
  C252     1.0000 0.34550  0.26840  0.43380  Biso   1.000  C
  H166     1.0000 0.32620  0.28880  0.45800  Biso   1.000  H
  N37      1.0000 0.06860  0.25050  0.08290  Biso   1.000  N
  N38      1.0000 0.20430  0.25220  0.32540  Biso   1.000  N
  N39      1.0000 0.24790  0.25830  0.36420  Biso   1.000  N
  N40      1.0000 0.24660  0.23870  0.26000  Biso   1.000  N
  N41      1.0000 0.25920  0.21450  0.19410  Biso   1.000  N
  H167     1.0000 0.28770  0.20360  0.20030  Biso   1.000  H
  H168     1.0000 0.23790  0.21150  0.14980  Biso   1.000  H
  N42      1.0000 0.42290  0.24230  0.44520  Biso   1.000  N
  O61      1.0000 0.42192  0.55010  0.70510  Biso   1.000  O
  O62      1.0000 0.47604  0.55300  0.81730  Biso   1.000  O
  O63      1.0000 0.44343  0.45790  0.03830  Biso   1.000  O
  O64      1.0000 0.37160  0.43490  0.02940  Biso   1.000  O
  O65      1.0000 0.27416  0.49560  0.76100  Biso   1.000  O
  O66      1.0000 0.09310  0.46870  0.74260  Biso   1.000  O
  O67      1.0000 0.02440  0.68830  0.88460  Biso   1.000  O
  O68      1.0000 0.00732  0.59950  0.96110  Biso   1.000  O
  O69      1.0000 0.00910  0.25730  0.91910  Biso   1.000  O
  O70      1.0000 0.04800  0.21200  0.84840  Biso   1.000  O
  Zn13     1.0000 0.45816  0.58025  0.64393  Biso   1.000  Zn
  Zn14     1.0000 0.99548  0.26451  0.01363  Biso   1.000  Zn
  C253     1.0000 0.93560  0.04430  0.77510  Biso   1.000  C
  C254     1.0000 0.90040  0.02510  0.80980  Biso   1.000  C
  C255     1.0000 0.85350  0.02150  0.76530  Biso   1.000  C
  H169     1.0000 0.84340  0.03290  0.71390  Biso   1.000  H
  C256     1.0000 0.82190  0.00060  0.79910  Biso   1.000  C
  C257     1.0000 0.83700  0.98060  0.87620  Biso   1.000  C
  H170     1.0000 0.81540  0.96530  0.89770  Biso   1.000  H
  C258     1.0000 0.88350  0.98360  0.92030  Biso   1.000  C
  C259     1.0000 0.89940  0.95810  0.00190  Biso   1.000  C
  C260     1.0000 0.91520  0.00700  0.88590  Biso   1.000  C
  H171     1.0000 0.94680  0.01040  0.91510  Biso   1.000  H
  C261     1.0000 0.75730  0.01330  0.68210  Biso   1.000  C
  H172     1.0000 0.76770  0.07250  0.67260  Biso   1.000  H
  H173     1.0000 0.76900  0.96800  0.65670  Biso   1.000  H
  C262     1.0000 0.70540  0.01030  0.65340  Biso   1.000  C
  C263     1.0000 0.68200  0.99630  0.57710  Biso   1.000  C
  H174     1.0000 0.69870  0.98700  0.54590  Biso   1.000  H
  C264     1.0000 0.63390  0.99610  0.54690  Biso   1.000  C
  H175     1.0000 0.61880  0.98660  0.49550  Biso   1.000  H
  C265     1.0000 0.60890  0.00870  0.58850  Biso   1.000  C
  H176     1.0000 0.57660  0.00780  0.56700  Biso   1.000  H
  C266     1.0000 0.63140  0.02340  0.66530  Biso   1.000  C
  C267     1.0000 0.68010  0.02090  0.69680  Biso   1.000  C
  H177     1.0000 0.69510  0.02660  0.74870  Biso   1.000  H
  C268     1.0000 0.60290  0.04750  0.72020  Biso   1.000  C
  H178     1.0000 0.57470  0.08080  0.69290  Biso   1.000  H
  H179     1.0000 0.62200  0.08360  0.76300  Biso   1.000  H
  C269     1.0000 0.57060  0.96800  0.79010  Biso   1.000  C
  C270     1.0000 0.55630  0.04310  0.82000  Biso   1.000  C
  H180     1.0000 0.56150  0.10130  0.80610  Biso   1.000  H
  C271     1.0000 0.53370  0.03010  0.87180  Biso   1.000  C
  C272     1.0000 0.52080  0.10970  0.90710  Biso   1.000  C
  C273     1.0000 0.52530  0.94360  0.89100  Biso   1.000  C
  H181     1.0000 0.51050  0.93510  0.92500  Biso   1.000  H
  C274     1.0000 0.53920  0.86850  0.85930  Biso   1.000  C
  C275     1.0000 0.53130  0.77380  0.87780  Biso   1.000  C
  C276     1.0000 0.56170  0.88240  0.80810  Biso   1.000  C
  H182     1.0000 0.57070  0.83290  0.78650  Biso   1.000  H
  C277     1.0000 0.57740  0.72490  0.15590  Biso   1.000  C
  H183     1.0000 0.55240  0.71130  0.17030  Biso   1.000  H
  C278     1.0000 0.62130  0.71860  0.20820  Biso   1.000  C
  H184     1.0000 0.62530  0.69870  0.25640  Biso   1.000  H
  C279     1.0000 0.65790  0.73930  0.19330  Biso   1.000  C
  C280     1.0000 0.65170  0.76130  0.11780  Biso   1.000  C
  H185     1.0000 0.67680  0.77270  0.10340  Biso   1.000  H
  C281     1.0000 0.60510  0.76510  0.06530  Biso   1.000  C
  H186     1.0000 0.60030  0.77880  0.01540  Biso   1.000  H
  C282     1.0000 0.70260  0.73980  0.25900  Biso   1.000  C
  C283     1.0000 0.77460  0.74590  0.33010  Biso   1.000  C
  C284     1.0000 0.82830  0.74460  0.36530  Biso   1.000  C
  C285     1.0000 0.85650  0.71790  0.33180  Biso   1.000  C
  H187     1.0000 0.84490  0.69960  0.28170  Biso   1.000  H
  C286     1.0000 0.90480  0.71780  0.37420  Biso   1.000  C
  H188     1.0000 0.92480  0.69930  0.35060  Biso   1.000  H
  C287     1.0000 0.89240  0.76400  0.47220  Biso   1.000  C
  H189     1.0000 0.90300  0.77830  0.52320  Biso   1.000  H
  C288     1.0000 0.84550  0.76840  0.43380  Biso   1.000  C
  H190     1.0000 0.82620  0.78880  0.45800  Biso   1.000  H
  N43      1.0000 0.56860  0.75050  0.08290  Biso   1.000  N
  N44      1.0000 0.70430  0.75220  0.32540  Biso   1.000  N
  N45      1.0000 0.74790  0.75830  0.36420  Biso   1.000  N
  N46      1.0000 0.74660  0.73870  0.26000  Biso   1.000  N
  N47      1.0000 0.75920  0.71450  0.19410  Biso   1.000  N
  H191     1.0000 0.78770  0.70360  0.20030  Biso   1.000  H
  H192     1.0000 0.73790  0.71150  0.14980  Biso   1.000  H
  N48      1.0000 0.92290  0.74230  0.44520  Biso   1.000  N
  O71      1.0000 0.92192  0.05010  0.70510  Biso   1.000  O
  O72      1.0000 0.97604  0.05300  0.81730  Biso   1.000  O
  O73      1.0000 0.94343  0.95790  0.03830  Biso   1.000  O
  O74      1.0000 0.87160  0.93490  0.02940  Biso   1.000  O
  O75      1.0000 0.77416  0.99560  0.76100  Biso   1.000  O
  O76      1.0000 0.59310  0.96870  0.74260  Biso   1.000  O
  O77      1.0000 0.52440  0.18830  0.88460  Biso   1.000  O
  O78      1.0000 0.50732  0.09950  0.96110  Biso   1.000  O
  O79      1.0000 0.50910  0.75730  0.91910  Biso   1.000  O
  O80      1.0000 0.54800  0.71200  0.84840  Biso   1.000  O
  Zn15     1.0000 0.95816  0.08025  0.64393  Biso   1.000  Zn
  Zn16     1.0000 0.49548  0.76451  0.01363  Biso   1.000  Zn
