data_image0
_cell_length_a       10.079
_cell_length_b       14.817
_cell_length_c       20.165
_cell_angle_alpha    98.577
_cell_angle_beta     103.941
_cell_angle_gamma    91.757

_symmetry_space_group_name_H-M    "P 1"
_symmetry_int_tables_number       1

loop_
  _symmetry_equiv_pos_as_xyz
  'x, y, z'

loop_
  _atom_site_label
  _atom_site_occupancy
  _atom_site_fract_x
  _atom_site_fract_y
  _atom_site_fract_z
  _atom_site_thermal_displace_type
  _atom_site_B_iso_or_equiv
  _atom_site_type_symbol
  N1       1.0000 0.87610  0.22860  0.34930  Biso   1.000  N
  C1       1.0000 0.76550  0.17990  0.29610  Biso   1.000  C
  H1       1.0000 0.69670  0.21270  0.27320  Biso   1.000  H
  C2       1.0000 0.75700  0.08370  0.27740  Biso   1.000  C
  H2       1.0000 0.69560  0.05250  0.23800  Biso   1.000  H
  C3       1.0000 0.84950  0.03960  0.32330  Biso   1.000  C
  N2       1.0000 0.14920  0.19230  0.20240  Biso   1.000  N
  C4       1.0000 0.25160  0.16440  0.24880  Biso   1.000  C
  H3       1.0000 0.32050  0.20780  0.27440  Biso   1.000  H
  Co1      1.0000 0.89282  0.37440  0.34693  Biso   1.000  Co
  Co2      1.0000 0.13889  0.33832  0.20610  Biso   1.000  Co
  O1       1.0000 0.09030  0.37840  0.40130  Biso   1.000  O
  O2       1.0000 0.94080  0.32310  0.14980  Biso   1.000  O
  O3       1.0000 0.81260  0.39860  0.43980  Biso   1.000  O
  O4       1.0000 0.35360  0.34500  0.21200  Biso   1.000  O
  O5       1.0000 0.67660  0.37880  0.33700  Biso   1.000  O
  O6       1.0000 0.21720  0.33440  0.10860  Biso   1.000  O
  O7       1.0000 0.17030  0.34400  0.30880  Biso   1.000  O
  N3       1.0000 0.13600  0.48340  0.21680  Biso   1.000  N
  C5       1.0000 0.58850  0.33880  0.16130  Biso   1.000  C
  H4       1.0000 0.60030  0.34390  0.20890  Biso   1.000  H
  N4       1.0000 0.91100  0.51870  0.34470  Biso   1.000  N
  C6       1.0000 0.44240  0.37710  0.38860  Biso   1.000  C
  H5       1.0000 0.42940  0.37380  0.34110  Biso   1.000  H
  C7       1.0000 0.32990  0.37300  0.41810  Biso   1.000  C
  C8       1.0000 0.57350  0.38610  0.43230  Biso   1.000  C
  O8       1.0000 0.51300  0.37830  0.59980  Biso   1.000  O
  C9       1.0000 0.18640  0.36470  0.37260  Biso   1.000  C
  C10      1.0000 0.84390  0.33300  0.17920  Biso   1.000  C
  C11      1.0000 0.70390  0.33270  0.13260  Biso   1.000  C
  O9       1.0000 0.52530  0.33240  0.95010  Biso   1.000  O
  O10      1.0000 0.85780  0.34120  0.24220  Biso   1.000  O
  C12      1.0000 0.69540  0.38820  0.40220  Biso   1.000  C
  C13      1.0000 0.55590  0.33240  0.01980  Biso   1.000  C
  C14      1.0000 0.34970  0.37510  0.48900  Biso   1.000  C
  H6       1.0000 0.27460  0.37260  0.50800  Biso   1.000  H
  C15      1.0000 0.59310  0.38800  0.50200  Biso   1.000  C
  H7       1.0000 0.68180  0.39400  0.53020  Biso   1.000  H
  C16      1.0000 0.68450  0.32900  0.06160  Biso   1.000  C
  H8       1.0000 0.75940  0.32410  0.04220  Biso   1.000  H
  C17      1.0000 0.45950  0.33710  0.11880  Biso   1.000  C
  C18      1.0000 0.63540  0.33090  0.91660  Biso   1.000  C
  H9       1.0000 0.68080  0.27440  0.92000  Biso   1.000  H
  H10      1.0000 0.70220  0.38170  0.93830  Biso   1.000  H
  C19      1.0000 0.33520  0.34010  0.14820  Biso   1.000  C
  C20      1.0000 0.07560  0.52750  0.16680  Biso   1.000  C
  H11      1.0000 0.02770  0.49320  0.12490  Biso   1.000  H
  C21      1.0000 0.15660  0.77390  0.25110  Biso   1.000  C
  C22      1.0000 0.86920  0.79260  0.30430  Biso   1.000  C
  N5       1.0000 0.81460  0.89890  0.24300  Biso   1.000  N
  C23      1.0000 0.48220  0.38100  0.53140  Biso   1.000  C
  C24      1.0000 0.16110  0.01100  0.22420  Biso   1.000  C
  C25      1.0000 0.20100  0.53490  0.27740  Biso   1.000  C
  H12      1.0000 0.24330  0.50590  0.31390  Biso   1.000  H
  C26      1.0000 0.16380  0.91970  0.24540  Biso   1.000  C
  C27      1.0000 0.57580  0.33830  0.84240  Biso   1.000  C
  C28      1.0000 0.46200  0.35420  0.70430  Biso   1.000  C
  C29      1.0000 0.53590  0.26080  0.79420  Biso   1.000  C
  H13      1.0000 0.54530  0.20340  0.80760  Biso   1.000  H
  C30      1.0000 0.55680  0.42400  0.82290  Biso   1.000  C
  H14      1.0000 0.58370  0.47650  0.85580  Biso   1.000  H
  C31      1.0000 0.44090  0.33310  0.04710  Biso   1.000  C
  H15      1.0000 0.35330  0.33100  0.01820  Biso   1.000  H
  C32      1.0000 0.94020  0.07880  0.37080  Biso   1.000  C
  H16      1.0000 0.00490  0.04620  0.39690  Biso   1.000  H
  C33      1.0000 0.14550  0.67490  0.23330  Biso   1.000  C
  N6       1.0000 0.83170  0.81910  0.25080  Biso   1.000  N
  C34      1.0000 0.40150  0.36260  0.63080  Biso   1.000  C
  H17      1.0000 0.34720  0.30690  0.60680  Biso   1.000  H
  H18      1.0000 0.34270  0.41320  0.62820  Biso   1.000  H
  C35      1.0000 0.48020  0.26820  0.72380  Biso   1.000  C
  H19      1.0000 0.45580  0.21580  0.69070  Biso   1.000  H
  C36      1.0000 0.20720  0.62840  0.28720  Biso   1.000  C
  H20      1.0000 0.25260  0.66150  0.33000  Biso   1.000  H
  C37      1.0000 0.05350  0.03480  0.17270  Biso   1.000  C
  H21      1.0000 0.98620  0.99210  0.14460  Biso   1.000  H
  N7       1.0000 0.18940  0.81720  0.31400  Biso   1.000  N
  C38      1.0000 0.95110  0.68820  0.38300  Biso   1.000  C
  H22      1.0000 0.98390  0.73950  0.41650  Biso   1.000  H
  C39      1.0000 0.26190  0.07650  0.26120  Biso   1.000  C
  H23      1.0000 0.33590  0.06120  0.29410  Biso   1.000  H
  C40      1.0000 0.84570  0.93460  0.30510  Biso   1.000  C
  C41      1.0000 0.88440  0.69180  0.31800  Biso   1.000  C
  C42      1.0000 0.96900  0.57830  0.39770  Biso   1.000  C
  H24      1.0000 0.01590  0.56310  0.43980  Biso   1.000  H
  N8       1.0000 0.19350  0.90860  0.31050  Biso   1.000  N
  C43      1.0000 0.05540  0.12850  0.16690  Biso   1.000  C
  H25      1.0000 0.98300  0.14680  0.13470  Biso   1.000  H
  C44      1.0000 0.07940  0.62220  0.17310  Biso   1.000  C
  H26      1.0000 0.03620  0.64940  0.13570  Biso   1.000  H
  C45      1.0000 0.94500  0.18590  0.38700  Biso   1.000  C
  H27      1.0000 0.00470  0.21640  0.42750  Biso   1.000  H
  C46      1.0000 0.49810  0.43140  0.75470  Biso   1.000  C
  H28      1.0000 0.48250  0.48900  0.74250  Biso   1.000  H
  N9       1.0000 0.13940  0.83720  0.20580  Biso   1.000  N
  N10      1.0000 0.88970  0.87400  0.35010  Biso   1.000  N
  N11      1.0000 0.11420  0.81690  0.13450  Biso   1.000  N
  H29      1.0000 0.11310  0.86030  0.11040  Biso   1.000  H
  H30      1.0000 0.09970  0.76090  0.11420  Biso   1.000  H
  C47      1.0000 0.83470  0.62900  0.26920  Biso   1.000  C
  H31      1.0000 0.78950  0.63980  0.22550  Biso   1.000  H
  C48      1.0000 0.85080  0.54780  0.28420  Biso   1.000  C
  H32      1.0000 0.81510  0.50090  0.24740  Biso   1.000  H
  N12      1.0000 0.12390  0.77140  0.65070  Biso   1.000  N
  C49      1.0000 0.23450  0.82010  0.70390  Biso   1.000  C
  H33      1.0000 0.30330  0.78730  0.72680  Biso   1.000  H
  C50      1.0000 0.24300  0.91630  0.72260  Biso   1.000  C
  H34      1.0000 0.30440  0.94750  0.76200  Biso   1.000  H
  C51      1.0000 0.15050  0.96040  0.67670  Biso   1.000  C
  N13      1.0000 0.85080  0.80770  0.79760  Biso   1.000  N
  C52      1.0000 0.74840  0.83560  0.75120  Biso   1.000  C
  H35      1.0000 0.67950  0.79220  0.72560  Biso   1.000  H
  Co3      1.0000 0.10718  0.62560  0.65307  Biso   1.000  Co
  Co4      1.0000 0.86111  0.66168  0.79390  Biso   1.000  Co
  O11      1.0000 0.90970  0.62160  0.59870  Biso   1.000  O
  O12      1.0000 0.05920  0.67690  0.85020  Biso   1.000  O
  O13      1.0000 0.18740  0.60140  0.56020  Biso   1.000  O
  O14      1.0000 0.64640  0.65500  0.78800  Biso   1.000  O
  O15      1.0000 0.32340  0.62120  0.66300  Biso   1.000  O
  O16      1.0000 0.78280  0.66560  0.89140  Biso   1.000  O
  O17      1.0000 0.82970  0.65600  0.69120  Biso   1.000  O
  N14      1.0000 0.86400  0.51660  0.78320  Biso   1.000  N
  C53      1.0000 0.41150  0.66120  0.83870  Biso   1.000  C
  H36      1.0000 0.39970  0.65610  0.79110  Biso   1.000  H
  N15      1.0000 0.08900  0.48130  0.65530  Biso   1.000  N
  C54      1.0000 0.55760  0.62290  0.61140  Biso   1.000  C
  H37      1.0000 0.57060  0.62620  0.65890  Biso   1.000  H
  C55      1.0000 0.67010  0.62700  0.58190  Biso   1.000  C
  C56      1.0000 0.42650  0.61390  0.56770  Biso   1.000  C
  O18      1.0000 0.48700  0.62170  0.40020  Biso   1.000  O
  C57      1.0000 0.81360  0.63530  0.62740  Biso   1.000  C
  C58      1.0000 0.15610  0.66700  0.82080  Biso   1.000  C
  C59      1.0000 0.29610  0.66730  0.86740  Biso   1.000  C
  O19      1.0000 0.47470  0.66760  0.04990  Biso   1.000  O
  O20      1.0000 0.14220  0.65880  0.75780  Biso   1.000  O
  C60      1.0000 0.30460  0.61180  0.59780  Biso   1.000  C
  C61      1.0000 0.44410  0.66760  0.98020  Biso   1.000  C
  C62      1.0000 0.65030  0.62490  0.51100  Biso   1.000  C
  H38      1.0000 0.72540  0.62740  0.49200  Biso   1.000  H
  C63      1.0000 0.40690  0.61200  0.49800  Biso   1.000  C
  H39      1.0000 0.31820  0.60600  0.46980  Biso   1.000  H
  C64      1.0000 0.31550  0.67100  0.93840  Biso   1.000  C
  H40      1.0000 0.24060  0.67590  0.95780  Biso   1.000  H
  C65      1.0000 0.54050  0.66290  0.88120  Biso   1.000  C
  C66      1.0000 0.36460  0.66910  0.08340  Biso   1.000  C
  H41      1.0000 0.31920  0.72560  0.08000  Biso   1.000  H
  H42      1.0000 0.29780  0.61830  0.06170  Biso   1.000  H
  C67      1.0000 0.66480  0.65990  0.85180  Biso   1.000  C
  C68      1.0000 0.92440  0.47250  0.83320  Biso   1.000  C
  H43      1.0000 0.97230  0.50680  0.87510  Biso   1.000  H
  C69      1.0000 0.84340  0.22610  0.74890  Biso   1.000  C
  C70      1.0000 0.13080  0.20740  0.69570  Biso   1.000  C
  N16      1.0000 0.18540  0.10110  0.75700  Biso   1.000  N
  C71      1.0000 0.51780  0.61900  0.46860  Biso   1.000  C
  C72      1.0000 0.83890  0.98900  0.77580  Biso   1.000  C
  C73      1.0000 0.79900  0.46510  0.72260  Biso   1.000  C
  H44      1.0000 0.75670  0.49410  0.68610  Biso   1.000  H
  C74      1.0000 0.83620  0.08030  0.75460  Biso   1.000  C
  C75      1.0000 0.42420  0.66170  0.15760  Biso   1.000  C
  C76      1.0000 0.53800  0.64580  0.29570  Biso   1.000  C
  C77      1.0000 0.46410  0.73920  0.20580  Biso   1.000  C
  H45      1.0000 0.45470  0.79660  0.19240  Biso   1.000  H
  C78      1.0000 0.44320  0.57600  0.17710  Biso   1.000  C
  H46      1.0000 0.41630  0.52350  0.14420  Biso   1.000  H
  C79      1.0000 0.55910  0.66690  0.95290  Biso   1.000  C
  H47      1.0000 0.64670  0.66900  0.98180  Biso   1.000  H
  C80      1.0000 0.05980  0.92120  0.62920  Biso   1.000  C
  H48      1.0000 0.99510  0.95380  0.60310  Biso   1.000  H
  C81      1.0000 0.85450  0.32510  0.76670  Biso   1.000  C
  N17      1.0000 0.16830  0.18090  0.74920  Biso   1.000  N
  C82      1.0000 0.59850  0.63740  0.36920  Biso   1.000  C
  H49      1.0000 0.65280  0.69310  0.39320  Biso   1.000  H
  H50      1.0000 0.65730  0.58680  0.37180  Biso   1.000  H
  C83      1.0000 0.51980  0.73180  0.27620  Biso   1.000  C
  H51      1.0000 0.54420  0.78420  0.30930  Biso   1.000  H
  C84      1.0000 0.79280  0.37160  0.71280  Biso   1.000  C
  H52      1.0000 0.74740  0.33850  0.67000  Biso   1.000  H
  C85      1.0000 0.94650  0.96520  0.82730  Biso   1.000  C
  H53      1.0000 0.01380  0.00790  0.85540  Biso   1.000  H
  N18      1.0000 0.81060  0.18280  0.68600  Biso   1.000  N
  C86      1.0000 0.04890  0.31180  0.61700  Biso   1.000  C
  H54      1.0000 0.01610  0.26050  0.58350  Biso   1.000  H
  C87      1.0000 0.73810  0.92350  0.73880  Biso   1.000  C
  H55      1.0000 0.66410  0.93880  0.70590  Biso   1.000  H
  C88      1.0000 0.15430  0.06540  0.69490  Biso   1.000  C
  C89      1.0000 0.11560  0.30820  0.68200  Biso   1.000  C
  C90      1.0000 0.03100  0.42170  0.60230  Biso   1.000  C
  H56      1.0000 0.98410  0.43690  0.56020  Biso   1.000  H
  N19      1.0000 0.80650  0.09140  0.68950  Biso   1.000  N
  C91      1.0000 0.94460  0.87150  0.83310  Biso   1.000  C
  H57      1.0000 0.01700  0.85320  0.86530  Biso   1.000  H
  C92      1.0000 0.92060  0.37780  0.82690  Biso   1.000  C
  H58      1.0000 0.96380  0.35060  0.86430  Biso   1.000  H
  C93      1.0000 0.05500  0.81410  0.61300  Biso   1.000  C
  H59      1.0000 0.99530  0.78360  0.57250  Biso   1.000  H
  C94      1.0000 0.50190  0.56860  0.24530  Biso   1.000  C
  H60      1.0000 0.51750  0.51100  0.25750  Biso   1.000  H
  N20      1.0000 0.86060  0.16280  0.79420  Biso   1.000  N
  N21      1.0000 0.11030  0.12600  0.64990  Biso   1.000  N
  N22      1.0000 0.88580  0.18310  0.86550  Biso   1.000  N
  H61      1.0000 0.88690  0.13970  0.88960  Biso   1.000  H
  H62      1.0000 0.90030  0.23910  0.88580  Biso   1.000  H
  C95      1.0000 0.16530  0.37100  0.73080  Biso   1.000  C
  H63      1.0000 0.21050  0.36020  0.77450  Biso   1.000  H
  C96      1.0000 0.14920  0.45220  0.71580  Biso   1.000  C
  H64      1.0000 0.18490  0.49910  0.75260  Biso   1.000  H
