data_image0
_cell_length_a       12.643
_cell_length_b       13.944
_cell_length_c       15.443
_cell_angle_alpha    59.647
_cell_angle_beta     83.262
_cell_angle_gamma    86.876

_symmetry_space_group_name_H-M    "P 1"
_symmetry_int_tables_number       1

loop_
  _symmetry_equiv_pos_as_xyz
  'x, y, z'

loop_
  _atom_site_label
  _atom_site_occupancy
  _atom_site_fract_x
  _atom_site_fract_y
  _atom_site_fract_z
  _atom_site_thermal_displace_type
  _atom_site_B_iso_or_equiv
  _atom_site_type_symbol
  La1      1.0000 0.06831  0.09328  0.25108  Biso   1.000  La
  La2      1.0000 0.06766  0.84634  0.53337  Biso   1.000  La
  Cu1      1.0000 0.45225  0.58724  0.22545  Biso   1.000  Cu
  O1       1.0000 0.19100  0.95580  0.21150  Biso   1.000  O
  O2       1.0000 0.18820  0.91850  0.36800  Biso   1.000  O
  O3       1.0000 0.85990  0.32200  0.48630  Biso   1.000  O
  O4       1.0000 0.83580  0.32950  0.34450  Biso   1.000  O
  O5       1.0000 0.80560  0.78330  0.91150  Biso   1.000  O
  O6       1.0000 0.73120  0.84990  0.76990  Biso   1.000  O
  O7       1.0000 0.08000  0.30140  0.37890  Biso   1.000  O
  O8       1.0000 0.05880  0.27160  0.25410  Biso   1.000  O
  O9       1.0000 0.08210  0.05700  0.42540  Biso   1.000  O
  O10      1.0000 0.96660  0.89660  0.38890  Biso   1.000  O
  O11      1.0000 0.94350  0.96730  0.22960  Biso   1.000  O
  O12      1.0000 0.25130  0.89930  0.56580  Biso   1.000  O
  O13      1.0000 0.11460  0.88110  0.67470  Biso   1.000  O
  N1       1.0000 0.41050  0.68220  0.29100  Biso   1.000  N
  N2       1.0000 0.56470  0.53320  0.32490  Biso   1.000  N
  N3       1.0000 0.50140  0.65250  0.07480  Biso   1.000  N
  N4       1.0000 0.34660  0.50780  0.19260  Biso   1.000  N
  C1       1.0000 0.32770  0.75210  0.27180  Biso   1.000  C
  C2       1.0000 0.31120  0.81760  0.31710  Biso   1.000  C
  C3       1.0000 0.37950  0.80460  0.38570  Biso   1.000  C
  C4       1.0000 0.46430  0.73270  0.40520  Biso   1.000  C
  C5       1.0000 0.47870  0.67300  0.35500  Biso   1.000  C
  C6       1.0000 0.56770  0.59450  0.37010  Biso   1.000  C
  C7       1.0000 0.65010  0.58390  0.42680  Biso   1.000  C
  C8       1.0000 0.72930  0.50710  0.43780  Biso   1.000  C
  C9       1.0000 0.72670  0.44410  0.39150  Biso   1.000  C
  C10      1.0000 0.64180  0.45800  0.33540  Biso   1.000  C
  C11      1.0000 0.25300  0.74840  0.20620  Biso   1.000  C
  C12      1.0000 0.22440  0.90160  0.29660  Biso   1.000  C
  C13      1.0000 0.62660  0.39250  0.28560  Biso   1.000  C
  C14      1.0000 0.81340  0.36050  0.40830  Biso   1.000  C
  C15      1.0000 0.59180  0.71110  0.02370  Biso   1.000  C
  C16      1.0000 0.62260  0.73780  0.92320  Biso   1.000  C
  C17      1.0000 0.55340  0.71050  0.87460  Biso   1.000  C
  C18      1.0000 0.46080  0.65260  0.92610  Biso   1.000  C
  C19      1.0000 0.43800  0.62260  0.02810  Biso   1.000  C
  C20      1.0000 0.34560  0.55170  0.09170  Biso   1.000  C
  C21      1.0000 0.26390  0.52760  0.05270  Biso   1.000  C
  C22      1.0000 0.18530  0.45330  0.11900  Biso   1.000  C
  C23      1.0000 0.18790  0.40400  0.22300  Biso   1.000  C
  C24      1.0000 0.27080  0.43460  0.25800  Biso   1.000  C
  C25      1.0000 0.65340  0.74340  0.08300  Biso   1.000  C
  C26      1.0000 0.72590  0.79460  0.86510  Biso   1.000  C
  C27      1.0000 0.28270  0.38820  0.36660  Biso   1.000  C
  C28      1.0000 0.10350  0.32020  0.29090  Biso   1.000  C
  C29      1.0000 0.84880  0.79990  0.35000  Biso   1.000  C
  C30      1.0000 0.92440  0.89210  0.32030  Biso   1.000  C
  C31      1.0000 0.21400  0.89500  0.64650  Biso   1.000  C
  C32      1.0000 0.28530  0.90150  0.71450  Biso   1.000  C
  H1       1.0000 0.36800  0.84560  0.41980  Biso   1.000  H
  H2       1.0000 0.51190  0.72410  0.45190  Biso   1.000  H
  H3       1.0000 0.65190  0.62830  0.45720  Biso   1.000  H
  H4       1.0000 0.78560  0.49750  0.47710  Biso   1.000  H
  H5       1.0000 0.27630  0.80160  0.13540  Biso   1.000  H
  H6       1.0000 0.18120  0.76780  0.22390  Biso   1.000  H
  H7       1.0000 0.25200  0.67340  0.21580  Biso   1.000  H
  H8       1.0000 0.58510  0.32530  0.33310  Biso   1.000  H
  H9       1.0000 0.69620  0.37160  0.26510  Biso   1.000  H
  H10      1.0000 0.58850  0.43760  0.22610  Biso   1.000  H
  H11      1.0000 0.57050  0.73210  0.80550  Biso   1.000  H
  H12      1.0000 0.41350  0.63340  0.89380  Biso   1.000  H
  H13      1.0000 0.26220  0.56140  0.98180  Biso   1.000  H
  H14      1.0000 0.12910  0.43570  0.09360  Biso   1.000  H
  H15      1.0000 0.62880  0.81580  0.07310  Biso   1.000  H
  H16      1.0000 0.72940  0.74800  0.05960  Biso   1.000  H
  H17      1.0000 0.64210  0.68730  0.15480  Biso   1.000  H
  H18      1.0000 0.32550  0.32040  0.39100  Biso   1.000  H
  H19      1.0000 0.21220  0.37050  0.40520  Biso   1.000  H
  H20      1.0000 0.31820  0.44300  0.37540  Biso   1.000  H
  H21      1.0000 0.88810  0.73650  0.35180  Biso   1.000  H
  H22      1.0000 0.79650  0.82510  0.30090  Biso   1.000  H
  H23      1.0000 0.81200  0.77750  0.41700  Biso   1.000  H
  H24      1.0000 0.30740  0.82650  0.76330  Biso   1.000  H
  H25      1.0000 0.24670  0.93590  0.75070  Biso   1.000  H
  H26      1.0000 0.34840  0.94640  0.67410  Biso   1.000  H
  La3      1.0000 0.93169  0.90672  0.74892  Biso   1.000  La
  La4      1.0000 0.93234  0.15366  0.46663  Biso   1.000  La
  Cu2      1.0000 0.54775  0.41276  0.77455  Biso   1.000  Cu
  O14      1.0000 0.80900  0.04420  0.78850  Biso   1.000  O
  O15      1.0000 0.81180  0.08150  0.63200  Biso   1.000  O
  O16      1.0000 0.14010  0.67800  0.51370  Biso   1.000  O
  O17      1.0000 0.16420  0.67050  0.65550  Biso   1.000  O
  O18      1.0000 0.19440  0.21670  0.08850  Biso   1.000  O
  O19      1.0000 0.26880  0.15010  0.23010  Biso   1.000  O
  O20      1.0000 0.92000  0.69860  0.62110  Biso   1.000  O
  O21      1.0000 0.94120  0.72840  0.74590  Biso   1.000  O
  O22      1.0000 0.91790  0.94300  0.57460  Biso   1.000  O
  O23      1.0000 0.03340  0.10340  0.61110  Biso   1.000  O
  O24      1.0000 0.05650  0.03270  0.77040  Biso   1.000  O
  O25      1.0000 0.74870  0.10070  0.43420  Biso   1.000  O
  O26      1.0000 0.88540  0.11890  0.32530  Biso   1.000  O
  N5       1.0000 0.58950  0.31780  0.70900  Biso   1.000  N
  N6       1.0000 0.43530  0.46680  0.67510  Biso   1.000  N
  N7       1.0000 0.49860  0.34750  0.92520  Biso   1.000  N
  N8       1.0000 0.65340  0.49220  0.80740  Biso   1.000  N
  C33      1.0000 0.67230  0.24790  0.72820  Biso   1.000  C
  C34      1.0000 0.68880  0.18240  0.68290  Biso   1.000  C
  C35      1.0000 0.62050  0.19540  0.61430  Biso   1.000  C
  C36      1.0000 0.53570  0.26730  0.59480  Biso   1.000  C
  C37      1.0000 0.52130  0.32700  0.64500  Biso   1.000  C
  C38      1.0000 0.43230  0.40550  0.62990  Biso   1.000  C
  C39      1.0000 0.34990  0.41610  0.57320  Biso   1.000  C
  C40      1.0000 0.27070  0.49290  0.56220  Biso   1.000  C
  C41      1.0000 0.27330  0.55590  0.60850  Biso   1.000  C
  C42      1.0000 0.35820  0.54200  0.66460  Biso   1.000  C
  C43      1.0000 0.74700  0.25160  0.79380  Biso   1.000  C
  C44      1.0000 0.77560  0.09840  0.70340  Biso   1.000  C
  C45      1.0000 0.37340  0.60750  0.71440  Biso   1.000  C
  C46      1.0000 0.18660  0.63950  0.59170  Biso   1.000  C
  C47      1.0000 0.40820  0.28890  0.97630  Biso   1.000  C
  C48      1.0000 0.37740  0.26220  0.07680  Biso   1.000  C
  C49      1.0000 0.44660  0.28950  0.12540  Biso   1.000  C
  C50      1.0000 0.53920  0.34740  0.07390  Biso   1.000  C
  C51      1.0000 0.56200  0.37740  0.97190  Biso   1.000  C
  C52      1.0000 0.65440  0.44830  0.90830  Biso   1.000  C
  C53      1.0000 0.73610  0.47240  0.94730  Biso   1.000  C
  C54      1.0000 0.81470  0.54670  0.88100  Biso   1.000  C
  C55      1.0000 0.81210  0.59600  0.77700  Biso   1.000  C
  C56      1.0000 0.72920  0.56540  0.74200  Biso   1.000  C
  C57      1.0000 0.34660  0.25660  0.91700  Biso   1.000  C
  C58      1.0000 0.27410  0.20540  0.13490  Biso   1.000  C
  C59      1.0000 0.71730  0.61180  0.63340  Biso   1.000  C
  C60      1.0000 0.89650  0.67980  0.70910  Biso   1.000  C
  C61      1.0000 0.15120  0.20010  0.65000  Biso   1.000  C
  C62      1.0000 0.07560  0.10790  0.67970  Biso   1.000  C
  C63      1.0000 0.78600  0.10500  0.35350  Biso   1.000  C
  C64      1.0000 0.71470  0.09850  0.28550  Biso   1.000  C
  H27      1.0000 0.63200  0.15440  0.58020  Biso   1.000  H
  H28      1.0000 0.48810  0.27590  0.54810  Biso   1.000  H
  H29      1.0000 0.34810  0.37170  0.54280  Biso   1.000  H
  H30      1.0000 0.21440  0.50250  0.52290  Biso   1.000  H
  H31      1.0000 0.72370  0.19840  0.86460  Biso   1.000  H
  H32      1.0000 0.81880  0.23220  0.77610  Biso   1.000  H
  H33      1.0000 0.74800  0.32660  0.78420  Biso   1.000  H
  H34      1.0000 0.41490  0.67470  0.66690  Biso   1.000  H
  H35      1.0000 0.30380  0.62840  0.73490  Biso   1.000  H
  H36      1.0000 0.41150  0.56240  0.77390  Biso   1.000  H
  H37      1.0000 0.42950  0.26790  0.19450  Biso   1.000  H
  H38      1.0000 0.58650  0.36660  0.10620  Biso   1.000  H
  H39      1.0000 0.73780  0.43860  0.01820  Biso   1.000  H
  H40      1.0000 0.87090  0.56430  0.90640  Biso   1.000  H
  H41      1.0000 0.37120  0.18420  0.92690  Biso   1.000  H
  H42      1.0000 0.27060  0.25200  0.94040  Biso   1.000  H
  H43      1.0000 0.35790  0.31270  0.84520  Biso   1.000  H
  H44      1.0000 0.67450  0.67960  0.60900  Biso   1.000  H
  H45      1.0000 0.78780  0.62950  0.59480  Biso   1.000  H
  H46      1.0000 0.68180  0.55700  0.62460  Biso   1.000  H
  H47      1.0000 0.11190  0.26350  0.64820  Biso   1.000  H
  H48      1.0000 0.20350  0.17490  0.69910  Biso   1.000  H
  H49      1.0000 0.18800  0.22250  0.58300  Biso   1.000  H
  H50      1.0000 0.69260  0.17350  0.23670  Biso   1.000  H
  H51      1.0000 0.75330  0.06410  0.24930  Biso   1.000  H
  H52      1.0000 0.65160  0.05360  0.32590  Biso   1.000  H
