data_image0
_cell_length_a       25.6191
_cell_length_b       25.6191
_cell_length_c       6.8042
_cell_angle_alpha    90
_cell_angle_beta     90
_cell_angle_gamma    120

_symmetry_space_group_name_H-M    "P 1"
_symmetry_int_tables_number       1

loop_
  _symmetry_equiv_pos_as_xyz
  'x, y, z'

loop_
  _atom_site_label
  _atom_site_occupancy
  _atom_site_fract_x
  _atom_site_fract_y
  _atom_site_fract_z
  _atom_site_thermal_displace_type
  _atom_site_B_iso_or_equiv
  _atom_site_type_symbol
  Fe1      1.0000 0.38968  0.35116  0.15400  Biso   1.000  Fe
  O1       1.0000 0.32222  0.29670  0.35770  Biso   1.000  O
  O2       1.0000 0.30050  0.22950  0.59580  Biso   1.000  O
  O3       1.0000 0.35534  0.27360  0.99620  Biso   1.000  O
  C1       1.0000 0.31670  0.24730  0.41560  Biso   1.000  C
  C2       1.0000 0.32650  0.20510  0.29350  Biso   1.000  C
  C3       1.0000 0.34310  0.22190  0.10110  Biso   1.000  C
  C4       1.0000 0.34880  0.18150  0.96150  Biso   1.000  C
  H1       1.0000 0.36170  0.19070  0.83400  Biso   1.000  H
  Fe2      1.0000 0.05635  0.68449  0.48733  Biso   1.000  Fe
  O4       1.0000 0.98889  0.63003  0.69103  Biso   1.000  O
  O5       1.0000 0.96717  0.56283  0.92913  Biso   1.000  O
  O6       1.0000 0.02201  0.60693  0.32953  Biso   1.000  O
  C5       1.0000 0.98337  0.58063  0.74893  Biso   1.000  C
  C6       1.0000 0.99317  0.53843  0.62683  Biso   1.000  C
  C7       1.0000 0.00977  0.55523  0.43443  Biso   1.000  C
  C8       1.0000 0.01547  0.51483  0.29483  Biso   1.000  C
  H2       1.0000 0.02837  0.52403  0.16733  Biso   1.000  H
  Fe3      1.0000 0.72301  0.01783  0.82067  Biso   1.000  Fe
  O7       1.0000 0.65555  0.96337  0.02437  Biso   1.000  O
  O8       1.0000 0.63383  0.89617  0.26247  Biso   1.000  O
  O9       1.0000 0.68867  0.94027  0.66287  Biso   1.000  O
  C9       1.0000 0.65003  0.91397  0.08227  Biso   1.000  C
  C10      1.0000 0.65983  0.87177  0.96017  Biso   1.000  C
  C11      1.0000 0.67643  0.88857  0.76777  Biso   1.000  C
  C12      1.0000 0.68213  0.84817  0.62817  Biso   1.000  C
  H3       1.0000 0.69503  0.85737  0.50067  Biso   1.000  H
  Fe4      1.0000 0.64884  0.03852  0.15400  Biso   1.000  Fe
  O10      1.0000 0.70330  0.02552  0.35770  Biso   1.000  O
  O11      1.0000 0.77050  0.07100  0.59580  Biso   1.000  O
  O12      1.0000 0.72640  0.08174  0.99620  Biso   1.000  O
  C13      1.0000 0.75270  0.06940  0.41560  Biso   1.000  C
  C14      1.0000 0.79490  0.12140  0.29350  Biso   1.000  C
  C15      1.0000 0.77810  0.12120  0.10110  Biso   1.000  C
  C16      1.0000 0.81850  0.16730  0.96150  Biso   1.000  C
  H4       1.0000 0.80930  0.17100  0.83400  Biso   1.000  H
  Fe5      1.0000 0.31551  0.37185  0.48733  Biso   1.000  Fe
  O13      1.0000 0.36997  0.35885  0.69103  Biso   1.000  O
  O14      1.0000 0.43717  0.40433  0.92913  Biso   1.000  O
  O15      1.0000 0.39307  0.41507  0.32953  Biso   1.000  O
  C17      1.0000 0.41937  0.40273  0.74893  Biso   1.000  C
  C18      1.0000 0.46157  0.45473  0.62683  Biso   1.000  C
  C19      1.0000 0.44477  0.45453  0.43443  Biso   1.000  C
  C20      1.0000 0.48517  0.50063  0.29483  Biso   1.000  C
  H5       1.0000 0.47597  0.50433  0.16733  Biso   1.000  H
  Fe6      1.0000 0.98217  0.70519  0.82067  Biso   1.000  Fe
  O16      1.0000 0.03663  0.69219  0.02437  Biso   1.000  O
  O17      1.0000 0.10383  0.73767  0.26247  Biso   1.000  O
  O18      1.0000 0.05973  0.74841  0.66287  Biso   1.000  O
  C21      1.0000 0.08603  0.73607  0.08227  Biso   1.000  C
  C22      1.0000 0.12823  0.78807  0.96017  Biso   1.000  C
  C23      1.0000 0.11143  0.78787  0.76777  Biso   1.000  C
  C24      1.0000 0.15183  0.83397  0.62817  Biso   1.000  C
  H6       1.0000 0.14263  0.83767  0.50067  Biso   1.000  H
  Fe7      1.0000 0.96148  0.61032  0.15400  Biso   1.000  Fe
  O19      1.0000 0.97448  0.67778  0.35770  Biso   1.000  O
  O20      1.0000 0.92900  0.69950  0.59580  Biso   1.000  O
  O21      1.0000 0.91826  0.64466  0.99620  Biso   1.000  O
  C25      1.0000 0.93060  0.68330  0.41560  Biso   1.000  C
  C26      1.0000 0.87860  0.67350  0.29350  Biso   1.000  C
  C27      1.0000 0.87880  0.65690  0.10110  Biso   1.000  C
  C28      1.0000 0.83270  0.65120  0.96150  Biso   1.000  C
  H7       1.0000 0.82900  0.63830  0.83400  Biso   1.000  H
  Fe8      1.0000 0.62815  0.94365  0.48733  Biso   1.000  Fe
  O22      1.0000 0.64115  0.01111  0.69103  Biso   1.000  O
  O23      1.0000 0.59567  0.03283  0.92913  Biso   1.000  O
  O24      1.0000 0.58493  0.97799  0.32953  Biso   1.000  O
  C29      1.0000 0.59727  0.01663  0.74893  Biso   1.000  C
  C30      1.0000 0.54527  0.00683  0.62683  Biso   1.000  C
  C31      1.0000 0.54547  0.99023  0.43443  Biso   1.000  C
  C32      1.0000 0.49937  0.98453  0.29483  Biso   1.000  C
  H8       1.0000 0.49567  0.97163  0.16733  Biso   1.000  H
  Fe9      1.0000 0.29481  0.27699  0.82067  Biso   1.000  Fe
  O25      1.0000 0.30781  0.34445  0.02437  Biso   1.000  O
  O26      1.0000 0.26233  0.36617  0.26247  Biso   1.000  O
  O27      1.0000 0.25159  0.31133  0.66287  Biso   1.000  O
  C33      1.0000 0.26393  0.34997  0.08227  Biso   1.000  C
  C34      1.0000 0.21193  0.34017  0.96017  Biso   1.000  C
  C35      1.0000 0.21213  0.32357  0.76777  Biso   1.000  C
  C36      1.0000 0.16603  0.31787  0.62817  Biso   1.000  C
  H9       1.0000 0.16233  0.30497  0.50067  Biso   1.000  H
  Fe10     1.0000 0.61032  0.64884  0.84600  Biso   1.000  Fe
  O28      1.0000 0.67778  0.70330  0.64230  Biso   1.000  O
  O29      1.0000 0.69950  0.77050  0.40420  Biso   1.000  O
  O30      1.0000 0.64466  0.72640  0.00380  Biso   1.000  O
  C37      1.0000 0.68330  0.75270  0.58440  Biso   1.000  C
  C38      1.0000 0.67350  0.79490  0.70650  Biso   1.000  C
  C39      1.0000 0.65690  0.77810  0.89890  Biso   1.000  C
  C40      1.0000 0.65120  0.81850  0.03850  Biso   1.000  C
  H10      1.0000 0.63830  0.80930  0.16600  Biso   1.000  H
  Fe11     1.0000 0.27699  0.98217  0.17933  Biso   1.000  Fe
  O31      1.0000 0.34445  0.03663  0.97563  Biso   1.000  O
  O32      1.0000 0.36617  0.10383  0.73753  Biso   1.000  O
  O33      1.0000 0.31133  0.05973  0.33713  Biso   1.000  O
  C41      1.0000 0.34997  0.08603  0.91773  Biso   1.000  C
  C42      1.0000 0.34017  0.12823  0.03983  Biso   1.000  C
  C43      1.0000 0.32357  0.11143  0.23223  Biso   1.000  C
  C44      1.0000 0.31787  0.15183  0.37183  Biso   1.000  C
  H11      1.0000 0.30497  0.14263  0.49933  Biso   1.000  H
  Fe12     1.0000 0.94365  0.31551  0.51267  Biso   1.000  Fe
  O34      1.0000 0.01111  0.36997  0.30897  Biso   1.000  O
  O35      1.0000 0.03283  0.43717  0.07087  Biso   1.000  O
  O36      1.0000 0.97799  0.39307  0.67047  Biso   1.000  O
  C45      1.0000 0.01663  0.41937  0.25107  Biso   1.000  C
  C46      1.0000 0.00683  0.46157  0.37317  Biso   1.000  C
  C47      1.0000 0.99023  0.44477  0.56557  Biso   1.000  C
  C48      1.0000 0.98453  0.48517  0.70517  Biso   1.000  C
  H12      1.0000 0.97163  0.47597  0.83267  Biso   1.000  H
  Fe13     1.0000 0.35116  0.96148  0.84600  Biso   1.000  Fe
  O37      1.0000 0.29670  0.97448  0.64230  Biso   1.000  O
  O38      1.0000 0.22950  0.92900  0.40420  Biso   1.000  O
  O39      1.0000 0.27360  0.91826  0.00380  Biso   1.000  O
  C49      1.0000 0.24730  0.93060  0.58440  Biso   1.000  C
  C50      1.0000 0.20510  0.87860  0.70650  Biso   1.000  C
  C51      1.0000 0.22190  0.87880  0.89890  Biso   1.000  C
  C52      1.0000 0.18150  0.83270  0.03850  Biso   1.000  C
  H13      1.0000 0.19070  0.82900  0.16600  Biso   1.000  H
  Fe14     1.0000 0.01783  0.29481  0.17933  Biso   1.000  Fe
  O40      1.0000 0.96337  0.30781  0.97563  Biso   1.000  O
  O41      1.0000 0.89617  0.26233  0.73753  Biso   1.000  O
  O42      1.0000 0.94027  0.25159  0.33713  Biso   1.000  O
  C53      1.0000 0.91397  0.26393  0.91773  Biso   1.000  C
  C54      1.0000 0.87177  0.21193  0.03983  Biso   1.000  C
  C55      1.0000 0.88857  0.21213  0.23223  Biso   1.000  C
  C56      1.0000 0.84817  0.16603  0.37183  Biso   1.000  C
  H14      1.0000 0.85737  0.16233  0.49933  Biso   1.000  H
  Fe15     1.0000 0.68449  0.62815  0.51267  Biso   1.000  Fe
  O43      1.0000 0.63003  0.64115  0.30897  Biso   1.000  O
  O44      1.0000 0.56283  0.59567  0.07087  Biso   1.000  O
  O45      1.0000 0.60693  0.58493  0.67047  Biso   1.000  O
  C57      1.0000 0.58063  0.59727  0.25107  Biso   1.000  C
  C58      1.0000 0.53843  0.54527  0.37317  Biso   1.000  C
  C59      1.0000 0.55523  0.54547  0.56557  Biso   1.000  C
  C60      1.0000 0.51483  0.49937  0.70517  Biso   1.000  C
  H15      1.0000 0.52403  0.49567  0.83267  Biso   1.000  H
  Fe16     1.0000 0.03852  0.38968  0.84600  Biso   1.000  Fe
  O46      1.0000 0.02552  0.32222  0.64230  Biso   1.000  O
  O47      1.0000 0.07100  0.30050  0.40420  Biso   1.000  O
  O48      1.0000 0.08174  0.35534  0.00380  Biso   1.000  O
  C61      1.0000 0.06940  0.31670  0.58440  Biso   1.000  C
  C62      1.0000 0.12140  0.32650  0.70650  Biso   1.000  C
  C63      1.0000 0.12120  0.34310  0.89890  Biso   1.000  C
  C64      1.0000 0.16730  0.34880  0.03850  Biso   1.000  C
  H16      1.0000 0.17100  0.36170  0.16600  Biso   1.000  H
  Fe17     1.0000 0.70519  0.72301  0.17933  Biso   1.000  Fe
  O49      1.0000 0.69219  0.65555  0.97563  Biso   1.000  O
  O50      1.0000 0.73767  0.63383  0.73753  Biso   1.000  O
  O51      1.0000 0.74841  0.68867  0.33713  Biso   1.000  O
  C65      1.0000 0.73607  0.65003  0.91773  Biso   1.000  C
  C66      1.0000 0.78807  0.65983  0.03983  Biso   1.000  C
  C67      1.0000 0.78787  0.67643  0.23223  Biso   1.000  C
  C68      1.0000 0.83397  0.68213  0.37183  Biso   1.000  C
  H17      1.0000 0.83767  0.69503  0.49933  Biso   1.000  H
  Fe18     1.0000 0.37185  0.05635  0.51267  Biso   1.000  Fe
  O52      1.0000 0.35885  0.98889  0.30897  Biso   1.000  O
  O53      1.0000 0.40433  0.96717  0.07087  Biso   1.000  O
  O54      1.0000 0.41507  0.02201  0.67047  Biso   1.000  O
  C69      1.0000 0.40273  0.98337  0.25107  Biso   1.000  C
  C70      1.0000 0.45473  0.99317  0.37317  Biso   1.000  C
  C71      1.0000 0.45453  0.00977  0.56557  Biso   1.000  C
  C72      1.0000 0.50063  0.01547  0.70517  Biso   1.000  C
  H18      1.0000 0.50433  0.02837  0.83267  Biso   1.000  H
