data_image0
_cell_length_a       25.6125
_cell_length_b       25.6125
_cell_length_c       6.8036
_cell_angle_alpha    90
_cell_angle_beta     90
_cell_angle_gamma    120

_symmetry_space_group_name_H-M    "P 1"
_symmetry_int_tables_number       1

loop_
  _symmetry_equiv_pos_as_xyz
  'x, y, z'

loop_
  _atom_site_label
  _atom_site_occupancy
  _atom_site_fract_x
  _atom_site_fract_y
  _atom_site_fract_z
  _atom_site_thermal_displace_type
  _atom_site_B_iso_or_equiv
  _atom_site_type_symbol
  Fe1      1.0000 0.38929  0.35113  0.15399  Biso   1.000  Fe
  O1       1.0000 0.32300  0.29715  0.35550  Biso   1.000  O
  O2       1.0000 0.30090  0.22839  0.59400  Biso   1.000  O
  O3       1.0000 0.35534  0.27280  0.99890  Biso   1.000  O
  C1       1.0000 0.31640  0.24670  0.41510  Biso   1.000  C
  C2       1.0000 0.32600  0.20520  0.28810  Biso   1.000  C
  C3       1.0000 0.34310  0.22020  0.09220  Biso   1.000  C
  C4       1.0000 0.34920  0.17950  0.95650  Biso   1.000  C
  Fe2      1.0000 0.05596  0.68446  0.48732  Biso   1.000  Fe
  O4       1.0000 0.98967  0.63048  0.68883  Biso   1.000  O
  O5       1.0000 0.96757  0.56172  0.92733  Biso   1.000  O
  O6       1.0000 0.02201  0.60613  0.33223  Biso   1.000  O
  C5       1.0000 0.98307  0.58003  0.74843  Biso   1.000  C
  C6       1.0000 0.99267  0.53853  0.62143  Biso   1.000  C
  C7       1.0000 0.00977  0.55353  0.42553  Biso   1.000  C
  C8       1.0000 0.01587  0.51283  0.28983  Biso   1.000  C
  Fe3      1.0000 0.72262  0.01780  0.82066  Biso   1.000  Fe
  O7       1.0000 0.65633  0.96382  0.02217  Biso   1.000  O
  O8       1.0000 0.63423  0.89506  0.26067  Biso   1.000  O
  O9       1.0000 0.68867  0.93947  0.66557  Biso   1.000  O
  C9       1.0000 0.64973  0.91337  0.08177  Biso   1.000  C
  C10      1.0000 0.65933  0.87187  0.95477  Biso   1.000  C
  C11      1.0000 0.67643  0.88687  0.75887  Biso   1.000  C
  C12      1.0000 0.68253  0.84617  0.62317  Biso   1.000  C
  Fe4      1.0000 0.64887  0.03816  0.15399  Biso   1.000  Fe
  O10      1.0000 0.70285  0.02585  0.35550  Biso   1.000  O
  O11      1.0000 0.77161  0.07251  0.59400  Biso   1.000  O
  O12      1.0000 0.72720  0.08254  0.99890  Biso   1.000  O
  C13      1.0000 0.75330  0.06970  0.41510  Biso   1.000  C
  C14      1.0000 0.79480  0.12080  0.28810  Biso   1.000  C
  C15      1.0000 0.77980  0.12290  0.09220  Biso   1.000  C
  C16      1.0000 0.82050  0.16970  0.95650  Biso   1.000  C
  Fe5      1.0000 0.31554  0.37149  0.48732  Biso   1.000  Fe
  O13      1.0000 0.36952  0.35918  0.68883  Biso   1.000  O
  O14      1.0000 0.43828  0.40584  0.92733  Biso   1.000  O
  O15      1.0000 0.39387  0.41587  0.33223  Biso   1.000  O
  C17      1.0000 0.41997  0.40303  0.74843  Biso   1.000  C
  C18      1.0000 0.46147  0.45413  0.62143  Biso   1.000  C
  C19      1.0000 0.44647  0.45623  0.42553  Biso   1.000  C
  C20      1.0000 0.48717  0.50303  0.28983  Biso   1.000  C
  Fe6      1.0000 0.98220  0.70483  0.82066  Biso   1.000  Fe
  O16      1.0000 0.03618  0.69252  0.02217  Biso   1.000  O
  O17      1.0000 0.10494  0.73918  0.26067  Biso   1.000  O
  O18      1.0000 0.06053  0.74921  0.66557  Biso   1.000  O
  C21      1.0000 0.08663  0.73637  0.08177  Biso   1.000  C
  C22      1.0000 0.12813  0.78747  0.95477  Biso   1.000  C
  C23      1.0000 0.11313  0.78957  0.75887  Biso   1.000  C
  C24      1.0000 0.15383  0.83637  0.62317  Biso   1.000  C
  Fe7      1.0000 0.96184  0.61071  0.15399  Biso   1.000  Fe
  O19      1.0000 0.97415  0.67700  0.35550  Biso   1.000  O
  O20      1.0000 0.92749  0.69910  0.59400  Biso   1.000  O
  O21      1.0000 0.91746  0.64466  0.99890  Biso   1.000  O
  C25      1.0000 0.93030  0.68360  0.41510  Biso   1.000  C
  C26      1.0000 0.87920  0.67400  0.28810  Biso   1.000  C
  C27      1.0000 0.87710  0.65690  0.09220  Biso   1.000  C
  C28      1.0000 0.83030  0.65080  0.95650  Biso   1.000  C
  Fe8      1.0000 0.62851  0.94404  0.48732  Biso   1.000  Fe
  O22      1.0000 0.64082  0.01033  0.68883  Biso   1.000  O
  O23      1.0000 0.59416  0.03243  0.92733  Biso   1.000  O
  O24      1.0000 0.58413  0.97799  0.33223  Biso   1.000  O
  C29      1.0000 0.59697  0.01693  0.74843  Biso   1.000  C
  C30      1.0000 0.54587  0.00733  0.62143  Biso   1.000  C
  C31      1.0000 0.54377  0.99023  0.42553  Biso   1.000  C
  C32      1.0000 0.49697  0.98413  0.28983  Biso   1.000  C
  Fe9      1.0000 0.29517  0.27738  0.82066  Biso   1.000  Fe
  O25      1.0000 0.30748  0.34367  0.02217  Biso   1.000  O
  O26      1.0000 0.26082  0.36577  0.26067  Biso   1.000  O
  O27      1.0000 0.25079  0.31133  0.66557  Biso   1.000  O
  C33      1.0000 0.26363  0.35027  0.08177  Biso   1.000  C
  C34      1.0000 0.21253  0.34067  0.95477  Biso   1.000  C
  C35      1.0000 0.21043  0.32357  0.75887  Biso   1.000  C
  C36      1.0000 0.16363  0.31747  0.62317  Biso   1.000  C
  Fe10     1.0000 0.61071  0.64887  0.84601  Biso   1.000  Fe
  O28      1.0000 0.67700  0.70285  0.64450  Biso   1.000  O
  O29      1.0000 0.69910  0.77161  0.40600  Biso   1.000  O
  O30      1.0000 0.64466  0.72720  0.00110  Biso   1.000  O
  C37      1.0000 0.68360  0.75330  0.58490  Biso   1.000  C
  C38      1.0000 0.67400  0.79480  0.71190  Biso   1.000  C
  C39      1.0000 0.65690  0.77980  0.90780  Biso   1.000  C
  C40      1.0000 0.65080  0.82050  0.04350  Biso   1.000  C
  Fe11     1.0000 0.27738  0.98220  0.17934  Biso   1.000  Fe
  O31      1.0000 0.34367  0.03618  0.97783  Biso   1.000  O
  O32      1.0000 0.36577  0.10494  0.73933  Biso   1.000  O
  O33      1.0000 0.31133  0.06053  0.33443  Biso   1.000  O
  C41      1.0000 0.35027  0.08663  0.91823  Biso   1.000  C
  C42      1.0000 0.34067  0.12813  0.04523  Biso   1.000  C
  C43      1.0000 0.32357  0.11313  0.24113  Biso   1.000  C
  C44      1.0000 0.31747  0.15383  0.37683  Biso   1.000  C
  Fe12     1.0000 0.94404  0.31554  0.51268  Biso   1.000  Fe
  O34      1.0000 0.01033  0.36952  0.31117  Biso   1.000  O
  O35      1.0000 0.03243  0.43828  0.07267  Biso   1.000  O
  O36      1.0000 0.97799  0.39387  0.66777  Biso   1.000  O
  C45      1.0000 0.01693  0.41997  0.25157  Biso   1.000  C
  C46      1.0000 0.00733  0.46147  0.37857  Biso   1.000  C
  C47      1.0000 0.99023  0.44647  0.57447  Biso   1.000  C
  C48      1.0000 0.98413  0.48717  0.71017  Biso   1.000  C
  Fe13     1.0000 0.35113  0.96184  0.84601  Biso   1.000  Fe
  O37      1.0000 0.29715  0.97415  0.64450  Biso   1.000  O
  O38      1.0000 0.22839  0.92749  0.40600  Biso   1.000  O
  O39      1.0000 0.27280  0.91746  0.00110  Biso   1.000  O
  C49      1.0000 0.24670  0.93030  0.58490  Biso   1.000  C
  C50      1.0000 0.20520  0.87920  0.71190  Biso   1.000  C
  C51      1.0000 0.22020  0.87710  0.90780  Biso   1.000  C
  C52      1.0000 0.17950  0.83030  0.04350  Biso   1.000  C
  Fe14     1.0000 0.01780  0.29517  0.17934  Biso   1.000  Fe
  O40      1.0000 0.96382  0.30748  0.97783  Biso   1.000  O
  O41      1.0000 0.89506  0.26082  0.73933  Biso   1.000  O
  O42      1.0000 0.93947  0.25079  0.33443  Biso   1.000  O
  C53      1.0000 0.91337  0.26363  0.91823  Biso   1.000  C
  C54      1.0000 0.87187  0.21253  0.04523  Biso   1.000  C
  C55      1.0000 0.88687  0.21043  0.24113  Biso   1.000  C
  C56      1.0000 0.84617  0.16363  0.37683  Biso   1.000  C
  Fe15     1.0000 0.68446  0.62851  0.51268  Biso   1.000  Fe
  O43      1.0000 0.63048  0.64082  0.31117  Biso   1.000  O
  O44      1.0000 0.56172  0.59416  0.07267  Biso   1.000  O
  O45      1.0000 0.60613  0.58413  0.66777  Biso   1.000  O
  C57      1.0000 0.58003  0.59697  0.25157  Biso   1.000  C
  C58      1.0000 0.53853  0.54587  0.37857  Biso   1.000  C
  C59      1.0000 0.55353  0.54377  0.57447  Biso   1.000  C
  C60      1.0000 0.51283  0.49697  0.71017  Biso   1.000  C
  Fe16     1.0000 0.03816  0.38929  0.84601  Biso   1.000  Fe
  O46      1.0000 0.02585  0.32300  0.64450  Biso   1.000  O
  O47      1.0000 0.07251  0.30090  0.40600  Biso   1.000  O
  O48      1.0000 0.08254  0.35534  0.00110  Biso   1.000  O
  C61      1.0000 0.06970  0.31640  0.58490  Biso   1.000  C
  C62      1.0000 0.12080  0.32600  0.71190  Biso   1.000  C
  C63      1.0000 0.12290  0.34310  0.90780  Biso   1.000  C
  C64      1.0000 0.16970  0.34920  0.04350  Biso   1.000  C
  Fe17     1.0000 0.70483  0.72262  0.17934  Biso   1.000  Fe
  O49      1.0000 0.69252  0.65633  0.97783  Biso   1.000  O
  O50      1.0000 0.73918  0.63423  0.73933  Biso   1.000  O
  O51      1.0000 0.74921  0.68867  0.33443  Biso   1.000  O
  C65      1.0000 0.73637  0.64973  0.91823  Biso   1.000  C
  C66      1.0000 0.78747  0.65933  0.04523  Biso   1.000  C
  C67      1.0000 0.78957  0.67643  0.24113  Biso   1.000  C
  C68      1.0000 0.83637  0.68253  0.37683  Biso   1.000  C
  Fe18     1.0000 0.37149  0.05596  0.51268  Biso   1.000  Fe
  O52      1.0000 0.35918  0.98967  0.31117  Biso   1.000  O
  O53      1.0000 0.40584  0.96757  0.07267  Biso   1.000  O
  O54      1.0000 0.41587  0.02201  0.66777  Biso   1.000  O
  C69      1.0000 0.40303  0.98307  0.25157  Biso   1.000  C
  C70      1.0000 0.45413  0.99267  0.37857  Biso   1.000  C
  C71      1.0000 0.45623  0.00977  0.57447  Biso   1.000  C
  C72      1.0000 0.50303  0.01587  0.71017  Biso   1.000  C
