data_image0
_cell_length_a       26.1577
_cell_length_b       26.1577
_cell_length_c       6.8671
_cell_angle_alpha    90
_cell_angle_beta     90
_cell_angle_gamma    120

_symmetry_space_group_name_H-M    "P 1"
_symmetry_int_tables_number       1

loop_
  _symmetry_equiv_pos_as_xyz
  'x, y, z'

loop_
  _atom_site_label
  _atom_site_occupancy
  _atom_site_fract_x
  _atom_site_fract_y
  _atom_site_fract_z
  _atom_site_thermal_displace_type
  _atom_site_B_iso_or_equiv
  _atom_site_type_symbol
  Fe1      1.0000 0.38289  0.35225  0.14280  Biso   1.000  Fe
  O1       1.0000 0.32676  0.29450  0.36670  Biso   1.000  O
  O2       1.0000 0.30187  0.22741  0.60000  Biso   1.000  O
  O3       1.0000 0.35501  0.27326  0.00930  Biso   1.000  O
  C1       1.0000 0.31893  0.24522  0.42730  Biso   1.000  C
  C2       1.0000 0.32803  0.20589  0.28570  Biso   1.000  C
  C3       1.0000 0.34464  0.22113  0.09330  Biso   1.000  C
  C4       1.0000 0.35214  0.18326  0.97380  Biso   1.000  C
  H1       1.0000 0.36023  0.19266  0.82960  Biso   1.000  H
  Fe2      1.0000 0.04956  0.68558  0.47613  Biso   1.000  Fe
  O4       1.0000 0.99343  0.62783  0.70003  Biso   1.000  O
  O5       1.0000 0.96854  0.56074  0.93333  Biso   1.000  O
  O6       1.0000 0.02168  0.60659  0.34263  Biso   1.000  O
  C5       1.0000 0.98560  0.57855  0.76063  Biso   1.000  C
  C6       1.0000 0.99470  0.53922  0.61903  Biso   1.000  C
  C7       1.0000 0.01131  0.55446  0.42663  Biso   1.000  C
  C8       1.0000 0.01881  0.51659  0.30713  Biso   1.000  C
  H2       1.0000 0.02690  0.52599  0.16293  Biso   1.000  H
  Fe3      1.0000 0.71622  0.01892  0.80947  Biso   1.000  Fe
  O7       1.0000 0.66009  0.96117  0.03337  Biso   1.000  O
  O8       1.0000 0.63520  0.89408  0.26667  Biso   1.000  O
  O9       1.0000 0.68834  0.93993  0.67597  Biso   1.000  O
  C9       1.0000 0.65226  0.91189  0.09397  Biso   1.000  C
  C10      1.0000 0.66136  0.87256  0.95237  Biso   1.000  C
  C11      1.0000 0.67797  0.88780  0.75997  Biso   1.000  C
  C12      1.0000 0.68547  0.84993  0.64047  Biso   1.000  C
  H3       1.0000 0.69356  0.85933  0.49627  Biso   1.000  H
  Fe4      1.0000 0.64775  0.03064  0.14280  Biso   1.000  Fe
  O10      1.0000 0.70550  0.03226  0.36670  Biso   1.000  O
  O11      1.0000 0.77259  0.07446  0.60000  Biso   1.000  O
  O12      1.0000 0.72674  0.08175  0.00930  Biso   1.000  O
  C13      1.0000 0.75478  0.07371  0.42730  Biso   1.000  C
  C14      1.0000 0.79411  0.12214  0.28570  Biso   1.000  C
  C15      1.0000 0.77887  0.12351  0.09330  Biso   1.000  C
  C16      1.0000 0.81674  0.16888  0.97380  Biso   1.000  C
  H4       1.0000 0.80734  0.16757  0.82960  Biso   1.000  H
  Fe5      1.0000 0.31442  0.36397  0.47613  Biso   1.000  Fe
  O13      1.0000 0.37217  0.36559  0.70003  Biso   1.000  O
  O14      1.0000 0.43926  0.40779  0.93333  Biso   1.000  O
  O15      1.0000 0.39341  0.41508  0.34263  Biso   1.000  O
  C17      1.0000 0.42145  0.40704  0.76063  Biso   1.000  C
  C18      1.0000 0.46078  0.45547  0.61903  Biso   1.000  C
  C19      1.0000 0.44554  0.45684  0.42663  Biso   1.000  C
  C20      1.0000 0.48341  0.50221  0.30713  Biso   1.000  C
  H5       1.0000 0.47401  0.50090  0.16293  Biso   1.000  H
  Fe6      1.0000 0.98108  0.69731  0.80947  Biso   1.000  Fe
  O16      1.0000 0.03883  0.69893  0.03337  Biso   1.000  O
  O17      1.0000 0.10592  0.74113  0.26667  Biso   1.000  O
  O18      1.0000 0.06007  0.74842  0.67597  Biso   1.000  O
  C21      1.0000 0.08811  0.74038  0.09397  Biso   1.000  C
  C22      1.0000 0.12744  0.78881  0.95237  Biso   1.000  C
  C23      1.0000 0.11220  0.79018  0.75997  Biso   1.000  C
  C24      1.0000 0.15007  0.83555  0.64047  Biso   1.000  C
  H6       1.0000 0.14067  0.83424  0.49627  Biso   1.000  H
  Fe7      1.0000 0.96936  0.61711  0.14280  Biso   1.000  Fe
  O19      1.0000 0.96774  0.67324  0.36670  Biso   1.000  O
  O20      1.0000 0.92554  0.69813  0.60000  Biso   1.000  O
  O21      1.0000 0.91825  0.64499  0.00930  Biso   1.000  O
  C25      1.0000 0.92629  0.68107  0.42730  Biso   1.000  C
  C26      1.0000 0.87786  0.67197  0.28570  Biso   1.000  C
  C27      1.0000 0.87649  0.65536  0.09330  Biso   1.000  C
  C28      1.0000 0.83112  0.64786  0.97380  Biso   1.000  C
  H7       1.0000 0.83243  0.63977  0.82960  Biso   1.000  H
  Fe8      1.0000 0.63603  0.95044  0.47613  Biso   1.000  Fe
  O22      1.0000 0.63441  0.00657  0.70003  Biso   1.000  O
  O23      1.0000 0.59221  0.03146  0.93333  Biso   1.000  O
  O24      1.0000 0.58492  0.97832  0.34263  Biso   1.000  O
  C29      1.0000 0.59296  0.01440  0.76063  Biso   1.000  C
  C30      1.0000 0.54453  0.00530  0.61903  Biso   1.000  C
  C31      1.0000 0.54316  0.98869  0.42663  Biso   1.000  C
  C32      1.0000 0.49779  0.98119  0.30713  Biso   1.000  C
  H8       1.0000 0.49910  0.97310  0.16293  Biso   1.000  H
  Fe9      1.0000 0.30269  0.28378  0.80947  Biso   1.000  Fe
  O25      1.0000 0.30107  0.33991  0.03337  Biso   1.000  O
  O26      1.0000 0.25887  0.36480  0.26667  Biso   1.000  O
  O27      1.0000 0.25158  0.31166  0.67597  Biso   1.000  O
  C33      1.0000 0.25962  0.34774  0.09397  Biso   1.000  C
  C34      1.0000 0.21119  0.33864  0.95237  Biso   1.000  C
  C35      1.0000 0.20982  0.32203  0.75997  Biso   1.000  C
  C36      1.0000 0.16445  0.31453  0.64047  Biso   1.000  C
  H9       1.0000 0.16576  0.30644  0.49627  Biso   1.000  H
  Fe10     1.0000 0.61711  0.64775  0.85720  Biso   1.000  Fe
  O28      1.0000 0.67324  0.70550  0.63330  Biso   1.000  O
  O29      1.0000 0.69813  0.77259  0.40000  Biso   1.000  O
  O30      1.0000 0.64499  0.72674  0.99070  Biso   1.000  O
  C37      1.0000 0.68107  0.75478  0.57270  Biso   1.000  C
  C38      1.0000 0.67197  0.79411  0.71430  Biso   1.000  C
  C39      1.0000 0.65536  0.77887  0.90670  Biso   1.000  C
  C40      1.0000 0.64786  0.81674  0.02620  Biso   1.000  C
  H10      1.0000 0.63977  0.80734  0.17040  Biso   1.000  H
  Fe11     1.0000 0.28378  0.98108  0.19053  Biso   1.000  Fe
  O31      1.0000 0.33991  0.03883  0.96663  Biso   1.000  O
  O32      1.0000 0.36480  0.10592  0.73333  Biso   1.000  O
  O33      1.0000 0.31166  0.06007  0.32403  Biso   1.000  O
  C41      1.0000 0.34774  0.08811  0.90603  Biso   1.000  C
  C42      1.0000 0.33864  0.12744  0.04763  Biso   1.000  C
  C43      1.0000 0.32203  0.11220  0.24003  Biso   1.000  C
  C44      1.0000 0.31453  0.15007  0.35953  Biso   1.000  C
  H11      1.0000 0.30644  0.14067  0.50373  Biso   1.000  H
  Fe12     1.0000 0.95044  0.31442  0.52387  Biso   1.000  Fe
  O34      1.0000 0.00657  0.37217  0.29997  Biso   1.000  O
  O35      1.0000 0.03146  0.43926  0.06667  Biso   1.000  O
  O36      1.0000 0.97832  0.39341  0.65737  Biso   1.000  O
  C45      1.0000 0.01440  0.42145  0.23937  Biso   1.000  C
  C46      1.0000 0.00530  0.46078  0.38097  Biso   1.000  C
  C47      1.0000 0.98869  0.44554  0.57337  Biso   1.000  C
  C48      1.0000 0.98119  0.48341  0.69287  Biso   1.000  C
  H12      1.0000 0.97310  0.47401  0.83707  Biso   1.000  H
  Fe13     1.0000 0.35225  0.96936  0.85720  Biso   1.000  Fe
  O37      1.0000 0.29450  0.96774  0.63330  Biso   1.000  O
  O38      1.0000 0.22741  0.92554  0.40000  Biso   1.000  O
  O39      1.0000 0.27326  0.91825  0.99070  Biso   1.000  O
  C49      1.0000 0.24522  0.92629  0.57270  Biso   1.000  C
  C50      1.0000 0.20589  0.87786  0.71430  Biso   1.000  C
  C51      1.0000 0.22113  0.87649  0.90670  Biso   1.000  C
  C52      1.0000 0.18326  0.83112  0.02620  Biso   1.000  C
  H13      1.0000 0.19266  0.83243  0.17040  Biso   1.000  H
  Fe14     1.0000 0.01892  0.30269  0.19053  Biso   1.000  Fe
  O40      1.0000 0.96117  0.30107  0.96663  Biso   1.000  O
  O41      1.0000 0.89408  0.25887  0.73333  Biso   1.000  O
  O42      1.0000 0.93993  0.25158  0.32403  Biso   1.000  O
  C53      1.0000 0.91189  0.25962  0.90603  Biso   1.000  C
  C54      1.0000 0.87256  0.21119  0.04763  Biso   1.000  C
  C55      1.0000 0.88780  0.20982  0.24003  Biso   1.000  C
  C56      1.0000 0.84993  0.16445  0.35953  Biso   1.000  C
  H14      1.0000 0.85933  0.16576  0.50373  Biso   1.000  H
  Fe15     1.0000 0.68558  0.63603  0.52387  Biso   1.000  Fe
  O43      1.0000 0.62783  0.63441  0.29997  Biso   1.000  O
  O44      1.0000 0.56074  0.59221  0.06667  Biso   1.000  O
  O45      1.0000 0.60659  0.58492  0.65737  Biso   1.000  O
  C57      1.0000 0.57855  0.59296  0.23937  Biso   1.000  C
  C58      1.0000 0.53922  0.54453  0.38097  Biso   1.000  C
  C59      1.0000 0.55446  0.54316  0.57337  Biso   1.000  C
  C60      1.0000 0.51659  0.49779  0.69287  Biso   1.000  C
  H15      1.0000 0.52599  0.49910  0.83707  Biso   1.000  H
  Fe16     1.0000 0.03064  0.38289  0.85720  Biso   1.000  Fe
  O46      1.0000 0.03226  0.32676  0.63330  Biso   1.000  O
  O47      1.0000 0.07446  0.30187  0.40000  Biso   1.000  O
  O48      1.0000 0.08175  0.35501  0.99070  Biso   1.000  O
  C61      1.0000 0.07371  0.31893  0.57270  Biso   1.000  C
  C62      1.0000 0.12214  0.32803  0.71430  Biso   1.000  C
  C63      1.0000 0.12351  0.34464  0.90670  Biso   1.000  C
  C64      1.0000 0.16888  0.35214  0.02620  Biso   1.000  C
  H16      1.0000 0.16757  0.36023  0.17040  Biso   1.000  H
  Fe17     1.0000 0.69731  0.71622  0.19053  Biso   1.000  Fe
  O49      1.0000 0.69893  0.66009  0.96663  Biso   1.000  O
  O50      1.0000 0.74113  0.63520  0.73333  Biso   1.000  O
  O51      1.0000 0.74842  0.68834  0.32403  Biso   1.000  O
  C65      1.0000 0.74038  0.65226  0.90603  Biso   1.000  C
  C66      1.0000 0.78881  0.66136  0.04763  Biso   1.000  C
  C67      1.0000 0.79018  0.67797  0.24003  Biso   1.000  C
  C68      1.0000 0.83555  0.68547  0.35953  Biso   1.000  C
  H17      1.0000 0.83424  0.69356  0.50373  Biso   1.000  H
  Fe18     1.0000 0.36397  0.04956  0.52387  Biso   1.000  Fe
  O52      1.0000 0.36559  0.99343  0.29997  Biso   1.000  O
  O53      1.0000 0.40779  0.96854  0.06667  Biso   1.000  O
  O54      1.0000 0.41508  0.02168  0.65737  Biso   1.000  O
  C69      1.0000 0.40704  0.98560  0.23937  Biso   1.000  C
  C70      1.0000 0.45547  0.99470  0.38097  Biso   1.000  C
  C71      1.0000 0.45684  0.01131  0.57337  Biso   1.000  C
  C72      1.0000 0.50221  0.01881  0.69287  Biso   1.000  C
  H18      1.0000 0.50090  0.02690  0.83707  Biso   1.000  H
