data_image0
_cell_length_a       26.166
_cell_length_b       26.166
_cell_length_c       6.8595
_cell_angle_alpha    90
_cell_angle_beta     90
_cell_angle_gamma    120

_symmetry_space_group_name_H-M    "P 1"
_symmetry_int_tables_number       1

loop_
  _symmetry_equiv_pos_as_xyz
  'x, y, z'

loop_
  _atom_site_label
  _atom_site_occupancy
  _atom_site_fract_x
  _atom_site_fract_y
  _atom_site_fract_z
  _atom_site_thermal_displace_type
  _atom_site_B_iso_or_equiv
  _atom_site_type_symbol
  Fe1      1.0000 0.38189  0.35205  0.14370  Biso   1.000  Fe
  O1       1.0000 0.32786  0.29573  0.36760  Biso   1.000  O
  O2       1.0000 0.30104  0.22715  0.60190  Biso   1.000  O
  O3       1.0000 0.35497  0.27380  0.00840  Biso   1.000  O
  C1       1.0000 0.31930  0.24630  0.42920  Biso   1.000  C
  C2       1.0000 0.32747  0.20628  0.28870  Biso   1.000  C
  C3       1.0000 0.34380  0.22133  0.09240  Biso   1.000  C
  C4       1.0000 0.35060  0.18166  0.97280  Biso   1.000  C
  H1       1.0000 0.36190  0.19304  0.82880  Biso   1.000  H
  Fe2      1.0000 0.04856  0.68538  0.47703  Biso   1.000  Fe
  O4       1.0000 0.99453  0.62906  0.70093  Biso   1.000  O
  O5       1.0000 0.96771  0.56048  0.93523  Biso   1.000  O
  O6       1.0000 0.02164  0.60713  0.34173  Biso   1.000  O
  C5       1.0000 0.98597  0.57963  0.76253  Biso   1.000  C
  C6       1.0000 0.99414  0.53961  0.62203  Biso   1.000  C
  C7       1.0000 0.01047  0.55466  0.42573  Biso   1.000  C
  C8       1.0000 0.01727  0.51499  0.30613  Biso   1.000  C
  H2       1.0000 0.02857  0.52637  0.16213  Biso   1.000  H
  Fe3      1.0000 0.71522  0.01872  0.81037  Biso   1.000  Fe
  O7       1.0000 0.66119  0.96240  0.03427  Biso   1.000  O
  O8       1.0000 0.63437  0.89382  0.26857  Biso   1.000  O
  O9       1.0000 0.68830  0.94047  0.67507  Biso   1.000  O
  C9       1.0000 0.65263  0.91297  0.09587  Biso   1.000  C
  C10      1.0000 0.66080  0.87295  0.95537  Biso   1.000  C
  C11      1.0000 0.67713  0.88800  0.75907  Biso   1.000  C
  C12      1.0000 0.68393  0.84833  0.63947  Biso   1.000  C
  H3       1.0000 0.69523  0.85971  0.49547  Biso   1.000  H
  Fe4      1.0000 0.64795  0.02984  0.14370  Biso   1.000  Fe
  O10      1.0000 0.70427  0.03213  0.36760  Biso   1.000  O
  O11      1.0000 0.77285  0.07389  0.60190  Biso   1.000  O
  O12      1.0000 0.72620  0.08117  0.00840  Biso   1.000  O
  C13      1.0000 0.75370  0.07300  0.42920  Biso   1.000  C
  C14      1.0000 0.79372  0.12119  0.28870  Biso   1.000  C
  C15      1.0000 0.77867  0.12247  0.09240  Biso   1.000  C
  C16      1.0000 0.81834  0.16894  0.97280  Biso   1.000  C
  H4       1.0000 0.80696  0.16886  0.82880  Biso   1.000  H
  Fe5      1.0000 0.31462  0.36317  0.47703  Biso   1.000  Fe
  O13      1.0000 0.37094  0.36546  0.70093  Biso   1.000  O
  O14      1.0000 0.43952  0.40722  0.93523  Biso   1.000  O
  O15      1.0000 0.39287  0.41450  0.34173  Biso   1.000  O
  C17      1.0000 0.42037  0.40633  0.76253  Biso   1.000  C
  C18      1.0000 0.46039  0.45452  0.62203  Biso   1.000  C
  C19      1.0000 0.44534  0.45580  0.42573  Biso   1.000  C
  C20      1.0000 0.48501  0.50227  0.30613  Biso   1.000  C
  H5       1.0000 0.47363  0.50219  0.16213  Biso   1.000  H
  Fe6      1.0000 0.98128  0.69651  0.81037  Biso   1.000  Fe
  O16      1.0000 0.03760  0.69880  0.03427  Biso   1.000  O
  O17      1.0000 0.10618  0.74056  0.26857  Biso   1.000  O
  O18      1.0000 0.05953  0.74784  0.67507  Biso   1.000  O
  C21      1.0000 0.08703  0.73967  0.09587  Biso   1.000  C
  C22      1.0000 0.12705  0.78786  0.95537  Biso   1.000  C
  C23      1.0000 0.11200  0.78914  0.75907  Biso   1.000  C
  C24      1.0000 0.15167  0.83561  0.63947  Biso   1.000  C
  H6       1.0000 0.14029  0.83553  0.49547  Biso   1.000  H
  Fe7      1.0000 0.97016  0.61811  0.14370  Biso   1.000  Fe
  O19      1.0000 0.96787  0.67214  0.36760  Biso   1.000  O
  O20      1.0000 0.92611  0.69896  0.60190  Biso   1.000  O
  O21      1.0000 0.91883  0.64503  0.00840  Biso   1.000  O
  C25      1.0000 0.92700  0.68070  0.42920  Biso   1.000  C
  C26      1.0000 0.87881  0.67253  0.28870  Biso   1.000  C
  C27      1.0000 0.87753  0.65620  0.09240  Biso   1.000  C
  C28      1.0000 0.83106  0.64940  0.97280  Biso   1.000  C
  H7       1.0000 0.83114  0.63810  0.82880  Biso   1.000  H
  Fe8      1.0000 0.63683  0.95144  0.47703  Biso   1.000  Fe
  O22      1.0000 0.63454  0.00547  0.70093  Biso   1.000  O
  O23      1.0000 0.59278  0.03229  0.93523  Biso   1.000  O
  O24      1.0000 0.58550  0.97836  0.34173  Biso   1.000  O
  C29      1.0000 0.59367  0.01403  0.76253  Biso   1.000  C
  C30      1.0000 0.54548  0.00586  0.62203  Biso   1.000  C
  C31      1.0000 0.54420  0.98953  0.42573  Biso   1.000  C
  C32      1.0000 0.49773  0.98273  0.30613  Biso   1.000  C
  H8       1.0000 0.49781  0.97143  0.16213  Biso   1.000  H
  Fe9      1.0000 0.30349  0.28478  0.81037  Biso   1.000  Fe
  O25      1.0000 0.30120  0.33881  0.03427  Biso   1.000  O
  O26      1.0000 0.25944  0.36563  0.26857  Biso   1.000  O
  O27      1.0000 0.25216  0.31170  0.67507  Biso   1.000  O
  C33      1.0000 0.26033  0.34737  0.09587  Biso   1.000  C
  C34      1.0000 0.21214  0.33920  0.95537  Biso   1.000  C
  C35      1.0000 0.21086  0.32287  0.75907  Biso   1.000  C
  C36      1.0000 0.16439  0.31607  0.63947  Biso   1.000  C
  H9       1.0000 0.16447  0.30477  0.49547  Biso   1.000  H
  Fe10     1.0000 0.61811  0.64795  0.85630  Biso   1.000  Fe
  O28      1.0000 0.67214  0.70427  0.63240  Biso   1.000  O
  O29      1.0000 0.69896  0.77285  0.39810  Biso   1.000  O
  O30      1.0000 0.64503  0.72620  0.99160  Biso   1.000  O
  C37      1.0000 0.68070  0.75370  0.57080  Biso   1.000  C
  C38      1.0000 0.67253  0.79372  0.71130  Biso   1.000  C
  C39      1.0000 0.65620  0.77867  0.90760  Biso   1.000  C
  C40      1.0000 0.64940  0.81834  0.02720  Biso   1.000  C
  H10      1.0000 0.63810  0.80696  0.17120  Biso   1.000  H
  Fe11     1.0000 0.28478  0.98128  0.18963  Biso   1.000  Fe
  O31      1.0000 0.33881  0.03760  0.96573  Biso   1.000  O
  O32      1.0000 0.36563  0.10618  0.73143  Biso   1.000  O
  O33      1.0000 0.31170  0.05953  0.32493  Biso   1.000  O
  C41      1.0000 0.34737  0.08703  0.90413  Biso   1.000  C
  C42      1.0000 0.33920  0.12705  0.04463  Biso   1.000  C
  C43      1.0000 0.32287  0.11200  0.24093  Biso   1.000  C
  C44      1.0000 0.31607  0.15167  0.36053  Biso   1.000  C
  H11      1.0000 0.30477  0.14029  0.50453  Biso   1.000  H
  Fe12     1.0000 0.95144  0.31462  0.52297  Biso   1.000  Fe
  O34      1.0000 0.00547  0.37094  0.29907  Biso   1.000  O
  O35      1.0000 0.03229  0.43952  0.06477  Biso   1.000  O
  O36      1.0000 0.97836  0.39287  0.65827  Biso   1.000  O
  C45      1.0000 0.01403  0.42037  0.23747  Biso   1.000  C
  C46      1.0000 0.00586  0.46039  0.37797  Biso   1.000  C
  C47      1.0000 0.98953  0.44534  0.57427  Biso   1.000  C
  C48      1.0000 0.98273  0.48501  0.69387  Biso   1.000  C
  H12      1.0000 0.97143  0.47363  0.83787  Biso   1.000  H
  Fe13     1.0000 0.35205  0.97016  0.85630  Biso   1.000  Fe
  O37      1.0000 0.29573  0.96787  0.63240  Biso   1.000  O
  O38      1.0000 0.22715  0.92611  0.39810  Biso   1.000  O
  O39      1.0000 0.27380  0.91883  0.99160  Biso   1.000  O
  C49      1.0000 0.24630  0.92700  0.57080  Biso   1.000  C
  C50      1.0000 0.20628  0.87881  0.71130  Biso   1.000  C
  C51      1.0000 0.22133  0.87753  0.90760  Biso   1.000  C
  C52      1.0000 0.18166  0.83106  0.02720  Biso   1.000  C
  H13      1.0000 0.19304  0.83114  0.17120  Biso   1.000  H
  Fe14     1.0000 0.01872  0.30349  0.18963  Biso   1.000  Fe
  O40      1.0000 0.96240  0.30120  0.96573  Biso   1.000  O
  O41      1.0000 0.89382  0.25944  0.73143  Biso   1.000  O
  O42      1.0000 0.94047  0.25216  0.32493  Biso   1.000  O
  C53      1.0000 0.91297  0.26033  0.90413  Biso   1.000  C
  C54      1.0000 0.87295  0.21214  0.04463  Biso   1.000  C
  C55      1.0000 0.88800  0.21086  0.24093  Biso   1.000  C
  C56      1.0000 0.84833  0.16439  0.36053  Biso   1.000  C
  H14      1.0000 0.85971  0.16447  0.50453  Biso   1.000  H
  Fe15     1.0000 0.68538  0.63683  0.52297  Biso   1.000  Fe
  O43      1.0000 0.62906  0.63454  0.29907  Biso   1.000  O
  O44      1.0000 0.56048  0.59278  0.06477  Biso   1.000  O
  O45      1.0000 0.60713  0.58550  0.65827  Biso   1.000  O
  C57      1.0000 0.57963  0.59367  0.23747  Biso   1.000  C
  C58      1.0000 0.53961  0.54548  0.37797  Biso   1.000  C
  C59      1.0000 0.55466  0.54420  0.57427  Biso   1.000  C
  C60      1.0000 0.51499  0.49773  0.69387  Biso   1.000  C
  H15      1.0000 0.52637  0.49781  0.83787  Biso   1.000  H
  Fe16     1.0000 0.02984  0.38189  0.85630  Biso   1.000  Fe
  O46      1.0000 0.03213  0.32786  0.63240  Biso   1.000  O
  O47      1.0000 0.07389  0.30104  0.39810  Biso   1.000  O
  O48      1.0000 0.08117  0.35497  0.99160  Biso   1.000  O
  C61      1.0000 0.07300  0.31930  0.57080  Biso   1.000  C
  C62      1.0000 0.12119  0.32747  0.71130  Biso   1.000  C
  C63      1.0000 0.12247  0.34380  0.90760  Biso   1.000  C
  C64      1.0000 0.16894  0.35060  0.02720  Biso   1.000  C
  H16      1.0000 0.16886  0.36190  0.17120  Biso   1.000  H
  Fe17     1.0000 0.69651  0.71522  0.18963  Biso   1.000  Fe
  O49      1.0000 0.69880  0.66119  0.96573  Biso   1.000  O
  O50      1.0000 0.74056  0.63437  0.73143  Biso   1.000  O
  O51      1.0000 0.74784  0.68830  0.32493  Biso   1.000  O
  C65      1.0000 0.73967  0.65263  0.90413  Biso   1.000  C
  C66      1.0000 0.78786  0.66080  0.04463  Biso   1.000  C
  C67      1.0000 0.78914  0.67713  0.24093  Biso   1.000  C
  C68      1.0000 0.83561  0.68393  0.36053  Biso   1.000  C
  H17      1.0000 0.83553  0.69523  0.50453  Biso   1.000  H
  Fe18     1.0000 0.36317  0.04856  0.52297  Biso   1.000  Fe
  O52      1.0000 0.36546  0.99453  0.29907  Biso   1.000  O
  O53      1.0000 0.40722  0.96771  0.06477  Biso   1.000  O
  O54      1.0000 0.41450  0.02164  0.65827  Biso   1.000  O
  C69      1.0000 0.40633  0.98597  0.23747  Biso   1.000  C
  C70      1.0000 0.45452  0.99414  0.37797  Biso   1.000  C
  C71      1.0000 0.45580  0.01047  0.57427  Biso   1.000  C
  C72      1.0000 0.50227  0.01727  0.69387  Biso   1.000  C
  H18      1.0000 0.50219  0.02857  0.83787  Biso   1.000  H
