data_WOPWOO_clean
_audit_creation_date              2014-07-02
_audit_creation_method            'Materials Studio'
_symmetry_space_group_name_H-M    'P1'
_symmetry_Int_Tables_number       1
_symmetry_cell_setting            triclinic
loop_
_symmetry_equiv_pos_as_xyz
  x,y,z
_cell_length_a                    14.7040
_cell_length_b                    17.2440
_cell_length_c                    24.5160
_cell_angle_alpha                 105.7720
_cell_angle_beta                  90.0000
_cell_angle_gamma                 90.0000
loop_
_atom_site_label
_atom_site_type_symbol
_atom_site_fract_x
_atom_site_fract_y
_atom_site_fract_z
_atom_site_U_iso_or_equiv
_atom_site_adp_type
_atom_site_occupancy
Cr1    Cr    0.52410   0.20996   0.59060   0.01267  Uiso   1.00
Cr2    Cr    0.50638   0.21686   0.34446   0.01267  Uiso   1.00
Cr3    Cr    0.51038   0.20675   0.84120   0.01267  Uiso   1.00
Cr4    Cr    0.01618   0.28954   0.40700   0.01267  Uiso   1.00
Cr5    Cr    0.02410   0.29004   0.90940   0.01267  Uiso   1.00
Cr6    Cr    0.00638   0.28314   0.15554   0.01267  Uiso   1.00
Cr7    Cr    0.01038   0.29325   0.65880   0.01267  Uiso   1.00
Cr8    Cr    0.51618   0.21046   0.09300   0.01267  Uiso   1.00
Cr9    Cr    0.47590   0.79004   0.40940   0.01267  Uiso   1.00
Cr10   Cr    0.49362   0.78314   0.65554   0.01267  Uiso   1.00
Cr11   Cr    0.48962   0.79325   0.15880   0.01267  Uiso   1.00
Cr12   Cr    0.98382   0.71046   0.59300   0.01267  Uiso   1.00
Cr13   Cr    0.97590   0.70996   0.09060   0.01267  Uiso   1.00
Cr14   Cr    0.99362   0.71686   0.84446   0.01267  Uiso   1.00
Cr15   Cr    0.98962   0.70675   0.34120   0.01267  Uiso   1.00
Cr16   Cr    0.48382   0.78954   0.90700   0.01267  Uiso   1.00
Ag1    Ag    0.32304   0.25412   0.75179   0.01267  Uiso   1.00
Ag2    Ag    0.71155   0.24543   0.50106   0.01267  Uiso   1.00
Ag3    Ag    0.69801   0.08260   0.36076   0.01267  Uiso   1.00
Ag4    Ag    0.32494   0.08405   0.60701   0.01267  Uiso   1.00
Ag5    Ag    0.55385   0.99383   0.62598   0.01267  Uiso   1.00
Ag6    Ag    0.31343   0.25310   0.25122   0.01267  Uiso   1.00
Ag7    Ag    0.82304   0.24588   0.74821   0.01267  Uiso   1.00
Ag8    Ag    0.21155   0.25457   0.99894   0.01267  Uiso   1.00
Ag9    Ag    0.19801   0.41740   0.13924   0.01267  Uiso   1.00
Ag10   Ag    0.82494   0.41595   0.89299   0.01267  Uiso   1.00
Ag11   Ag    0.05385   0.50617   0.87402   0.01267  Uiso   1.00
Ag12   Ag    0.81343   0.24690   0.24878   0.01267  Uiso   1.00
Ag13   Ag    0.67696   0.74588   0.24821   0.01267  Uiso   1.00
Ag14   Ag    0.28845   0.75457   0.49894   0.01267  Uiso   1.00
Ag15   Ag    0.30199   0.91740   0.63924   0.01267  Uiso   1.00
Ag16   Ag    0.67506   0.91595   0.39299   0.01267  Uiso   1.00
Ag17   Ag    0.44615   0.00617   0.37402   0.01267  Uiso   1.00
Ag18   Ag    0.68657   0.74690   0.74878   0.01267  Uiso   1.00
Ag19   Ag    0.17696   0.75412   0.25179   0.01267  Uiso   1.00
Ag20   Ag    0.78845   0.74543   0.00106   0.01267  Uiso   1.00
Ag21   Ag    0.80199   0.58260   0.86076   0.01267  Uiso   1.00
Ag22   Ag    0.17506   0.58405   0.10701   0.01267  Uiso   1.00
Ag23   Ag    0.94615   0.49383   0.12598   0.01267  Uiso   1.00
Ag24   Ag    0.18657   0.75310   0.75122   0.01267  Uiso   1.00
C1     C     0.38460   0.31680   0.58930   0.01267  Uiso   1.00
C2     C     0.37630   0.29290   0.64520   0.01267  Uiso   1.00
C3     C     0.67270   0.27310   0.65630   0.01267  Uiso   1.00
C4     C     0.66190   0.18500   0.66010   0.01267  Uiso   1.00
C5     C     0.55400   0.10940   0.48210   0.01267  Uiso   1.00
C6     C     0.46290   0.08260   0.50220   0.01267  Uiso   1.00
C7     C     0.35920   0.28620   0.41150   0.01267  Uiso   1.00
C8     C     0.36260   0.19650   0.41250   0.01267  Uiso   1.00
C9     C     0.65940   0.29410   0.39750   0.01267  Uiso   1.00
C10    C     0.65280   0.31540   0.34010   0.01267  Uiso   1.00
C11    C     0.55350   0.08400   0.25630   0.01267  Uiso   1.00
C12    C     0.46510   0.11860   0.23730   0.01267  Uiso   1.00
C13    C     0.46950   0.10980   0.73410   0.01267  Uiso   1.00
C14    C     0.55880   0.07520   0.75210   0.01267  Uiso   1.00
C15    C     0.65550   0.30680   0.83700   0.01267  Uiso   1.00
C16    C     0.66500   0.28370   0.89430   0.01267  Uiso   1.00
C17    C     0.36720   0.18890   0.91050   0.01267  Uiso   1.00
C18    C     0.36440   0.27720   0.90710   0.01267  Uiso   1.00
C19    C     0.86590   0.20800   0.35400   0.01267  Uiso   1.00
C20    C     0.87310   0.18820   0.41150   0.01267  Uiso   1.00
C21    C     0.95730   0.41690   0.49490   0.01267  Uiso   1.00
C22    C     0.04920   0.38900   0.51450   0.01267  Uiso   1.00
C23    C     0.16770   0.22850   0.34250   0.01267  Uiso   1.00
C24    C     0.15790   0.31690   0.33930   0.01267  Uiso   1.00
C25    C     0.88460   0.18320   0.91070   0.01267  Uiso   1.00
C26    C     0.87630   0.20710   0.85480   0.01267  Uiso   1.00
C27    C     0.17270   0.22690   0.84370   0.01267  Uiso   1.00
C28    C     0.16190   0.31500   0.83990   0.01267  Uiso   1.00
C29    C     0.05400   0.39060   0.01790   0.01267  Uiso   1.00
C30    C     0.96290   0.41740   0.99780   0.01267  Uiso   1.00
C31    C     0.85920   0.21380   0.08850   0.01267  Uiso   1.00
C32    C     0.86260   0.30350   0.08750   0.01267  Uiso   1.00
C33    C     0.15940   0.20590   0.10250   0.01267  Uiso   1.00
C34    C     0.15280   0.18460   0.15990   0.01267  Uiso   1.00
C35    C     0.05350   0.41600   0.24370   0.01267  Uiso   1.00
C36    C     0.96510   0.38140   0.26270   0.01267  Uiso   1.00
C37    C     0.96950   0.39020   0.76590   0.01267  Uiso   1.00
C38    C     0.05880   0.42480   0.74790   0.01267  Uiso   1.00
C39    C     0.15550   0.19320   0.66300   0.01267  Uiso   1.00
C40    C     0.16500   0.21630   0.60570   0.01267  Uiso   1.00
C41    C     0.86720   0.31110   0.58950   0.01267  Uiso   1.00
C42    C     0.86440   0.22280   0.59290   0.01267  Uiso   1.00
C43    C     0.36590   0.29200   0.14600   0.01267  Uiso   1.00
C44    C     0.37310   0.31180   0.08850   0.01267  Uiso   1.00
C45    C     0.45730   0.08310   0.00510   0.01267  Uiso   1.00
C46    C     0.54920   0.11100   0.98550   0.01267  Uiso   1.00
C47    C     0.66770   0.27150   0.15750   0.01267  Uiso   1.00
C48    C     0.65790   0.18310   0.16070   0.01267  Uiso   1.00
C49    C     0.61540   0.68320   0.41070   0.01267  Uiso   1.00
C50    C     0.62370   0.70710   0.35480   0.01267  Uiso   1.00
C51    C     0.32730   0.72690   0.34370   0.01267  Uiso   1.00
C52    C     0.33810   0.81500   0.33990   0.01267  Uiso   1.00
C53    C     0.44600   0.89060   0.51790   0.01267  Uiso   1.00
C54    C     0.53710   0.91740   0.49780   0.01267  Uiso   1.00
C55    C     0.64080   0.71380   0.58850   0.01267  Uiso   1.00
C56    C     0.63740   0.80350   0.58750   0.01267  Uiso   1.00
C57    C     0.34060   0.70590   0.60250   0.01267  Uiso   1.00
C58    C     0.34720   0.68460   0.65990   0.01267  Uiso   1.00
C59    C     0.44650   0.91600   0.74370   0.01267  Uiso   1.00
C60    C     0.53490   0.88140   0.76270   0.01267  Uiso   1.00
C61    C     0.53050   0.89020   0.26590   0.01267  Uiso   1.00
C62    C     0.44120   0.92480   0.24790   0.01267  Uiso   1.00
C63    C     0.34450   0.69320   0.16300   0.01267  Uiso   1.00
C64    C     0.33500   0.71630   0.10570   0.01267  Uiso   1.00
C65    C     0.63280   0.81110   0.08950   0.01267  Uiso   1.00
C66    C     0.63560   0.72280   0.09290   0.01267  Uiso   1.00
C67    C     0.13410   0.79200   0.64600   0.01267  Uiso   1.00
C68    C     0.12690   0.81180   0.58850   0.01267  Uiso   1.00
C69    C     0.04270   0.58310   0.50510   0.01267  Uiso   1.00
C70    C     0.95080   0.61100   0.48550   0.01267  Uiso   1.00
C71    C     0.83230   0.77150   0.65750   0.01267  Uiso   1.00
C72    C     0.84210   0.68310   0.66070   0.01267  Uiso   1.00
C73    C     0.11540   0.81680   0.08930   0.01267  Uiso   1.00
C74    C     0.12370   0.79290   0.14520   0.01267  Uiso   1.00
C75    C     0.82730   0.77310   0.15630   0.01267  Uiso   1.00
C76    C     0.83810   0.68500   0.16010   0.01267  Uiso   1.00
C77    C     0.94600   0.60940   0.98210   0.01267  Uiso   1.00
C78    C     0.03710   0.58260   0.00220   0.01267  Uiso   1.00
C79    C     0.14080   0.78620   0.91150   0.01267  Uiso   1.00
C80    C     0.13740   0.69650   0.91250   0.01267  Uiso   1.00
C81    C     0.84060   0.79410   0.89750   0.01267  Uiso   1.00
C82    C     0.84720   0.81540   0.84010   0.01267  Uiso   1.00
C83    C     0.94650   0.58400   0.75630   0.01267  Uiso   1.00
C84    C     0.03490   0.61860   0.73730   0.01267  Uiso   1.00
C85    C     0.03050   0.60980   0.23410   0.01267  Uiso   1.00
C86    C     0.94120   0.57520   0.25210   0.01267  Uiso   1.00
C87    C     0.84450   0.80680   0.33700   0.01267  Uiso   1.00
C88    C     0.83500   0.78370   0.39430   0.01267  Uiso   1.00
C89    C     0.13280   0.68890   0.41050   0.01267  Uiso   1.00
C90    C     0.13560   0.77720   0.40710   0.01267  Uiso   1.00
C91    C     0.63410   0.70800   0.85400   0.01267  Uiso   1.00
C92    C     0.62690   0.68820   0.91150   0.01267  Uiso   1.00
C93    C     0.54270   0.91690   0.99490   0.01267  Uiso   1.00
C94    C     0.45080   0.88900   0.01450   0.01267  Uiso   1.00
C95    C     0.33230   0.72850   0.84250   0.01267  Uiso   1.00
C96    C     0.34210   0.81690   0.83930   0.01267  Uiso   1.00
O1     O     0.45370   0.28450   0.55860   0.01267  Uiso   1.00
O2     O     0.32840   0.36100   0.57610   0.01267  Uiso   1.00
O3     O     0.43810   0.24510   0.65320   0.01267  Uiso   1.00
O4     O     0.31290   0.31920   0.67770   0.01267  Uiso   1.00
O5     O     0.61510   0.29280   0.62360   0.01267  Uiso   1.00
O6     O     0.73320   0.31540   0.68330   0.01267  Uiso   1.00
O7     O     0.59760   0.14530   0.62960   0.01267  Uiso   1.00
O8     O     0.71400   0.15730   0.68930   0.01267  Uiso   1.00
O9     O     0.59260   0.16760   0.51820   0.01267  Uiso   1.00
O10    O     0.58520   0.07290   0.43490   0.01267  Uiso   1.00
O11    O     0.44380   0.11930   0.55380   0.01267  Uiso   1.00
O12    O     0.41590   0.02940   0.47140   0.01267  Uiso   1.00
O13    O     0.42170   0.30480   0.37930   0.01267  Uiso   1.00
O14    O     0.30090   0.33100   0.43710   0.01267  Uiso   1.00
O15    O     0.42970   0.15610   0.38450   0.01267  Uiso   1.00
O16    O     0.30630   0.17060   0.43940   0.01267  Uiso   1.00
O17    O     0.59600   0.24890   0.40650   0.01267  Uiso   1.00
O18    O     0.72330   0.32010   0.42980   0.01267  Uiso   1.00
O19    O     0.58280   0.28620   0.31110   0.01267  Uiso   1.00
O20    O     0.71230   0.35650   0.32610   0.01267  Uiso   1.00
O21    O     0.57860   0.11990   0.30680   0.01267  Uiso   1.00
O22    O     0.59140   0.02590   0.22410   0.01267  Uiso   1.00
O23    O     0.43390   0.18120   0.27510   0.01267  Uiso   1.00
O24    O     0.42930   0.08670   0.19160   0.01267  Uiso   1.00
O25    O     0.43770   0.17120   0.77060   0.01267  Uiso   1.00
O26    O     0.43590   0.07700   0.68700   0.01267  Uiso   1.00
O27    O     0.58200   0.11140   0.80380   0.01267  Uiso   1.00
O28    O     0.59860   0.01830   0.72100   0.01267  Uiso   1.00
O29    O     0.58520   0.27800   0.80790   0.01267  Uiso   1.00
O30    O     0.71390   0.34930   0.82310   0.01267  Uiso   1.00
O31    O     0.59960   0.24000   0.90270   0.01267  Uiso   1.00
O32    O     0.72870   0.30780   0.92560   0.01267  Uiso   1.00
O33    O     0.43210   0.14660   0.88020   0.01267  Uiso   1.00
O34    O     0.31230   0.16410   0.93890   0.01267  Uiso   1.00
O35    O     0.42650   0.29600   0.87640   0.01267  Uiso   1.00
O36    O     0.30490   0.32290   0.93270   0.01267  Uiso   1.00
O37    O     0.92980   0.25160   0.34360   0.01267  Uiso   1.00
O38    O     0.80050   0.18310   0.32300   0.01267  Uiso   1.00
O39    O     0.94380   0.21790   0.44090   0.01267  Uiso   1.00
O40    O     0.81410   0.14790   0.42720   0.01267  Uiso   1.00
O41    O     0.93680   0.38130   0.44350   0.01267  Uiso   1.00
O42    O     0.91270   0.47030   0.52710   0.01267  Uiso   1.00
O43    O     0.08570   0.32960   0.47770   0.01267  Uiso   1.00
O44    O     0.08290   0.42430   0.56070   0.01267  Uiso   1.00
O45    O     0.10830   0.20670   0.37410   0.01267  Uiso   1.00
O46    O     0.22910   0.18620   0.31700   0.01267  Uiso   1.00
O47    O     0.08950   0.35450   0.36820   0.01267  Uiso   1.00
O48    O     0.21170   0.34640   0.31260   0.01267  Uiso   1.00
O49    O     0.95370   0.21550   0.94140   0.01267  Uiso   1.00
O50    O     0.82840   0.13900   0.92390   0.01267  Uiso   1.00
O51    O     0.93810   0.25490   0.84680   0.01267  Uiso   1.00
O52    O     0.81290   0.18080   0.82230   0.01267  Uiso   1.00
O53    O     0.11510   0.20720   0.87640   0.01267  Uiso   1.00
O54    O     0.23320   0.18460   0.81670   0.01267  Uiso   1.00
O55    O     0.09760   0.35470   0.87040   0.01267  Uiso   1.00
O56    O     0.21400   0.34270   0.81070   0.01267  Uiso   1.00
O57    O     0.09260   0.33240   0.98180   0.01267  Uiso   1.00
O58    O     0.08520   0.42710   0.06510   0.01267  Uiso   1.00
O59    O     0.94380   0.38070   0.94620   0.01267  Uiso   1.00
O60    O     0.91590   0.47060   0.02860   0.01267  Uiso   1.00
O61    O     0.92170   0.19520   0.12070   0.01267  Uiso   1.00
O62    O     0.80090   0.16900   0.06290   0.01267  Uiso   1.00
O63    O     0.92970   0.34390   0.11550   0.01267  Uiso   1.00
O64    O     0.80630   0.32940   0.06060   0.01267  Uiso   1.00
O65    O     0.09600   0.25110   0.09350   0.01267  Uiso   1.00
O66    O     0.22330   0.17990   0.07020   0.01267  Uiso   1.00
O67    O     0.08280   0.21380   0.18890   0.01267  Uiso   1.00
O68    O     0.21230   0.14350   0.17390   0.01267  Uiso   1.00
O69    O     0.07860   0.38010   0.19320   0.01267  Uiso   1.00
O70    O     0.09140   0.47410   0.27590   0.01267  Uiso   1.00
O71    O     0.93390   0.31880   0.22490   0.01267  Uiso   1.00
O72    O     0.92930   0.41330   0.30840   0.01267  Uiso   1.00
O73    O     0.93770   0.32880   0.72940   0.01267  Uiso   1.00
O74    O     0.93590   0.42300   0.81300   0.01267  Uiso   1.00
O75    O     0.08200   0.38860   0.69620   0.01267  Uiso   1.00
O76    O     0.09860   0.48170   0.77900   0.01267  Uiso   1.00
O77    O     0.08520   0.22200   0.69210   0.01267  Uiso   1.00
O78    O     0.21390   0.15070   0.67690   0.01267  Uiso   1.00
O79    O     0.09960   0.26000   0.59730   0.01267  Uiso   1.00
O80    O     0.22870   0.19220   0.57440   0.01267  Uiso   1.00
O81    O     0.93210   0.35340   0.61980   0.01267  Uiso   1.00
O82    O     0.81230   0.33590   0.56110   0.01267  Uiso   1.00
O83    O     0.92650   0.20400   0.62360   0.01267  Uiso   1.00
O84    O     0.80490   0.17710   0.56730   0.01267  Uiso   1.00
O85    O     0.42980   0.24840   0.15640   0.01267  Uiso   1.00
O86    O     0.30050   0.31690   0.17700   0.01267  Uiso   1.00
O87    O     0.44380   0.28210   0.05910   0.01267  Uiso   1.00
O88    O     0.31410   0.35210   0.07280   0.01267  Uiso   1.00
O89    O     0.43680   0.11870   0.05650   0.01267  Uiso   1.00
O90    O     0.41270   0.02970   0.97290   0.01267  Uiso   1.00
O91    O     0.58570   0.17040   0.02230   0.01267  Uiso   1.00
O92    O     0.58290   0.07570   0.93930   0.01267  Uiso   1.00
O93    O     0.60830   0.29330   0.12590   0.01267  Uiso   1.00
O94    O     0.72910   0.31380   0.18300   0.01267  Uiso   1.00
O95    O     0.58950   0.14550   0.13180   0.01267  Uiso   1.00
O96    O     0.71170   0.15360   0.18740   0.01267  Uiso   1.00
O97    O     0.54630   0.71550   0.44140   0.01267  Uiso   1.00
O98    O     0.67160   0.63900   0.42390   0.01267  Uiso   1.00
O99    O     0.56190   0.75490   0.34680   0.01267  Uiso   1.00
O100   O     0.68710   0.68080   0.32230   0.01267  Uiso   1.00
O101   O     0.38490   0.70720   0.37640   0.01267  Uiso   1.00
O102   O     0.26680   0.68460   0.31670   0.01267  Uiso   1.00
O103   O     0.40240   0.85470   0.37040   0.01267  Uiso   1.00
O104   O     0.28600   0.84270   0.31070   0.01267  Uiso   1.00
O105   O     0.40740   0.83240   0.48180   0.01267  Uiso   1.00
O106   O     0.41480   0.92710   0.56510   0.01267  Uiso   1.00
O107   O     0.55620   0.88070   0.44620   0.01267  Uiso   1.00
O108   O     0.58410   0.97060   0.52860   0.01267  Uiso   1.00
O109   O     0.57830   0.69520   0.62070   0.01267  Uiso   1.00
O110   O     0.69910   0.66900   0.56290   0.01267  Uiso   1.00
O111   O     0.57030   0.84390   0.61550   0.01267  Uiso   1.00
O112   O     0.69370   0.82940   0.56060   0.01267  Uiso   1.00
O113   O     0.40400   0.75110   0.59350   0.01267  Uiso   1.00
O114   O     0.27670   0.67990   0.57020   0.01267  Uiso   1.00
O115   O     0.41720   0.71380   0.68890   0.01267  Uiso   1.00
O116   O     0.28770   0.64350   0.67390   0.01267  Uiso   1.00
O117   O     0.42140   0.88010   0.69320   0.01267  Uiso   1.00
O118   O     0.40860   0.97410   0.77590   0.01267  Uiso   1.00
O119   O     0.56610   0.81880   0.72490   0.01267  Uiso   1.00
O120   O     0.57070   0.91330   0.80840   0.01267  Uiso   1.00
O121   O     0.56230   0.82880   0.22940   0.01267  Uiso   1.00
O122   O     0.56410   0.92300   0.31300   0.01267  Uiso   1.00
O123   O     0.41800   0.88860   0.19620   0.01267  Uiso   1.00
O124   O     0.40140   0.98170   0.27900   0.01267  Uiso   1.00
O125   O     0.41480   0.72200   0.19210   0.01267  Uiso   1.00
O126   O     0.28610   0.65070   0.17690   0.01267  Uiso   1.00
O127   O     0.40040   0.76000   0.09730   0.01267  Uiso   1.00
O128   O     0.27130   0.69220   0.07440   0.01267  Uiso   1.00
O129   O     0.56790   0.85340   0.11980   0.01267  Uiso   1.00
O130   O     0.68770   0.83590   0.06110   0.01267  Uiso   1.00
O131   O     0.57350   0.70400   0.12360   0.01267  Uiso   1.00
O132   O     0.69510   0.67710   0.06730   0.01267  Uiso   1.00
O133   O     0.07020   0.74840   0.65640   0.01267  Uiso   1.00
O134   O     0.19950   0.81690   0.67700   0.01267  Uiso   1.00
O135   O     0.05620   0.78210   0.55910   0.01267  Uiso   1.00
O136   O     0.18590   0.85210   0.57280   0.01267  Uiso   1.00
O137   O     0.06320   0.61870   0.55650   0.01267  Uiso   1.00
O138   O     0.08730   0.52970   0.47290   0.01267  Uiso   1.00
O139   O     0.91430   0.67040   0.52230   0.01267  Uiso   1.00
O140   O     0.91710   0.57570   0.43930   0.01267  Uiso   1.00
O141   O     0.89170   0.79330   0.62590   0.01267  Uiso   1.00
O142   O     0.77090   0.81380   0.68300   0.01267  Uiso   1.00
O143   O     0.91050   0.64550   0.63180   0.01267  Uiso   1.00
O144   O     0.78830   0.65360   0.68740   0.01267  Uiso   1.00
O145   O     0.04630   0.78450   0.05860   0.01267  Uiso   1.00
O146   O     0.17160   0.86100   0.07610   0.01267  Uiso   1.00
O147   O     0.06190   0.74510   0.15320   0.01267  Uiso   1.00
O148   O     0.18710   0.81920   0.17770   0.01267  Uiso   1.00
O149   O     0.88490   0.79280   0.12360   0.01267  Uiso   1.00
O150   O     0.76680   0.81540   0.18330   0.01267  Uiso   1.00
O151   O     0.90240   0.64530   0.12960   0.01267  Uiso   1.00
O152   O     0.78600   0.65730   0.18930   0.01267  Uiso   1.00
O153   O     0.90740   0.66760   0.01820   0.01267  Uiso   1.00
O154   O     0.91480   0.57290   0.93490   0.01267  Uiso   1.00
O155   O     0.05620   0.61930   0.05380   0.01267  Uiso   1.00
O156   O     0.08410   0.52940   0.97140   0.01267  Uiso   1.00
O157   O     0.07830   0.80480   0.87930   0.01267  Uiso   1.00
O158   O     0.19910   0.83100   0.93710   0.01267  Uiso   1.00
O159   O     0.07030   0.65610   0.88450   0.01267  Uiso   1.00
O160   O     0.19370   0.67060   0.93940   0.01267  Uiso   1.00
O161   O     0.90400   0.74890   0.90650   0.01267  Uiso   1.00
O162   O     0.77670   0.82010   0.92980   0.01267  Uiso   1.00
O163   O     0.91720   0.78620   0.81110   0.01267  Uiso   1.00
O164   O     0.78770   0.85650   0.82610   0.01267  Uiso   1.00
O165   O     0.92140   0.61990   0.80680   0.01267  Uiso   1.00
O166   O     0.90860   0.52590   0.72410   0.01267  Uiso   1.00
O167   O     0.06610   0.68120   0.77510   0.01267  Uiso   1.00
O168   O     0.07070   0.58670   0.69160   0.01267  Uiso   1.00
O169   O     0.06230   0.67120   0.27060   0.01267  Uiso   1.00
O170   O     0.06410   0.57700   0.18700   0.01267  Uiso   1.00
O171   O     0.91800   0.61140   0.30380   0.01267  Uiso   1.00
O172   O     0.90140   0.51830   0.22100   0.01267  Uiso   1.00
O173   O     0.91480   0.77800   0.30790   0.01267  Uiso   1.00
O174   O     0.78610   0.84930   0.32310   0.01267  Uiso   1.00
O175   O     0.90040   0.74000   0.40270   0.01267  Uiso   1.00
O176   O     0.77130   0.80780   0.42560   0.01267  Uiso   1.00
O177   O     0.06790   0.64660   0.38020   0.01267  Uiso   1.00
O178   O     0.18770   0.66410   0.43890   0.01267  Uiso   1.00
O179   O     0.07350   0.79600   0.37640   0.01267  Uiso   1.00
O180   O     0.19510   0.82290   0.43270   0.01267  Uiso   1.00
O181   O     0.57020   0.75160   0.84360   0.01267  Uiso   1.00
O182   O     0.69950   0.68310   0.82300   0.01267  Uiso   1.00
O183   O     0.55620   0.71790   0.94090   0.01267  Uiso   1.00
O184   O     0.68590   0.64790   0.92720   0.01267  Uiso   1.00
O185   O     0.56320   0.88130   0.94350   0.01267  Uiso   1.00
O186   O     0.58730   0.97030   0.02710   0.01267  Uiso   1.00
O187   O     0.41430   0.82960   0.97770   0.01267  Uiso   1.00
O188   O     0.41710   0.92430   0.06070   0.01267  Uiso   1.00
O189   O     0.39170   0.70670   0.87410   0.01267  Uiso   1.00
O190   O     0.27090   0.68620   0.81700   0.01267  Uiso   1.00
O191   O     0.41050   0.85450   0.86820   0.01267  Uiso   1.00
O192   O     0.28830   0.84640   0.81260   0.01267  Uiso   1.00
