data_WOQDUB_charged
_audit_creation_date              2014-07-02
_audit_creation_method            'Materials Studio'
_symmetry_space_group_name_H-M    'P1'
_symmetry_Int_Tables_number       1
_symmetry_cell_setting            triclinic
loop_
_symmetry_equiv_pos_as_xyz
  x,y,z
_cell_length_a                    14.0110
_cell_length_b                    18.8220
_cell_length_c                    23.4210
_cell_angle_alpha                 90.0000
_cell_angle_beta                  90.0000
_cell_angle_gamma                 90.0000
loop_
_atom_site_label
_atom_site_type_symbol
_atom_site_fract_x
_atom_site_fract_y
_atom_site_fract_z
_atom_site_U_iso_or_equiv
_atom_site_adp_type
_atom_site_occupancy
Dy1    Dy    0.25897   0.89156   0.91948   0.01267  Uiso   1.00
Dy2    Dy    0.25546   0.08996   0.89634   0.01267  Uiso   1.00
Dy3    Dy    0.40280   0.01498   0.01399   0.01267  Uiso   1.00
Dy4    Dy    0.12851   0.00639   0.02324   0.01267  Uiso   1.00
Dy5    Dy    0.24103   0.10844   0.41948   0.01267  Uiso   1.00
Dy6    Dy    0.24454   0.91004   0.39634   0.01267  Uiso   1.00
Dy7    Dy    0.09720   0.98502   0.51399   0.01267  Uiso   1.00
Dy8    Dy    0.37149   0.99361   0.52324   0.01267  Uiso   1.00
Dy9    Dy    0.74103   0.39156   0.58052   0.01267  Uiso   1.00
Dy10   Dy    0.74454   0.58996   0.60366   0.01267  Uiso   1.00
Dy11   Dy    0.59720   0.51498   0.48601   0.01267  Uiso   1.00
Dy12   Dy    0.87149   0.50639   0.47676   0.01267  Uiso   1.00
Dy13   Dy    0.75897   0.60844   0.08052   0.01267  Uiso   1.00
Dy14   Dy    0.75546   0.41004   0.10366   0.01267  Uiso   1.00
Dy15   Dy    0.90280   0.48502   0.98601   0.01267  Uiso   1.00
Dy16   Dy    0.62851   0.49361   0.97676   0.01267  Uiso   1.00
H1     H     0.00110   0.31140   0.92700   0.01267  Uiso   1.00
H2     H     0.10000   0.28510   0.91730   0.01267  Uiso   1.00
H3     H     0.46700   0.66950   0.92100   0.01267  Uiso   1.00
H4     H     0.43920   0.74490   0.91150   0.01267  Uiso   1.00
H5     H     0.09410   0.00810   0.74290   0.01267  Uiso   1.00
H6     H     0.09410   0.06420   0.69800   0.01267  Uiso   1.00
H7     H     0.08710   0.26330   0.01040   0.01267  Uiso   1.00
H8     H     0.90510   0.21680   0.99550   0.01267  Uiso   1.00
H9     H     0.96480   0.21570   0.05190   0.01267  Uiso   1.00
H10    H     0.59440   0.76690   0.94670   0.01267  Uiso   1.00
H11    H     0.55610   0.79100   0.04370   0.01267  Uiso   1.00
H12    H     0.46070   0.74820   0.03740   0.01267  Uiso   1.00
H13    H     0.25960   0.04910   0.70400   0.01267  Uiso   1.00
H14    H     0.22640   0.90420   0.72290   0.01267  Uiso   1.00
H15    H     0.32710   0.93930   0.71590   0.01267  Uiso   1.00
H16    H     0.49890   0.68860   0.42700   0.01267  Uiso   1.00
H17    H     0.40000   0.71490   0.41730   0.01267  Uiso   1.00
H18    H     0.03300   0.33050   0.42100   0.01267  Uiso   1.00
H19    H     0.06080   0.25510   0.41150   0.01267  Uiso   1.00
H20    H     0.40590   0.99190   0.24290   0.01267  Uiso   1.00
H21    H     0.40590   0.93580   0.19800   0.01267  Uiso   1.00
H22    H     0.41290   0.73670   0.51040   0.01267  Uiso   1.00
H23    H     0.59490   0.78320   0.49550   0.01267  Uiso   1.00
H24    H     0.53520   0.78430   0.55190   0.01267  Uiso   1.00
H25    H     0.90560   0.23310   0.44670   0.01267  Uiso   1.00
H26    H     0.94390   0.20900   0.54370   0.01267  Uiso   1.00
H27    H     0.03930   0.25180   0.53740   0.01267  Uiso   1.00
H28    H     0.24040   0.95090   0.20400   0.01267  Uiso   1.00
H29    H     0.27360   0.09580   0.22290   0.01267  Uiso   1.00
H30    H     0.17290   0.06070   0.21590   0.01267  Uiso   1.00
H31    H     0.99890   0.81140   0.57300   0.01267  Uiso   1.00
H32    H     0.90000   0.78510   0.58270   0.01267  Uiso   1.00
H33    H     0.53300   0.16950   0.57900   0.01267  Uiso   1.00
H34    H     0.56080   0.24490   0.58850   0.01267  Uiso   1.00
H35    H     0.90590   0.50810   0.75710   0.01267  Uiso   1.00
H36    H     0.90590   0.56420   0.80200   0.01267  Uiso   1.00
H37    H     0.91290   0.76330   0.48960   0.01267  Uiso   1.00
H38    H     0.09490   0.71680   0.50450   0.01267  Uiso   1.00
H39    H     0.03520   0.71570   0.44810   0.01267  Uiso   1.00
H40    H     0.40560   0.26690   0.55330   0.01267  Uiso   1.00
H41    H     0.44390   0.29100   0.45630   0.01267  Uiso   1.00
H42    H     0.53930   0.24820   0.46260   0.01267  Uiso   1.00
H43    H     0.74040   0.54910   0.79600   0.01267  Uiso   1.00
H44    H     0.77360   0.40420   0.77710   0.01267  Uiso   1.00
H45    H     0.67290   0.43930   0.78410   0.01267  Uiso   1.00
H46    H     0.50110   0.18860   0.07300   0.01267  Uiso   1.00
H47    H     0.60000   0.21490   0.08270   0.01267  Uiso   1.00
H48    H     0.96700   0.83050   0.07900   0.01267  Uiso   1.00
H49    H     0.93920   0.75510   0.08850   0.01267  Uiso   1.00
H50    H     0.59410   0.49190   0.25710   0.01267  Uiso   1.00
H51    H     0.59410   0.43580   0.30200   0.01267  Uiso   1.00
H52    H     0.58710   0.23670   0.98960   0.01267  Uiso   1.00
H53    H     0.40510   0.28320   0.00450   0.01267  Uiso   1.00
H54    H     0.46480   0.28430   0.94810   0.01267  Uiso   1.00
H55    H     0.09440   0.73310   0.05330   0.01267  Uiso   1.00
H56    H     0.05610   0.70900   0.95630   0.01267  Uiso   1.00
H57    H     0.96070   0.75180   0.96260   0.01267  Uiso   1.00
H58    H     0.75960   0.45090   0.29600   0.01267  Uiso   1.00
H59    H     0.72640   0.59580   0.27710   0.01267  Uiso   1.00
H60    H     0.82710   0.56070   0.28410   0.01267  Uiso   1.00
C1     C     0.08230   0.16850   0.97240   0.01267  Uiso   1.00
C2     C     0.04070   0.24240   0.98390   0.01267  Uiso   1.00
C3     C     0.95340   0.24220   0.01700   0.01267  Uiso   1.00
C4     C     0.91370   0.31430   0.03290   0.01267  Uiso   1.00
C5     C     0.60040   0.67070   0.98930   0.01267  Uiso   1.00
C6     C     0.54880   0.73660   0.96700   0.01267  Uiso   1.00
C7     C     0.50560   0.77840   0.01730   0.01267  Uiso   1.00
C8     C     0.45450   0.84590   0.99840   0.01267  Uiso   1.00
C9     C     0.22300   0.99240   0.63440   0.01267  Uiso   1.00
C10    C     0.21830   0.00790   0.69760   0.01267  Uiso   1.00
C11    C     0.26290   0.94700   0.73000   0.01267  Uiso   1.00
C12    C     0.26720   0.96050   0.79583   0.01267  Uiso   1.00
C13    C     0.41770   0.83150   0.47240   0.01267  Uiso   1.00
C14    C     0.45930   0.75760   0.48390   0.01267  Uiso   1.00
C15    C     0.54660   0.75780   0.51700   0.01267  Uiso   1.00
C16    C     0.58630   0.68570   0.53290   0.01267  Uiso   1.00
C17    C     0.89960   0.32930   0.48930   0.01267  Uiso   1.00
C18    C     0.95120   0.26340   0.46700   0.01267  Uiso   1.00
C19    C     0.99440   0.22160   0.51730   0.01267  Uiso   1.00
C20    C     0.04550   0.15410   0.49840   0.01267  Uiso   1.00
C21    C     0.27700   0.00760   0.13440   0.01267  Uiso   1.00
C22    C     0.28170   0.99210   0.19760   0.01267  Uiso   1.00
C23    C     0.23710   0.05300   0.23000   0.01267  Uiso   1.00
C24    C     0.23280   0.03950   0.29583   0.01267  Uiso   1.00
C25    C     0.91770   0.66850   0.52760   0.01267  Uiso   1.00
C26    C     0.95930   0.74240   0.51610   0.01267  Uiso   1.00
C27    C     0.04660   0.74220   0.48300   0.01267  Uiso   1.00
C28    C     0.08630   0.81430   0.46710   0.01267  Uiso   1.00
C29    C     0.39960   0.17070   0.51070   0.01267  Uiso   1.00
C30    C     0.45120   0.23660   0.53300   0.01267  Uiso   1.00
C31    C     0.49440   0.27840   0.48270   0.01267  Uiso   1.00
C32    C     0.54550   0.34590   0.50160   0.01267  Uiso   1.00
C33    C     0.77700   0.49240   0.86560   0.01267  Uiso   1.00
C34    C     0.78170   0.50790   0.80240   0.01267  Uiso   1.00
C35    C     0.73710   0.44700   0.77000   0.01267  Uiso   1.00
C36    C     0.73280   0.46050   0.70417   0.01267  Uiso   1.00
C37    C     0.58230   0.33150   0.02760   0.01267  Uiso   1.00
C38    C     0.54070   0.25760   0.01610   0.01267  Uiso   1.00
C39    C     0.45340   0.25780   0.98300   0.01267  Uiso   1.00
C40    C     0.41370   0.18570   0.96710   0.01267  Uiso   1.00
C41    C     0.10040   0.82930   0.01070   0.01267  Uiso   1.00
C42    C     0.04880   0.76340   0.03300   0.01267  Uiso   1.00
C43    C     0.00560   0.72160   0.98270   0.01267  Uiso   1.00
C44    C     0.95450   0.65410   0.00160   0.01267  Uiso   1.00
C45    C     0.72300   0.50760   0.36560   0.01267  Uiso   1.00
C46    C     0.71830   0.49210   0.30240   0.01267  Uiso   1.00
C47    C     0.76290   0.55300   0.27000   0.01267  Uiso   1.00
C48    C     0.76720   0.53950   0.20417   0.01267  Uiso   1.00
N1     N     0.04820   0.28490   0.93700   0.01267  Uiso   1.00
N2     N     0.47500   0.71390   0.92790   0.01267  Uiso   1.00
N3     N     0.12230   0.02970   0.71530   0.01267  Uiso   1.00
N4     N     0.45180   0.71510   0.43700   0.01267  Uiso   1.00
N5     N     0.02500   0.28610   0.42790   0.01267  Uiso   1.00
N6     N     0.37770   0.97030   0.21530   0.01267  Uiso   1.00
N7     N     0.95180   0.78490   0.56300   0.01267  Uiso   1.00
N8     N     0.52500   0.21390   0.57210   0.01267  Uiso   1.00
N9     N     0.87770   0.52970   0.78470   0.01267  Uiso   1.00
N10    N     0.54820   0.21510   0.06300   0.01267  Uiso   1.00
N11    N     0.97500   0.78610   0.07210   0.01267  Uiso   1.00
N12    N     0.62230   0.47030   0.28470   0.01267  Uiso   1.00
O1     O     0.26993   0.93852   0.01164   0.01267  Uiso   1.00
O2     O     0.16026   0.99087   0.92574   0.01267  Uiso   1.00
O3     O     0.26170   0.07644   0.99909   0.01267  Uiso   1.00
O4     O     0.35702   0.99635   0.92016   0.01267  Uiso   1.00
O5     O     0.06960   0.12150   0.01130   0.01267  Uiso   1.00
O6     O     0.13250   0.16210   0.93010   0.01267  Uiso   1.00
O7     O     0.84370   0.31311   0.06863   0.01267  Uiso   1.00
O8     O     0.94760   0.36648   0.01097   0.01267  Uiso   1.00
O9     O     0.66740   0.68412   0.02367   0.01267  Uiso   1.00
O10    O     0.57570   0.61267   0.97223   0.01267  Uiso   1.00
O11    O     0.46330   0.90115   0.02817   0.01267  Uiso   1.00
O12    O     0.40160   0.84349   0.95462   0.01267  Uiso   1.00
O13    O     0.14660   0.98750   0.60821   0.01267  Uiso   1.00
O14    O     0.30430   0.98860   0.61454   0.01267  Uiso   1.00
O15    O     0.24280   0.01849   0.81368   0.01267  Uiso   1.00
O16    O     0.29790   0.90830   0.82466   0.01267  Uiso   1.00
O17    O     0.11270   0.86980   0.86330   0.01267  Uiso   1.00
O18    O     0.27730   0.77362   0.87774   0.01267  Uiso   1.00
O19    O     0.39380   0.11060   0.83480   0.01267  Uiso   1.00
O20    O     0.21430   0.17370   0.82344   0.01267  Uiso   1.00
O21    O     0.55320   0.00830   0.96201   0.01267  Uiso   1.00
O22    O     0.53390   0.04840   0.07681   0.01267  Uiso   1.00
O23    O     0.00440   0.01720   0.09558   0.01267  Uiso   1.00
O24    O     0.97190   0.99720   0.97580   0.01267  Uiso   1.00
O25    O     0.23007   0.06148   0.51164   0.01267  Uiso   1.00
O26    O     0.33974   0.00913   0.42574   0.01267  Uiso   1.00
O27    O     0.23830   0.92356   0.49909   0.01267  Uiso   1.00
O28    O     0.14298   0.00365   0.42016   0.01267  Uiso   1.00
O29    O     0.43040   0.87850   0.51130   0.01267  Uiso   1.00
O30    O     0.36750   0.83790   0.43010   0.01267  Uiso   1.00
O31    O     0.65630   0.68689   0.56863   0.01267  Uiso   1.00
O32    O     0.55240   0.63352   0.51097   0.01267  Uiso   1.00
O33    O     0.83260   0.31588   0.52367   0.01267  Uiso   1.00
O34    O     0.92430   0.38733   0.47223   0.01267  Uiso   1.00
O35    O     0.03670   0.09885   0.52817   0.01267  Uiso   1.00
O36    O     0.09840   0.15651   0.45462   0.01267  Uiso   1.00
O37    O     0.35340   0.01250   0.10821   0.01267  Uiso   1.00
O38    O     0.19570   0.01140   0.11454   0.01267  Uiso   1.00
O39    O     0.25720   0.98151   0.31368   0.01267  Uiso   1.00
O40    O     0.20210   0.09170   0.32466   0.01267  Uiso   1.00
O41    O     0.38730   0.13020   0.36330   0.01267  Uiso   1.00
O42    O     0.22270   0.22638   0.37774   0.01267  Uiso   1.00
O43    O     0.10620   0.88940   0.33480   0.01267  Uiso   1.00
O44    O     0.28570   0.82630   0.32344   0.01267  Uiso   1.00
O45    O     0.94680   0.99170   0.46201   0.01267  Uiso   1.00
O46    O     0.96610   0.95160   0.57681   0.01267  Uiso   1.00
O47    O     0.49560   0.98280   0.59558   0.01267  Uiso   1.00
O48    O     0.52810   0.00280   0.47580   0.01267  Uiso   1.00
O49    O     0.73007   0.43852   0.48836   0.01267  Uiso   1.00
O50    O     0.83974   0.49087   0.57426   0.01267  Uiso   1.00
O51    O     0.73830   0.57644   0.50091   0.01267  Uiso   1.00
O52    O     0.64298   0.49635   0.57984   0.01267  Uiso   1.00
O53    O     0.93040   0.62150   0.48870   0.01267  Uiso   1.00
O54    O     0.86750   0.66210   0.56990   0.01267  Uiso   1.00
O55    O     0.15630   0.81311   0.43137   0.01267  Uiso   1.00
O56    O     0.05240   0.86648   0.48903   0.01267  Uiso   1.00
O57    O     0.33260   0.18412   0.47633   0.01267  Uiso   1.00
O58    O     0.42430   0.11267   0.52777   0.01267  Uiso   1.00
O59    O     0.53670   0.40115   0.47183   0.01267  Uiso   1.00
O60    O     0.59840   0.34349   0.54538   0.01267  Uiso   1.00
O61    O     0.85340   0.48750   0.89179   0.01267  Uiso   1.00
O62    O     0.69570   0.48860   0.88546   0.01267  Uiso   1.00
O63    O     0.75720   0.51849   0.68632   0.01267  Uiso   1.00
O64    O     0.70210   0.40830   0.67534   0.01267  Uiso   1.00
O65    O     0.88730   0.36980   0.63670   0.01267  Uiso   1.00
O66    O     0.72270   0.27362   0.62226   0.01267  Uiso   1.00
O67    O     0.60620   0.61060   0.66520   0.01267  Uiso   1.00
O68    O     0.78570   0.67370   0.67656   0.01267  Uiso   1.00
O69    O     0.44680   0.50830   0.53799   0.01267  Uiso   1.00
O70    O     0.46610   0.54840   0.42319   0.01267  Uiso   1.00
O71    O     0.99560   0.51720   0.40442   0.01267  Uiso   1.00
O72    O     0.02810   0.49720   0.52420   0.01267  Uiso   1.00
O73    O     0.76993   0.56148   0.98836   0.01267  Uiso   1.00
O74    O     0.66026   0.50913   0.07426   0.01267  Uiso   1.00
O75    O     0.76170   0.42356   0.00091   0.01267  Uiso   1.00
O76    O     0.85702   0.50365   0.07984   0.01267  Uiso   1.00
O77    O     0.56960   0.37850   0.98870   0.01267  Uiso   1.00
O78    O     0.63250   0.33790   0.06990   0.01267  Uiso   1.00
O79    O     0.34370   0.18689   0.93137   0.01267  Uiso   1.00
O80    O     0.44760   0.13352   0.98903   0.01267  Uiso   1.00
O81    O     0.16740   0.81588   0.97633   0.01267  Uiso   1.00
O82    O     0.07570   0.88733   0.02777   0.01267  Uiso   1.00
O83    O     0.96330   0.59885   0.97183   0.01267  Uiso   1.00
O84    O     0.90160   0.65651   0.04538   0.01267  Uiso   1.00
O85    O     0.64660   0.51250   0.39179   0.01267  Uiso   1.00
O86    O     0.80430   0.51140   0.38546   0.01267  Uiso   1.00
O87    O     0.74280   0.48151   0.18632   0.01267  Uiso   1.00
O88    O     0.79790   0.59170   0.17534   0.01267  Uiso   1.00
O89    O     0.61270   0.63020   0.13670   0.01267  Uiso   1.00
O90    O     0.77730   0.72638   0.12226   0.01267  Uiso   1.00
O91    O     0.89380   0.38940   0.16520   0.01267  Uiso   1.00
O92    O     0.71430   0.32630   0.17656   0.01267  Uiso   1.00
O93    O     0.05320   0.49170   0.03799   0.01267  Uiso   1.00
O94    O     0.03390   0.45160   0.92319   0.01267  Uiso   1.00
O95    O     0.50440   0.48280   0.90442   0.01267  Uiso   1.00
O96    O     0.47190   0.50280   0.02420   0.01267  Uiso   1.00
Cl1    Cl    0.25735   0.22128   0.11417   0.01267  Uiso   1.00
O97    O     0.24410   0.29200   0.13390   0.01267  Uiso   1.00
O98    O     0.34630   0.18910   0.13380   0.01267  Uiso   1.00
O99    O     0.17610   0.17510   0.13010   0.01267  Uiso   1.00
O100   O     0.25810   0.22180   0.05080   0.01267  Uiso   1.00
Cl2    Cl    0.27290   0.79183   0.14735   0.01267  Uiso   1.00
O101   O     0.16670   0.79640   0.15290   0.01267  Uiso   1.00
O102   O     0.30880   0.72120   0.14750   0.01267  Uiso   1.00
O103   O     0.30260   0.83740   0.10200   0.01267  Uiso   1.00
O104   O     0.30370   0.82830   0.20310   0.01267  Uiso   1.00
Cl3    Cl    0.24265   0.77872   0.61417   0.01267  Uiso   1.00
O105   O     0.25590   0.70800   0.63390   0.01267  Uiso   1.00
O106   O     0.15370   0.81090   0.63380   0.01267  Uiso   1.00
O107   O     0.32390   0.82490   0.63010   0.01267  Uiso   1.00
O108   O     0.24190   0.77820   0.55080   0.01267  Uiso   1.00
Cl4    Cl    0.22710   0.20817   0.64735   0.01267  Uiso   1.00
O109   O     0.33330   0.20360   0.65290   0.01267  Uiso   1.00
O110   O     0.19120   0.27880   0.64750   0.01267  Uiso   1.00
O111   O     0.19740   0.16260   0.60200   0.01267  Uiso   1.00
O112   O     0.19630   0.17170   0.70310   0.01267  Uiso   1.00
Cl5    Cl    0.74265   0.72128   0.38583   0.01267  Uiso   1.00
O113   O     0.75590   0.79200   0.36610   0.01267  Uiso   1.00
O114   O     0.65370   0.68910   0.36620   0.01267  Uiso   1.00
O115   O     0.82390   0.67510   0.36990   0.01267  Uiso   1.00
O116   O     0.74190   0.72180   0.44920   0.01267  Uiso   1.00
Cl6    Cl    0.72710   0.29183   0.35265   0.01267  Uiso   1.00
O117   O     0.83330   0.29640   0.34710   0.01267  Uiso   1.00
O118   O     0.69120   0.22120   0.35250   0.01267  Uiso   1.00
O119   O     0.69740   0.33740   0.39800   0.01267  Uiso   1.00
O120   O     0.69630   0.32830   0.29690   0.01267  Uiso   1.00
Cl7    Cl    0.75735   0.27872   0.88583   0.01267  Uiso   1.00
O121   O     0.74410   0.20800   0.86610   0.01267  Uiso   1.00
O122   O     0.84630   0.31090   0.86620   0.01267  Uiso   1.00
O123   O     0.67610   0.32490   0.86990   0.01267  Uiso   1.00
O124   O     0.75810   0.27820   0.94920   0.01267  Uiso   1.00
Cl8    Cl    0.77290   0.70817   0.85265   0.01267  Uiso   1.00
O125   O     0.66670   0.70360   0.84710   0.01267  Uiso   1.00
O126   O     0.80880   0.77880   0.85250   0.01267  Uiso   1.00
O127   O     0.80260   0.66260   0.89800   0.01267  Uiso   1.00
O128   O     0.80370   0.67170   0.79690   0.01267  Uiso   1.00
