data_image0
_cell_length_a       9.956
_cell_length_b       11.208
_cell_length_c       10.615
_cell_angle_alpha    90
_cell_angle_beta     113.53
_cell_angle_gamma    90

_symmetry_space_group_name_H-M    "P 1"
_symmetry_int_tables_number       1

loop_
  _symmetry_equiv_pos_as_xyz
  'x, y, z'

loop_
  _atom_site_label
  _atom_site_occupancy
  _atom_site_fract_x
  _atom_site_fract_y
  _atom_site_fract_z
  _atom_site_thermal_displace_type
  _atom_site_B_iso_or_equiv
  _atom_site_type_symbol
  Zr1      1.0000 0.91040  0.16416  0.72238  Biso   1.000  Zr
  Rb1      1.0000 0.61900  0.56902  0.61550  Biso   1.000  Rb
  N1       1.0000 0.06550  0.27077  0.93338  Biso   1.000  N
  N2       1.0000 0.95920  0.01011  0.57988  Biso   1.000  N
  C1       1.0000 0.08570  0.39400  0.89500  Biso   1.000  C
  C2       1.0000 0.20490  0.20400  0.99480  Biso   1.000  C
  C3       1.0000 0.99130  0.26950  0.03060  Biso   1.000  C
  C4       1.0000 0.95310  0.43630  0.77350  Biso   1.000  C
  C5       1.0000 0.16930  0.07200  0.98160  Biso   1.000  C
  C6       1.0000 0.83490  0.22690  0.96870  Biso   1.000  C
  C7       1.0000 0.91660  0.89340  0.61630  Biso   1.000  C
  C8       1.0000 0.11760  0.01450  0.60860  Biso   1.000  C
  C9       1.0000 0.86960  0.03920  0.43320  Biso   1.000  C
  C10      1.0000 0.78660  0.90600  0.65340  Biso   1.000  C
  C11      1.0000 0.17180  0.14210  0.63600  Biso   1.000  C
  C12      1.0000 0.74540  0.12470  0.41200  Biso   1.000  C
  O1       1.0000 0.93230  0.54378  0.74920  Biso   1.000  O
  O2       1.0000 0.87107  0.35425  0.69673  Biso   1.000  O
  O3       1.0000 0.24340  0.00033  0.06670  Biso   1.000  O
  O4       1.0000 0.05415  0.04468  0.87143  Biso   1.000  O
  O5       1.0000 0.76360  0.22227  0.03970  Biso   1.000  O
  O6       1.0000 0.78476  0.19112  0.84306  Biso   1.000  O
  O7       1.0000 0.71430  0.81789  0.65520  Biso   1.000  O
  O8       1.0000 0.76120  0.01119  0.68490  Biso   1.000  O
  O9       1.0000 0.28296  0.17100  0.62110  Biso   1.000  O
  O10      1.0000 0.09570  0.21260  0.67856  Biso   1.000  O
  O11      1.0000 0.64150  0.13160  0.30180  Biso   1.000  O
  O12      1.0000 0.76150  0.19300  0.51473  Biso   1.000  O
  H1       1.0000 0.10700  0.44800  0.96600  Biso   1.000  H
  H2       1.0000 0.16600  0.39700  0.86400  Biso   1.000  H
  H3       1.0000 0.25900  0.23000  0.08400  Biso   1.000  H
  H4       1.0000 0.26000  0.22300  0.93900  Biso   1.000  H
  H5       1.0000 0.04100  0.21300  0.10600  Biso   1.000  H
  H6       1.0000 0.99800  0.34400  0.06500  Biso   1.000  H
  H7       1.0000 0.00000  0.86300  0.69200  Biso   1.000  H
  H8       1.0000 0.90100  0.83900  0.55500  Biso   1.000  H
  H9       1.0000 0.14000  0.98500  0.53900  Biso   1.000  H
  H10      1.0000 0.17100  0.97200  0.69400  Biso   1.000  H
  H11      1.0000 0.83500  0.96500  0.38000  Biso   1.000  H
  H12      1.0000 0.93700  0.08100  0.39400  Biso   1.000  H
  Zr2      1.0000 0.08960  0.66416  0.27762  Biso   1.000  Zr
  Rb2      1.0000 0.38100  0.06902  0.38450  Biso   1.000  Rb
  N3       1.0000 0.93450  0.77077  0.06662  Biso   1.000  N
  N4       1.0000 0.04080  0.51011  0.42012  Biso   1.000  N
  C13      1.0000 0.91430  0.89400  0.10500  Biso   1.000  C
  C14      1.0000 0.79510  0.70400  0.00520  Biso   1.000  C
  C15      1.0000 0.00870  0.76950  0.96940  Biso   1.000  C
  C16      1.0000 0.04690  0.93630  0.22650  Biso   1.000  C
  C17      1.0000 0.83070  0.57200  0.01840  Biso   1.000  C
  C18      1.0000 0.16510  0.72690  0.03130  Biso   1.000  C
  C19      1.0000 0.08340  0.39340  0.38370  Biso   1.000  C
  C20      1.0000 0.88240  0.51450  0.39140  Biso   1.000  C
  C21      1.0000 0.13040  0.53920  0.56680  Biso   1.000  C
  C22      1.0000 0.21340  0.40600  0.34660  Biso   1.000  C
  C23      1.0000 0.82820  0.64210  0.36400  Biso   1.000  C
  C24      1.0000 0.25460  0.62470  0.58800  Biso   1.000  C
  O13      1.0000 0.06770  0.04378  0.25080  Biso   1.000  O
  O14      1.0000 0.12893  0.85425  0.30327  Biso   1.000  O
  O15      1.0000 0.75660  0.50033  0.93330  Biso   1.000  O
  O16      1.0000 0.94585  0.54468  0.12857  Biso   1.000  O
  O17      1.0000 0.23640  0.72227  0.96030  Biso   1.000  O
  O18      1.0000 0.21524  0.69112  0.15694  Biso   1.000  O
  O19      1.0000 0.28570  0.31789  0.34480  Biso   1.000  O
  O20      1.0000 0.23880  0.51119  0.31510  Biso   1.000  O
  O21      1.0000 0.71704  0.67100  0.37890  Biso   1.000  O
  O22      1.0000 0.90430  0.71260  0.32144  Biso   1.000  O
  O23      1.0000 0.35850  0.63160  0.69820  Biso   1.000  O
  O24      1.0000 0.23850  0.69300  0.48527  Biso   1.000  O
  H13      1.0000 0.89300  0.94800  0.03400  Biso   1.000  H
  H14      1.0000 0.83400  0.89700  0.13600  Biso   1.000  H
  H15      1.0000 0.74100  0.73000  0.91600  Biso   1.000  H
  H16      1.0000 0.74000  0.72300  0.06100  Biso   1.000  H
  H17      1.0000 0.95900  0.71300  0.89400  Biso   1.000  H
  H18      1.0000 0.00200  0.84400  0.93500  Biso   1.000  H
  H19      1.0000 0.00000  0.36300  0.30800  Biso   1.000  H
  H20      1.0000 0.09900  0.33900  0.44500  Biso   1.000  H
  H21      1.0000 0.86000  0.48500  0.46100  Biso   1.000  H
  H22      1.0000 0.82900  0.47200  0.30600  Biso   1.000  H
  H23      1.0000 0.16500  0.46500  0.62000  Biso   1.000  H
  H24      1.0000 0.06300  0.58100  0.60600  Biso   1.000  H
