data_image0
_cell_length_a       26.2736
_cell_length_b       26.2736
_cell_length_c       6.7213
_cell_angle_alpha    90
_cell_angle_beta     90
_cell_angle_gamma    120

_symmetry_space_group_name_H-M    "P 1"
_symmetry_int_tables_number       1

loop_
  _symmetry_equiv_pos_as_xyz
  'x, y, z'

loop_
  _atom_site_label
  _atom_site_occupancy
  _atom_site_fract_x
  _atom_site_fract_y
  _atom_site_fract_z
  _atom_site_thermal_displace_type
  _atom_site_B_iso_or_equiv
  _atom_site_type_symbol
  C1       1.0000 0.42180  0.40830  0.25330  Biso   1.000  C
  C2       1.0000 0.46110  0.45280  0.12330  Biso   1.000  C
  C3       1.0000 0.55730  0.54220  0.06980  Biso   1.000  C
  C4       1.0000 0.51830  0.49680  0.19580  Biso   1.000  C
  H1       1.0000 0.52910  0.49550  0.33290  Biso   1.000  H
  Fe1      1.0000 0.61356  0.64838  0.34420  Biso   1.000  Fe
  O1       1.0000 0.43910  0.40460  0.42590  Biso   1.000  O
  O2       1.0000 0.37463  0.36600  0.18580  Biso   1.000  O
  O3       1.0000 0.61027  0.58670  0.14470  Biso   1.000  O
  O4       1.0000 0.54290  0.65780  0.19700  Biso   1.000  O
  H2       1.0000 0.56330  0.63600  0.19200  Biso   1.000  H
  C5       1.0000 0.48510  0.61490  0.22200  Biso   1.000  C
  H3       1.0000 0.46000  0.62500  0.12900  Biso   1.000  H
  H4       1.0000 0.48110  0.57450  0.18100  Biso   1.000  H
  H5       1.0000 0.47400  0.61400  0.37200  Biso   1.000  H
  C6       1.0000 0.08847  0.74163  0.58663  Biso   1.000  C
  C7       1.0000 0.12777  0.78613  0.45663  Biso   1.000  C
  C8       1.0000 0.22397  0.87553  0.40313  Biso   1.000  C
  C9       1.0000 0.18497  0.83013  0.52913  Biso   1.000  C
  H6       1.0000 0.19577  0.82883  0.66623  Biso   1.000  H
  Fe2      1.0000 0.28023  0.98171  0.67753  Biso   1.000  Fe
  O5       1.0000 0.10577  0.73793  0.75923  Biso   1.000  O
  O6       1.0000 0.04130  0.69933  0.51913  Biso   1.000  O
  O7       1.0000 0.27694  0.92003  0.47803  Biso   1.000  O
  O8       1.0000 0.20957  0.99113  0.53033  Biso   1.000  O
  H7       1.0000 0.22997  0.96933  0.52533  Biso   1.000  H
  C10      1.0000 0.15177  0.94823  0.55533  Biso   1.000  C
  H8       1.0000 0.12667  0.95833  0.46233  Biso   1.000  H
  H9       1.0000 0.14777  0.90783  0.51433  Biso   1.000  H
  H10      1.0000 0.14067  0.94733  0.70533  Biso   1.000  H
  C11      1.0000 0.75513  0.07497  0.91997  Biso   1.000  C
  C12      1.0000 0.79443  0.11947  0.78997  Biso   1.000  C
  C13      1.0000 0.89063  0.20887  0.73647  Biso   1.000  C
  C14      1.0000 0.85163  0.16347  0.86247  Biso   1.000  C
  H11      1.0000 0.86243  0.16217  0.99957  Biso   1.000  H
  Fe3      1.0000 0.94689  0.31505  0.01087  Biso   1.000  Fe
  O9       1.0000 0.77243  0.07127  0.09257  Biso   1.000  O
  O10      1.0000 0.70796  0.03267  0.85247  Biso   1.000  O
  O11      1.0000 0.94360  0.25337  0.81137  Biso   1.000  O
  O12      1.0000 0.87623  0.32447  0.86367  Biso   1.000  O
  H12      1.0000 0.89663  0.30267  0.85867  Biso   1.000  H
  C15      1.0000 0.81843  0.28157  0.88867  Biso   1.000  C
  H13      1.0000 0.79333  0.29167  0.79567  Biso   1.000  H
  H14      1.0000 0.81443  0.24117  0.84767  Biso   1.000  H
  H15      1.0000 0.80733  0.28067  0.03867  Biso   1.000  H
  C16      1.0000 0.59170  0.01350  0.25330  Biso   1.000  C
  C17      1.0000 0.54720  0.00830  0.12330  Biso   1.000  C
  C18      1.0000 0.45780  0.01510  0.06980  Biso   1.000  C
  C19      1.0000 0.50320  0.02150  0.19580  Biso   1.000  C
  H16      1.0000 0.50450  0.03360  0.33290  Biso   1.000  H
  Fe4      1.0000 0.35162  0.96518  0.34420  Biso   1.000  Fe
  O13      1.0000 0.59540  0.03450  0.42590  Biso   1.000  O
  O14      1.0000 0.63400  0.00863  0.18580  Biso   1.000  O
  O15      1.0000 0.41330  0.02357  0.14470  Biso   1.000  O
  O16      1.0000 0.34220  0.88510  0.19700  Biso   1.000  O
  H17      1.0000 0.36400  0.92730  0.19200  Biso   1.000  H
  C20      1.0000 0.38510  0.87020  0.22200  Biso   1.000  C
  H18      1.0000 0.37500  0.83500  0.12900  Biso   1.000  H
  H19      1.0000 0.42550  0.90660  0.18100  Biso   1.000  H
  H20      1.0000 0.38600  0.86000  0.37200  Biso   1.000  H
  C21      1.0000 0.25837  0.34683  0.58663  Biso   1.000  C
  C22      1.0000 0.21387  0.34163  0.45663  Biso   1.000  C
  C23      1.0000 0.12447  0.34843  0.40313  Biso   1.000  C
  C24      1.0000 0.16987  0.35483  0.52913  Biso   1.000  C
  H21      1.0000 0.17117  0.36693  0.66623  Biso   1.000  H
  Fe5      1.0000 0.01829  0.29851  0.67753  Biso   1.000  Fe
  O17      1.0000 0.26207  0.36783  0.75923  Biso   1.000  O
  O18      1.0000 0.30067  0.34196  0.51913  Biso   1.000  O
  O19      1.0000 0.07997  0.35690  0.47803  Biso   1.000  O
  O20      1.0000 0.00887  0.21843  0.53033  Biso   1.000  O
  H22      1.0000 0.03067  0.26063  0.52533  Biso   1.000  H
  C25      1.0000 0.05177  0.20353  0.55533  Biso   1.000  C
  H23      1.0000 0.04167  0.16833  0.46233  Biso   1.000  H
  H24      1.0000 0.09217  0.23993  0.51433  Biso   1.000  H
  H25      1.0000 0.05267  0.19333  0.70533  Biso   1.000  H
  C26      1.0000 0.92503  0.68017  0.91997  Biso   1.000  C
  C27      1.0000 0.88053  0.67497  0.78997  Biso   1.000  C
  C28      1.0000 0.79113  0.68177  0.73647  Biso   1.000  C
  C29      1.0000 0.83653  0.68817  0.86247  Biso   1.000  C
  H26      1.0000 0.83783  0.70027  0.99957  Biso   1.000  H
  Fe6      1.0000 0.68495  0.63185  0.01087  Biso   1.000  Fe
  O21      1.0000 0.92873  0.70117  0.09257  Biso   1.000  O
  O22      1.0000 0.96733  0.67530  0.85247  Biso   1.000  O
  O23      1.0000 0.74663  0.69024  0.81137  Biso   1.000  O
  O24      1.0000 0.67553  0.55177  0.86367  Biso   1.000  O
  H27      1.0000 0.69733  0.59397  0.85867  Biso   1.000  H
  C30      1.0000 0.71843  0.53687  0.88867  Biso   1.000  C
  H28      1.0000 0.70833  0.50167  0.79567  Biso   1.000  H
  H29      1.0000 0.75883  0.57327  0.84767  Biso   1.000  H
  H30      1.0000 0.71933  0.52667  0.03867  Biso   1.000  H
  C31      1.0000 0.98650  0.57820  0.25330  Biso   1.000  C
  C32      1.0000 0.99170  0.53890  0.12330  Biso   1.000  C
  C33      1.0000 0.98490  0.44270  0.06980  Biso   1.000  C
  C34      1.0000 0.97850  0.48170  0.19580  Biso   1.000  C
  H31      1.0000 0.96640  0.47090  0.33290  Biso   1.000  H
  Fe7      1.0000 0.03482  0.38644  0.34420  Biso   1.000  Fe
  O25      1.0000 0.96550  0.56090  0.42590  Biso   1.000  O
  O26      1.0000 0.99137  0.62537  0.18580  Biso   1.000  O
  O27      1.0000 0.97643  0.38973  0.14470  Biso   1.000  O
  O28      1.0000 0.11490  0.45710  0.19700  Biso   1.000  O
  H32      1.0000 0.07270  0.43670  0.19200  Biso   1.000  H
  C35      1.0000 0.12980  0.51490  0.22200  Biso   1.000  C
  H33      1.0000 0.16500  0.54000  0.12900  Biso   1.000  H
  H34      1.0000 0.09340  0.51890  0.18100  Biso   1.000  H
  H35      1.0000 0.14000  0.52600  0.37200  Biso   1.000  H
  C36      1.0000 0.65317  0.91153  0.58663  Biso   1.000  C
  C37      1.0000 0.65837  0.87223  0.45663  Biso   1.000  C
  C38      1.0000 0.65157  0.77603  0.40313  Biso   1.000  C
  C39      1.0000 0.64517  0.81503  0.52913  Biso   1.000  C
  H36      1.0000 0.63307  0.80423  0.66623  Biso   1.000  H
  Fe8      1.0000 0.70149  0.71977  0.67753  Biso   1.000  Fe
  O29      1.0000 0.63217  0.89423  0.75923  Biso   1.000  O
  O30      1.0000 0.65804  0.95870  0.51913  Biso   1.000  O
  O31      1.0000 0.64310  0.72306  0.47803  Biso   1.000  O
  O32      1.0000 0.78157  0.79043  0.53033  Biso   1.000  O
  H37      1.0000 0.73937  0.77003  0.52533  Biso   1.000  H
  C40      1.0000 0.79647  0.84823  0.55533  Biso   1.000  C
  H38      1.0000 0.83167  0.87333  0.46233  Biso   1.000  H
  H39      1.0000 0.76007  0.85223  0.51433  Biso   1.000  H
  H40      1.0000 0.80667  0.85933  0.70533  Biso   1.000  H
  C41      1.0000 0.31983  0.24487  0.91997  Biso   1.000  C
  C42      1.0000 0.32503  0.20557  0.78997  Biso   1.000  C
  C43      1.0000 0.31823  0.10937  0.73647  Biso   1.000  C
  C44      1.0000 0.31183  0.14837  0.86247  Biso   1.000  C
  H41      1.0000 0.29973  0.13757  0.99957  Biso   1.000  H
  Fe9      1.0000 0.36815  0.05311  0.01087  Biso   1.000  Fe
  O33      1.0000 0.29883  0.22757  0.09257  Biso   1.000  O
  O34      1.0000 0.32470  0.29204  0.85247  Biso   1.000  O
  O35      1.0000 0.30976  0.05640  0.81137  Biso   1.000  O
  O36      1.0000 0.44823  0.12377  0.86367  Biso   1.000  O
  H42      1.0000 0.40603  0.10337  0.85867  Biso   1.000  H
  C45      1.0000 0.46313  0.18157  0.88867  Biso   1.000  C
  H43      1.0000 0.49833  0.20667  0.79567  Biso   1.000  H
  H44      1.0000 0.42673  0.18557  0.84767  Biso   1.000  H
  H45      1.0000 0.47333  0.19267  0.03867  Biso   1.000  H
  C46      1.0000 0.57820  0.59170  0.74670  Biso   1.000  C
  C47      1.0000 0.53890  0.54720  0.87670  Biso   1.000  C
  C48      1.0000 0.44270  0.45780  0.93020  Biso   1.000  C
  C49      1.0000 0.48170  0.50320  0.80420  Biso   1.000  C
  H46      1.0000 0.47090  0.50450  0.66710  Biso   1.000  H
  Fe10     1.0000 0.38644  0.35162  0.65580  Biso   1.000  Fe
  O37      1.0000 0.56090  0.59540  0.57410  Biso   1.000  O
  O38      1.0000 0.62537  0.63400  0.81420  Biso   1.000  O
  O39      1.0000 0.38973  0.41330  0.85530  Biso   1.000  O
  O40      1.0000 0.45710  0.34220  0.80300  Biso   1.000  O
  H47      1.0000 0.43670  0.36400  0.80800  Biso   1.000  H
  C50      1.0000 0.51490  0.38510  0.77800  Biso   1.000  C
  H48      1.0000 0.54000  0.37500  0.87100  Biso   1.000  H
  H49      1.0000 0.51890  0.42550  0.81900  Biso   1.000  H
  H50      1.0000 0.52600  0.38600  0.62800  Biso   1.000  H
  C51      1.0000 0.24487  0.92503  0.08003  Biso   1.000  C
  C52      1.0000 0.20557  0.88053  0.21003  Biso   1.000  C
  C53      1.0000 0.10937  0.79113  0.26353  Biso   1.000  C
  C54      1.0000 0.14837  0.83653  0.13753  Biso   1.000  C
  H51      1.0000 0.13757  0.83783  0.00043  Biso   1.000  H
  Fe11     1.0000 0.05311  0.68495  0.98913  Biso   1.000  Fe
  O41      1.0000 0.22757  0.92873  0.90743  Biso   1.000  O
  O42      1.0000 0.29204  0.96733  0.14753  Biso   1.000  O
  O43      1.0000 0.05640  0.74663  0.18863  Biso   1.000  O
  O44      1.0000 0.12377  0.67553  0.13633  Biso   1.000  O
  H52      1.0000 0.10337  0.69733  0.14133  Biso   1.000  H
  C55      1.0000 0.18157  0.71843  0.11133  Biso   1.000  C
  H53      1.0000 0.20667  0.70833  0.20433  Biso   1.000  H
  H54      1.0000 0.18557  0.75883  0.15233  Biso   1.000  H
  H55      1.0000 0.19267  0.71933  0.96133  Biso   1.000  H
  C56      1.0000 0.91153  0.25837  0.41337  Biso   1.000  C
  C57      1.0000 0.87223  0.21387  0.54337  Biso   1.000  C
  C58      1.0000 0.77603  0.12447  0.59687  Biso   1.000  C
  C59      1.0000 0.81503  0.16987  0.47087  Biso   1.000  C
  H56      1.0000 0.80423  0.17117  0.33377  Biso   1.000  H
  Fe12     1.0000 0.71977  0.01829  0.32247  Biso   1.000  Fe
  O45      1.0000 0.89423  0.26207  0.24077  Biso   1.000  O
  O46      1.0000 0.95870  0.30067  0.48087  Biso   1.000  O
  O47      1.0000 0.72306  0.07997  0.52197  Biso   1.000  O
  O48      1.0000 0.79043  0.00887  0.46967  Biso   1.000  O
  H57      1.0000 0.77003  0.03067  0.47467  Biso   1.000  H
  C60      1.0000 0.84823  0.05177  0.44467  Biso   1.000  C
  H58      1.0000 0.87333  0.04167  0.53767  Biso   1.000  H
  H59      1.0000 0.85223  0.09217  0.48567  Biso   1.000  H
  H60      1.0000 0.85933  0.05267  0.29467  Biso   1.000  H
  C61      1.0000 0.40830  0.98650  0.74670  Biso   1.000  C
  C62      1.0000 0.45280  0.99170  0.87670  Biso   1.000  C
  C63      1.0000 0.54220  0.98490  0.93020  Biso   1.000  C
  C64      1.0000 0.49680  0.97850  0.80420  Biso   1.000  C
  H61      1.0000 0.49550  0.96640  0.66710  Biso   1.000  H
  Fe13     1.0000 0.64838  0.03482  0.65580  Biso   1.000  Fe
  O49      1.0000 0.40460  0.96550  0.57410  Biso   1.000  O
  O50      1.0000 0.36600  0.99137  0.81420  Biso   1.000  O
  O51      1.0000 0.58670  0.97643  0.85530  Biso   1.000  O
  O52      1.0000 0.65780  0.11490  0.80300  Biso   1.000  O
  H62      1.0000 0.63600  0.07270  0.80800  Biso   1.000  H
  C65      1.0000 0.61490  0.12980  0.77800  Biso   1.000  C
  H63      1.0000 0.62500  0.16500  0.87100  Biso   1.000  H
  H64      1.0000 0.57450  0.09340  0.81900  Biso   1.000  H
  H65      1.0000 0.61400  0.14000  0.62800  Biso   1.000  H
  C66      1.0000 0.07497  0.31983  0.08003  Biso   1.000  C
  C67      1.0000 0.11947  0.32503  0.21003  Biso   1.000  C
  C68      1.0000 0.20887  0.31823  0.26353  Biso   1.000  C
  C69      1.0000 0.16347  0.31183  0.13753  Biso   1.000  C
  H66      1.0000 0.16217  0.29973  0.00043  Biso   1.000  H
  Fe14     1.0000 0.31505  0.36815  0.98913  Biso   1.000  Fe
  O53      1.0000 0.07127  0.29883  0.90743  Biso   1.000  O
  O54      1.0000 0.03267  0.32470  0.14753  Biso   1.000  O
  O55      1.0000 0.25337  0.30976  0.18863  Biso   1.000  O
  O56      1.0000 0.32447  0.44823  0.13633  Biso   1.000  O
  H67      1.0000 0.30267  0.40603  0.14133  Biso   1.000  H
  C70      1.0000 0.28157  0.46313  0.11133  Biso   1.000  C
  H68      1.0000 0.29167  0.49833  0.20433  Biso   1.000  H
  H69      1.0000 0.24117  0.42673  0.15233  Biso   1.000  H
  H70      1.0000 0.28067  0.47333  0.96133  Biso   1.000  H
  C71      1.0000 0.74163  0.65317  0.41337  Biso   1.000  C
  C72      1.0000 0.78613  0.65837  0.54337  Biso   1.000  C
  C73      1.0000 0.87553  0.65157  0.59687  Biso   1.000  C
  C74      1.0000 0.83013  0.64517  0.47087  Biso   1.000  C
  H71      1.0000 0.82883  0.63307  0.33377  Biso   1.000  H
  Fe15     1.0000 0.98171  0.70149  0.32247  Biso   1.000  Fe
  O57      1.0000 0.73793  0.63217  0.24077  Biso   1.000  O
  O58      1.0000 0.69933  0.65804  0.48087  Biso   1.000  O
  O59      1.0000 0.92003  0.64310  0.52197  Biso   1.000  O
  O60      1.0000 0.99113  0.78157  0.46967  Biso   1.000  O
  H72      1.0000 0.96933  0.73937  0.47467  Biso   1.000  H
  C75      1.0000 0.94823  0.79647  0.44467  Biso   1.000  C
  H73      1.0000 0.95833  0.83167  0.53767  Biso   1.000  H
  H74      1.0000 0.90783  0.76007  0.48567  Biso   1.000  H
  H75      1.0000 0.94733  0.80667  0.29467  Biso   1.000  H
  C76      1.0000 0.01350  0.42180  0.74670  Biso   1.000  C
  C77      1.0000 0.00830  0.46110  0.87670  Biso   1.000  C
  C78      1.0000 0.01510  0.55730  0.93020  Biso   1.000  C
  C79      1.0000 0.02150  0.51830  0.80420  Biso   1.000  C
  H76      1.0000 0.03360  0.52910  0.66710  Biso   1.000  H
  Fe16     1.0000 0.96518  0.61356  0.65580  Biso   1.000  Fe
  O61      1.0000 0.03450  0.43910  0.57410  Biso   1.000  O
  O62      1.0000 0.00863  0.37463  0.81420  Biso   1.000  O
  O63      1.0000 0.02357  0.61027  0.85530  Biso   1.000  O
  O64      1.0000 0.88510  0.54290  0.80300  Biso   1.000  O
  H77      1.0000 0.92730  0.56330  0.80800  Biso   1.000  H
  C80      1.0000 0.87020  0.48510  0.77800  Biso   1.000  C
  H78      1.0000 0.83500  0.46000  0.87100  Biso   1.000  H
  H79      1.0000 0.90660  0.48110  0.81900  Biso   1.000  H
  H80      1.0000 0.86000  0.47400  0.62800  Biso   1.000  H
  C81      1.0000 0.68017  0.75513  0.08003  Biso   1.000  C
  C82      1.0000 0.67497  0.79443  0.21003  Biso   1.000  C
  C83      1.0000 0.68177  0.89063  0.26353  Biso   1.000  C
  C84      1.0000 0.68817  0.85163  0.13753  Biso   1.000  C
  H81      1.0000 0.70027  0.86243  0.00043  Biso   1.000  H
  Fe17     1.0000 0.63185  0.94689  0.98913  Biso   1.000  Fe
  O65      1.0000 0.70117  0.77243  0.90743  Biso   1.000  O
  O66      1.0000 0.67530  0.70796  0.14753  Biso   1.000  O
  O67      1.0000 0.69024  0.94360  0.18863  Biso   1.000  O
  O68      1.0000 0.55177  0.87623  0.13633  Biso   1.000  O
  H82      1.0000 0.59397  0.89663  0.14133  Biso   1.000  H
  C85      1.0000 0.53687  0.81843  0.11133  Biso   1.000  C
  H83      1.0000 0.50167  0.79333  0.20433  Biso   1.000  H
  H84      1.0000 0.57327  0.81443  0.15233  Biso   1.000  H
  H85      1.0000 0.52667  0.80733  0.96133  Biso   1.000  H
  C86      1.0000 0.34683  0.08847  0.41337  Biso   1.000  C
  C87      1.0000 0.34163  0.12777  0.54337  Biso   1.000  C
  C88      1.0000 0.34843  0.22397  0.59687  Biso   1.000  C
  C89      1.0000 0.35483  0.18497  0.47087  Biso   1.000  C
  H86      1.0000 0.36693  0.19577  0.33377  Biso   1.000  H
  Fe18     1.0000 0.29851  0.28023  0.32247  Biso   1.000  Fe
  O69      1.0000 0.36783  0.10577  0.24077  Biso   1.000  O
  O70      1.0000 0.34196  0.04130  0.48087  Biso   1.000  O
  O71      1.0000 0.35690  0.27694  0.52197  Biso   1.000  O
  O72      1.0000 0.21843  0.20957  0.46967  Biso   1.000  O
  H87      1.0000 0.26063  0.22997  0.47467  Biso   1.000  H
  C90      1.0000 0.20353  0.15177  0.44467  Biso   1.000  C
  H88      1.0000 0.16833  0.12667  0.53767  Biso   1.000  H
  H89      1.0000 0.23993  0.14777  0.48567  Biso   1.000  H
  H90      1.0000 0.19333  0.14067  0.29467  Biso   1.000  H
