data_image0
_cell_length_a       7.4942
_cell_length_b       7.7257
_cell_length_c       17.852
_cell_angle_alpha    90
_cell_angle_beta     97.74
_cell_angle_gamma    90

_symmetry_space_group_name_H-M    "P 1"
_symmetry_int_tables_number       1

loop_
  _symmetry_equiv_pos_as_xyz
  'x, y, z'

loop_
  _atom_site_label
  _atom_site_occupancy
  _atom_site_fract_x
  _atom_site_fract_y
  _atom_site_fract_z
  _atom_site_thermal_displace_type
  _atom_site_B_iso_or_equiv
  _atom_site_type_symbol
  Co1      1.0000 0.12893  0.05357  0.36354  Biso   1.000  Co
  Co2      1.0000 0.78476  0.80520  0.30831  Biso   1.000  Co
  P1       1.0000 0.94660  0.42370  0.31096  Biso   1.000  P
  O1       1.0000 0.90820  0.95430  0.40740  Biso   1.000  O
  O2       1.0000 0.07360  0.30800  0.36240  Biso   1.000  O
  O3       1.0000 0.01200  0.44000  0.23310  Biso   1.000  O
  O4       1.0000 0.30170  0.84770  0.38340  Biso   1.000  O
  O5       1.0000 0.35130  0.13440  0.30150  Biso   1.000  O
  O6       1.0000 0.79590  0.90440  0.51580  Biso   1.000  O
  O7       1.0000 0.55820  0.74030  0.35660  Biso   1.000  O
  O8       1.0000 0.92300  0.59870  0.34530  Biso   1.000  O
  O9       1.0000 0.61340  0.02000  0.27670  Biso   1.000  O
  O10      1.0000 0.75120  0.33900  0.29970  Biso   1.000  O
  H1       1.0000 0.75620  0.24240  0.28100  Biso   1.000  H
  C1       1.0000 0.91410  0.95740  0.47860  Biso   1.000  C
  C2       1.0000 0.44070  0.85610  0.35240  Biso   1.000  C
  C3       1.0000 0.47050  0.01900  0.30530  Biso   1.000  C
  Co3      1.0000 0.87107  0.55357  0.13646  Biso   1.000  Co
  Co4      1.0000 0.21524  0.30520  0.19169  Biso   1.000  Co
  P2       1.0000 0.05340  0.92370  0.18904  Biso   1.000  P
  O11      1.0000 0.09180  0.45430  0.09260  Biso   1.000  O
  O12      1.0000 0.92640  0.80800  0.13760  Biso   1.000  O
  O13      1.0000 0.98800  0.94000  0.26690  Biso   1.000  O
  O14      1.0000 0.69830  0.34770  0.11660  Biso   1.000  O
  O15      1.0000 0.64870  0.63440  0.19850  Biso   1.000  O
  O16      1.0000 0.20410  0.40440  0.98420  Biso   1.000  O
  O17      1.0000 0.44180  0.24030  0.14340  Biso   1.000  O
  O18      1.0000 0.07700  0.09870  0.15470  Biso   1.000  O
  O19      1.0000 0.38660  0.52000  0.22330  Biso   1.000  O
  O20      1.0000 0.24880  0.83900  0.20030  Biso   1.000  O
  H2       1.0000 0.24380  0.74240  0.21900  Biso   1.000  H
  C4       1.0000 0.08590  0.45740  0.02140  Biso   1.000  C
  C5       1.0000 0.55930  0.35610  0.14760  Biso   1.000  C
  C6       1.0000 0.52950  0.51900  0.19470  Biso   1.000  C
  Co5      1.0000 0.87107  0.94643  0.63646  Biso   1.000  Co
  Co6      1.0000 0.21524  0.19480  0.69169  Biso   1.000  Co
  P3       1.0000 0.05340  0.57630  0.68904  Biso   1.000  P
  O21      1.0000 0.09180  0.04570  0.59260  Biso   1.000  O
  O22      1.0000 0.92640  0.69200  0.63760  Biso   1.000  O
  O23      1.0000 0.98800  0.56000  0.76690  Biso   1.000  O
  O24      1.0000 0.69830  0.15230  0.61660  Biso   1.000  O
  O25      1.0000 0.64870  0.86560  0.69850  Biso   1.000  O
  O26      1.0000 0.20410  0.09560  0.48420  Biso   1.000  O
  O27      1.0000 0.44180  0.25970  0.64340  Biso   1.000  O
  O28      1.0000 0.07700  0.40130  0.65470  Biso   1.000  O
  O29      1.0000 0.38660  0.98000  0.72330  Biso   1.000  O
  O30      1.0000 0.24880  0.66100  0.70030  Biso   1.000  O
  H3       1.0000 0.24380  0.75760  0.71900  Biso   1.000  H
  C7       1.0000 0.08590  0.04260  0.52140  Biso   1.000  C
  C8       1.0000 0.55930  0.14390  0.64760  Biso   1.000  C
  C9       1.0000 0.52950  0.98100  0.69470  Biso   1.000  C
  Co7      1.0000 0.12893  0.44643  0.86354  Biso   1.000  Co
  Co8      1.0000 0.78476  0.69480  0.80831  Biso   1.000  Co
  P4       1.0000 0.94660  0.07630  0.81096  Biso   1.000  P
  O31      1.0000 0.90820  0.54570  0.90740  Biso   1.000  O
  O32      1.0000 0.07360  0.19200  0.86240  Biso   1.000  O
  O33      1.0000 0.01200  0.06000  0.73310  Biso   1.000  O
  O34      1.0000 0.30170  0.65230  0.88340  Biso   1.000  O
  O35      1.0000 0.35130  0.36560  0.80150  Biso   1.000  O
  O36      1.0000 0.79590  0.59560  0.01580  Biso   1.000  O
  O37      1.0000 0.55820  0.75970  0.85660  Biso   1.000  O
  O38      1.0000 0.92300  0.90130  0.84530  Biso   1.000  O
  O39      1.0000 0.61340  0.48000  0.77670  Biso   1.000  O
  O40      1.0000 0.75120  0.16100  0.79970  Biso   1.000  O
  H4       1.0000 0.75620  0.25760  0.78100  Biso   1.000  H
  C10      1.0000 0.91410  0.54260  0.97860  Biso   1.000  C
  C11      1.0000 0.44070  0.64390  0.85240  Biso   1.000  C
  C12      1.0000 0.47050  0.48100  0.80530  Biso   1.000  C
