data_WORKUL_clean
_audit_creation_date              2015-10-16
_audit_creation_method            'Materials Studio'
_symmetry_space_group_name_H-M    'P1'
_symmetry_Int_Tables_number       1
_symmetry_cell_setting            triclinic
loop_
_symmetry_equiv_pos_as_xyz
  x,y,z
_cell_length_a                    19.2780
_cell_length_b                    19.5930
_cell_length_c                    20.0460
_cell_angle_alpha                 70.6500
_cell_angle_beta                  70.0500
_cell_angle_gamma                 69.8600
loop_
_atom_site_label
_atom_site_type_symbol
_atom_site_fract_x
_atom_site_fract_y
_atom_site_fract_z
_atom_site_U_iso_or_equiv
_atom_site_adp_type
_atom_site_occupancy
Zn1    Zn    0.62542   0.96252   0.64227   0.01267  Uiso   1.00
Zn2    Zn    0.05795   0.53071   0.22475   0.01267  Uiso   1.00
Zn3    Zn    0.18755   0.54172   0.07652   0.01267  Uiso   1.00
Zn4    Zn    0.21662   0.54682   0.22407   0.01267  Uiso   1.00
Zn5    Zn    0.63617   0.11752   0.66458   0.01267  Uiso   1.00
Zn6    Zn    0.64438   0.96572   0.78882   0.01267  Uiso   1.00
Zn7    Zn    0.20700   0.39467   0.20803   0.01267  Uiso   1.00
Zn8    Zn    0.77950   0.97259   0.65219   0.01267  Uiso   1.00
H1     H     0.93060   0.66910   0.35160   0.01267  Uiso   1.00
H2     H     0.47220   0.74020   0.04620   0.01267  Uiso   1.00
H3     H     0.44960   0.13380   0.38640   0.01267  Uiso   1.00
H4     H     0.31530   0.24170   0.07530   0.01267  Uiso   1.00
H5     H     0.91890   0.82990   0.52150   0.01267  Uiso   1.00
H6     H     0.51210   0.06550   0.47510   0.01267  Uiso   1.00
H7     H     0.32290   0.43010   0.91150   0.01267  Uiso   1.00
H8     H     0.40410   0.37230   0.47770   0.01267  Uiso   1.00
H9     H     0.46430   0.23810   0.80030   0.01267  Uiso   1.00
H10    H     0.38190   0.11670   0.04560   0.01267  Uiso   1.00
H11    H     0.79740   0.73020   0.42800   0.01267  Uiso   1.00
H12    H     0.32650   0.67700   0.94090   0.01267  Uiso   1.00
H13    H     0.11780   0.69660   0.37110   0.01267  Uiso   1.00
H14    H     0.92150   0.10560   0.46660   0.01267  Uiso   1.00
H15    H     0.79150   0.76260   0.06410   0.01267  Uiso   1.00
H16    H     0.04590   0.76280   0.45670   0.01267  Uiso   1.00
H17    H     0.09570   0.22820   0.29570   0.01267  Uiso   1.00
H18    H     0.40070   0.36250   0.82880   0.01267  Uiso   1.00
H19    H     0.46480   0.04950   0.96250   0.01267  Uiso   1.00
H20    H     0.79850   0.36040   0.44850   0.01267  Uiso   1.00
H21    H     0.03280   0.13760   0.37630   0.01267  Uiso   1.00
H22    H     0.33350   0.44270   0.39340   0.01267  Uiso   1.00
H23    H     0.48220   0.25200   0.53500   0.01267  Uiso   1.00
H24    H     0.95770   0.86150   0.76520   0.01267  Uiso   1.00
H25    H     0.38140   0.75280   0.81860   0.01267  Uiso   1.00
H26    H     0.77300   0.83770   0.93880   0.01267  Uiso   1.00
H27    H     0.72620   0.81130   0.49790   0.01267  Uiso   1.00
H28    H     0.39030   0.66580   0.11710   0.01267  Uiso   1.00
H29    H     0.90980   0.39230   0.35810   0.01267  Uiso   1.00
H30    H     0.05630   0.70850   0.96150   0.01267  Uiso   1.00
H31    H     0.03710   0.78580   0.83870   0.01267  Uiso   1.00
H32    H     0.87300   0.67590   0.12850   0.01267  Uiso   1.00
H33    H     0.52890   0.81250   0.92150   0.01267  Uiso   1.00
H34    H     0.46200   0.82480   0.74600   0.01267  Uiso   1.00
H35    H     0.36600   0.25380   0.33150   0.01267  Uiso   1.00
H36    H     0.73560   0.26980   0.52900   0.01267  Uiso   1.00
C1     C     0.06390   0.70450   0.38590   0.01267  Uiso   1.00
C2     C     0.45870   0.80700   0.79690   0.01267  Uiso   1.00
C3     C     0.47260   0.22840   0.50580   0.01267  Uiso   1.00
C4     C     0.82230   0.75210   0.44570   0.01267  Uiso   1.00
C5     C     0.77070   0.87720   0.57090   0.01267  Uiso   1.00
C6     C     0.38210   0.33770   0.87820   0.01267  Uiso   1.00
C7     C     0.31110   0.34200   0.00250   0.01267  Uiso   1.00
C8     C     0.37440   0.27840   0.36060   0.01267  Uiso   1.00
C9     C     0.82260   0.17920   0.50540   0.01267  Uiso   1.00
C10    C     0.87060   0.78320   0.96470   0.01267  Uiso   1.00
C11    C     0.50220   0.15240   0.51340   0.01267  Uiso   1.00
C12    C     0.33160   0.26520   0.02500   0.01267  Uiso   1.00
C13    C     0.53380   0.09340   0.82200   0.01267  Uiso   1.00
C14    C     0.44870   0.10260   0.94710   0.01267  Uiso   1.00
C15    C     0.95340   0.68880   0.37370   0.01267  Uiso   1.00
C16    C     0.35470   0.39040   0.39760   0.01267  Uiso   1.00
C17    C     0.44980   0.21420   0.85070   0.01267  Uiso   1.00
C18    C     0.81780   0.82430   0.52200   0.01267  Uiso   1.00
C19    C     0.02070   0.74550   0.43470   0.01267  Uiso   1.00
C20    C     0.33760   0.37700   0.92710   0.01267  Uiso   1.00
C21    C     0.07530   0.62410   0.30500   0.01267  Uiso   1.00
C22    C     0.80280   0.90270   0.80010   0.01267  Uiso   1.00
C23    C     0.39350   0.68500   0.06620   0.01267  Uiso   1.00
C24    C     0.89740   0.28680   0.40970   0.01267  Uiso   1.00
C25    C     0.84450   0.74960   0.04060   0.01267  Uiso   1.00
C26    C     0.44270   0.72820   0.02430   0.01267  Uiso   1.00
C27    C     0.85440   0.85580   0.84700   0.01267  Uiso   1.00
C28    C     0.34320   0.35460   0.35180   0.01267  Uiso   1.00
C29    C     0.40210   0.73570   0.91600   0.01267  Uiso   1.00
C30    C     0.47640   0.13860   0.87290   0.01267  Uiso   1.00
C31    C     0.89520   0.80860   0.50180   0.01267  Uiso   1.00
C32    C     0.90360   0.73450   0.42410   0.01267  Uiso   1.00
C33    C     0.78030   0.79690   0.48870   0.01267  Uiso   1.00
C34    C     0.93390   0.21110   0.41500   0.01267  Uiso   1.00
C35    C     0.55850   0.87330   0.78110   0.01267  Uiso   1.00
C36    C     0.45310   0.15850   0.41820   0.01267  Uiso   1.00
C37    C     0.27000   0.38760   0.05930   0.01267  Uiso   1.00
C38    C     0.39670   0.34810   0.44760   0.01267  Uiso   1.00
C39    C     0.44970   0.75520   0.94730   0.01267  Uiso   1.00
C40    C     0.00250   0.71740   0.98080   0.01267  Uiso   1.00
C41    C     0.78720   0.11810   0.55870   0.01267  Uiso   1.00
C42    C     0.98330   0.79770   0.85870   0.01267  Uiso   1.00
C43    C     0.37580   0.22140   0.97550   0.01267  Uiso   1.00
C44    C     0.49180   0.11810   0.46950   0.01267  Uiso   1.00
C45    C     0.94140   0.76410   0.45490   0.01267  Uiso   1.00
C46    C     0.50440   0.82520   0.82850   0.01267  Uiso   1.00
C47    C     0.40000   0.14230   0.99650   0.01267  Uiso   1.00
C48    C     0.05450   0.37250   0.27830   0.01267  Uiso   1.00
C49    C     0.29610   0.39820   0.29910   0.01267  Uiso   1.00
C50    C     0.41720   0.23680   0.40970   0.01267  Uiso   1.00
C51    C     0.40160   0.25760   0.90030   0.01267  Uiso   1.00
C52    C     0.78610   0.25480   0.50000   0.01267  Uiso   1.00
C53    C     0.41110   0.76440   0.84060   0.01267  Uiso   1.00
C54    C     0.35500   0.69180   0.96150   0.01267  Uiso   1.00
C55    C     0.93730   0.84080   0.81540   0.01267  Uiso   1.00
C56    C     0.93480   0.34060   0.36180   0.01267  Uiso   1.00
C57    C     0.02770   0.67300   0.35670   0.01267  Uiso   1.00
C58    C     0.97160   0.68080   0.05290   0.01267  Uiso   1.00
C59    C     0.04520   0.24310   0.32470   0.01267  Uiso   1.00
C60    C     0.49860   0.79960   0.90120   0.01267  Uiso   1.00
C61    C     0.82690   0.82650   0.91930   0.01267  Uiso   1.00
C62    C     0.02680   0.62880   0.09860   0.01267  Uiso   1.00
C63    C     0.82350   0.30860   0.45210   0.01267  Uiso   1.00
C64    C     0.42850   0.27200   0.45580   0.01267  Uiso   1.00
C65    C     0.00870   0.31870   0.31930   0.01267  Uiso   1.00
C66    C     0.89650   0.15730   0.46290   0.01267  Uiso   1.00
C67    C     0.95190   0.76860   0.93650   0.01267  Uiso   1.00
C68    C     0.29340   0.62210   0.08150   0.01267  Uiso   1.00
C69    C     0.89380   0.69960   0.07940   0.01267  Uiso   1.00
C70    C     0.54880   0.10750   0.56880   0.01267  Uiso   1.00
C71    C     0.34660   0.66830   0.03470   0.01267  Uiso   1.00
C72    C     0.00780   0.18930   0.37260   0.01267  Uiso   1.00
O1     O     0.25810   0.35320   0.12390   0.01267  Uiso   1.00
O2     O     0.14420   0.61310   0.28610   0.01267  Uiso   1.00
O3     O     0.70000   0.89640   0.58180   0.01267  Uiso   1.00
O4     O     0.71880   0.14410   0.58160   0.01267  Uiso   1.00
O5     O     0.26030   0.60000   0.05060   0.01267  Uiso   1.00
O6     O     0.72910   0.91910   0.83160   0.01267  Uiso   1.00
O7     O     0.80700   0.89450   0.60190   0.01267  Uiso   1.00
O8     O     0.56640   0.02670   0.85010   0.01267  Uiso   1.00
O9     O     0.24680   0.45770   0.03470   0.01267  Uiso   1.00
O10    O     0.03960   0.58820   0.28900   0.01267  Uiso   1.00
O11    O     0.09520   0.62360   0.06910   0.01267  Uiso   1.00
O12    O     0.28650   0.60390   0.15180   0.01267  Uiso   1.00
O13    O     0.16890   0.50370   0.18370   0.01267  Uiso   1.00
O14    O     0.02350   0.44190   0.26170   0.01267  Uiso   1.00
O15    O     0.82780   0.04950   0.57870   0.01267  Uiso   1.00
O16    O     0.27500   0.46950   0.28900   0.01267  Uiso   1.00
O17    O     0.12690   0.34290   0.26280   0.01267  Uiso   1.00
O18    O     0.60160   0.88140   0.81220   0.01267  Uiso   1.00
O19    O     0.67020   0.00520   0.68520   0.01267  Uiso   1.00
O20    O     0.27780   0.36230   0.26840   0.01267  Uiso   1.00
O21    O     0.83010   0.92110   0.73080   0.01267  Uiso   1.00
O22    O     0.55830   0.90130   0.71620   0.01267  Uiso   1.00
O23    O     0.56630   0.14080   0.60100   0.01267  Uiso   1.00
O24    O     0.54770   0.12370   0.75460   0.01267  Uiso   1.00
O25    O     0.99630   0.59670   0.16070   0.01267  Uiso   1.00
O26    O     0.56550   0.03570   0.57860   0.01267  Uiso   1.00
Zn9    Zn    0.37458   0.03748   0.35773   0.01267  Uiso   1.00
Zn10   Zn    0.35562   0.03428   0.21118   0.01267  Uiso   1.00
Zn11   Zn    0.78338   0.45318   0.77593   0.01267  Uiso   1.00
Zn12   Zn    0.94205   0.46929   0.77525   0.01267  Uiso   1.00
Zn13   Zn    0.79300   0.60533   0.79197   0.01267  Uiso   1.00
Zn14   Zn    0.22050   0.02741   0.34781   0.01267  Uiso   1.00
Zn15   Zn    0.36383   0.88248   0.33542   0.01267  Uiso   1.00
Zn16   Zn    0.81245   0.45828   0.92348   0.01267  Uiso   1.00
H37    H     0.67710   0.56990   0.08850   0.01267  Uiso   1.00
H38    H     0.90430   0.77180   0.70430   0.01267  Uiso   1.00
H39    H     0.12700   0.32410   0.87150   0.01267  Uiso   1.00
H40    H     0.22700   0.16230   0.06120   0.01267  Uiso   1.00
H41    H     0.47110   0.18750   0.07850   0.01267  Uiso   1.00
H42    H     0.20850   0.23740   0.93590   0.01267  Uiso   1.00
H43    H     0.96290   0.21420   0.16130   0.01267  Uiso   1.00
H44    H     0.52780   0.25980   0.95380   0.01267  Uiso   1.00
H45    H     0.61810   0.88330   0.95440   0.01267  Uiso   1.00
H46    H     0.59590   0.62770   0.52230   0.01267  Uiso   1.00
H47    H     0.66650   0.55730   0.60660   0.01267  Uiso   1.00
H48    H     0.61860   0.24720   0.18140   0.01267  Uiso   1.00
H49    H     0.88220   0.30340   0.62890   0.01267  Uiso   1.00
H50    H     0.53570   0.76190   0.19970   0.01267  Uiso   1.00
H51    H     0.67350   0.32300   0.05910   0.01267  Uiso   1.00
H52    H     0.59930   0.63750   0.17120   0.01267  Uiso   1.00
H53    H     0.20150   0.63960   0.55150   0.01267  Uiso   1.00
H54    H     0.94370   0.29150   0.03850   0.01267  Uiso   1.00
H55    H     0.53520   0.95050   0.03750   0.01267  Uiso   1.00
H56    H     0.60970   0.33420   0.88290   0.01267  Uiso   1.00
H57    H     0.27380   0.18870   0.50210   0.01267  Uiso   1.00
H58    H     0.68470   0.75830   0.92470   0.01267  Uiso   1.00
H59    H     0.07850   0.89440   0.53340   0.01267  Uiso   1.00
H60    H     0.48790   0.93450   0.52490   0.01267  Uiso   1.00
H61    H     0.55040   0.86620   0.61360   0.01267  Uiso   1.00
H62    H     0.06940   0.33090   0.64840   0.01267  Uiso   1.00
H63    H     0.51780   0.74800   0.46500   0.01267  Uiso   1.00
H64    H     0.63400   0.74620   0.66850   0.01267  Uiso   1.00
H65    H     0.96720   0.86240   0.62370   0.01267  Uiso   1.00
H66    H     0.09020   0.60770   0.64190   0.01267  Uiso   1.00
H67    H     0.04230   0.13850   0.23480   0.01267  Uiso   1.00
H68    H     0.95410   0.23720   0.54330   0.01267  Uiso   1.00
H69    H     0.26440   0.73020   0.47100   0.01267  Uiso   1.00
H70    H     0.20260   0.26980   0.57200   0.01267  Uiso   1.00
H71    H     0.08110   0.17010   0.47850   0.01267  Uiso   1.00
H72    H     0.53800   0.17520   0.25400   0.01267  Uiso   1.00
C73    C     0.99130   0.68130   0.68070   0.01267  Uiso   1.00
C74    C     0.62560   0.72160   0.63940   0.01267  Uiso   1.00
C75    C     0.19720   0.09730   0.19990   0.01267  Uiso   1.00
C76    C     0.17740   0.82080   0.49460   0.01267  Uiso   1.00
C77    C     0.17310   0.17350   0.08070   0.01267  Uiso   1.00
C78    C     0.21280   0.88190   0.44130   0.01267  Uiso   1.00
C79    C     0.52740   0.77160   0.49420   0.01267  Uiso   1.00
C80    C     0.64530   0.60960   0.60240   0.01267  Uiso   1.00
C81    C     0.66240   0.62300   0.07290   0.01267  Uiso   1.00
C82    C     0.55130   0.89740   0.05290   0.01267  Uiso   1.00
C83    C     0.45120   0.89250   0.43120   0.01267  Uiso   1.00
C84    C     0.58280   0.76320   0.59030   0.01267  Uiso   1.00
C85    C     0.60330   0.65190   0.55240   0.01267  Uiso   1.00
C86    C     0.46620   0.90660   0.17800   0.01267  Uiso   1.00
C87    C     0.10260   0.71320   0.59030   0.01267  Uiso   1.00
C88    C     0.95480   0.75690   0.67530   0.01267  Uiso   1.00
C89    C     0.06520   0.65940   0.63820   0.01267  Uiso   1.00
C90    C     0.57150   0.72800   0.54420   0.01267  Uiso   1.00
C91    C     0.97230   0.32700   0.64330   0.01267  Uiso   1.00
C92    C     0.70390   0.60180   0.70090   0.01267  Uiso   1.00
C93    C     0.99220   0.81070   0.62740   0.01267  Uiso   1.00
C94    C     0.65340   0.33170   0.96530   0.01267  Uiso   1.00
C95    C     0.55020   0.78580   0.14930   0.01267  Uiso   1.00
C96    C     0.21970   0.20310   0.51130   0.01267  Uiso   1.00
C97    C     0.04810   0.23140   0.06350   0.01267  Uiso   1.00
C98    C     0.06610   0.78890   0.58500   0.01267  Uiso   1.00
C99    C     0.49780   0.84760   0.48660   0.01267  Uiso   1.00
C100   C     0.50140   0.20040   0.09880   0.01267  Uiso   1.00
C101   C     0.17770   0.24790   0.55430   0.01267  Uiso   1.00
C102   C     0.64500   0.30820   0.03850   0.01267  Uiso   1.00
C103   C     0.06270   0.15920   0.18460   0.01267  Uiso   1.00
C104   C     0.10350   0.84270   0.53710   0.01267  Uiso   1.00
C105   C     0.62420   0.77860   0.02450   0.01267  Uiso   1.00
C106   C     0.18220   0.17570   0.47800   0.01267  Uiso   1.00
C107   C     0.09640   0.26550   0.57590   0.01267  Uiso   1.00
C108   C     0.10480   0.19140   0.49820   0.01267  Uiso   1.00
C109   C     0.54130   0.19300   0.20310   0.01267  Uiso   1.00
C110   C     0.99750   0.28260   0.01920   0.01267  Uiso   1.00
C111   C     0.93610   0.29550   0.61410   0.01267  Uiso   1.00
C112   C     0.92470   0.37590   0.69500   0.01267  Uiso   1.00
C113   C     0.66840   0.73480   0.97500   0.01267  Uiso   1.00
C114   C     0.59840   0.74240   0.09970   0.01267  Uiso   1.00
C115   C     0.05860   0.23590   0.54510   0.01267  Uiso   1.00
C116   C     0.12940   0.21680   0.03530   0.01267  Uiso   1.00
C117   C     0.44150   0.12670   0.21890   0.01267  Uiso   1.00
C118   C     0.70660   0.37790   0.91850   0.01267  Uiso   1.00
C119   C     0.60650   0.31500   0.93380   0.01267  Uiso   1.00
C120   C     0.49560   0.17480   0.17150   0.01267  Uiso   1.00
C121   C     0.55730   0.27180   0.97570   0.01267  Uiso   1.00
C122   C     0.94550   0.62750   0.72170   0.01267  Uiso   1.00
C123   C     0.73000   0.61240   0.94070   0.01267  Uiso   1.00
C124   C     0.50820   0.88190   0.53050   0.01267  Uiso   1.00
C125   C     0.97930   0.25450   0.56530   0.01267  Uiso   1.00
C126   C     0.04660   0.31120   0.62630   0.01267  Uiso   1.00
C127   C     0.52360   0.86140   0.12710   0.01267  Uiso   1.00
C128   C     0.55030   0.24480   0.05270   0.01267  Uiso   1.00
C129   C     0.22930   0.12280   0.42910   0.01267  Uiso   1.00
C130   C     0.14560   0.14420   0.15300   0.01267  Uiso   1.00
C131   C     0.15550   0.25040   0.95940   0.01267  Uiso   1.00
C132   C     0.97320   0.37120   0.90140   0.01267  Uiso   1.00
C133   C     0.61790   0.66230   0.12180   0.01267  Uiso   1.00
C134   C     0.58890   0.23560   0.15940   0.01267  Uiso   1.00
C135   C     0.54690   0.84150   0.58180   0.01267  Uiso   1.00
C136   C     0.21390   0.74520   0.50000   0.01267  Uiso   1.00
C137   C     0.59790   0.26430   0.08400   0.01267  Uiso   1.00
C138   C     0.17650   0.69140   0.54790   0.01267  Uiso   1.00
C139   C     0.10620   0.30040   0.92060   0.01267  Uiso   1.00
C140   C     0.01670   0.20230   0.14130   0.01267  Uiso   1.00
C141   C     0.60000   0.85770   0.00350   0.01267  Uiso   1.00
C142   C     0.68890   0.65800   0.99750   0.01267  Uiso   1.00
C143   C     0.65680   0.64540   0.64820   0.01267  Uiso   1.00
C144   C     0.02840   0.31920   0.94710   0.01267  Uiso   1.00
O27    O     0.75320   0.54230   0.96530   0.01267  Uiso   1.00
O28    O     0.00370   0.40330   0.83930   0.01267  Uiso   1.00
O29    O     0.19300   0.10550   0.39810   0.01267  Uiso   1.00
O30    O     0.27090   0.08090   0.16840   0.01267  Uiso   1.00
O31    O     0.72220   0.63770   0.73160   0.01267  Uiso   1.00
O32    O     0.83110   0.49630   0.81630   0.01267  Uiso   1.00
O33    O     0.43450   0.96430   0.42140   0.01267  Uiso   1.00
O34    O     0.44170   0.09870   0.28380   0.01267  Uiso   1.00
O35    O     0.30000   0.10360   0.41820   0.01267  Uiso   1.00
O36    O     0.16990   0.07890   0.26920   0.01267  Uiso   1.00
O37    O     0.73970   0.40000   0.94940   0.01267  Uiso   1.00
O38    O     0.43360   0.97330   0.14990   0.01267  Uiso   1.00
O39    O     0.17220   0.95050   0.42130   0.01267  Uiso   1.00
O40    O     0.97650   0.55810   0.73830   0.01267  Uiso   1.00
O41    O     0.74190   0.64680   0.87610   0.01267  Uiso   1.00
O42    O     0.90480   0.37640   0.93090   0.01267  Uiso   1.00
O43    O     0.43370   0.85920   0.39900   0.01267  Uiso   1.00
O44    O     0.45230   0.87630   0.24540   0.01267  Uiso   1.00
O45    O     0.32980   0.99480   0.31480   0.01267  Uiso   1.00
O46    O     0.39840   0.11860   0.18780   0.01267  Uiso   1.00
O47    O     0.87310   0.65710   0.73720   0.01267  Uiso   1.00
O48    O     0.71350   0.39610   0.84820   0.01267  Uiso   1.00
O49    O     0.96040   0.41180   0.71100   0.01267  Uiso   1.00
O50    O     0.85580   0.38690   0.71390   0.01267  Uiso   1.00
O51    O     0.72500   0.53050   0.71100   0.01267  Uiso   1.00
O52    O     0.28120   0.85590   0.41840   0.01267  Uiso   1.00
