data_WORLAS_clean
_audit_creation_date              2015-10-16
_audit_creation_method            'Materials Studio'
_symmetry_space_group_name_H-M    'P1'
_symmetry_Int_Tables_number       1
_symmetry_cell_setting            triclinic
loop_
_symmetry_equiv_pos_as_xyz
  x,y,z
_cell_length_a                    17.9128
_cell_length_b                    20.0002
_cell_length_c                    20.8725
_cell_angle_alpha                 71.6450
_cell_angle_beta                  70.3050
_cell_angle_gamma                 68.9810
loop_
_atom_site_label
_atom_site_type_symbol
_atom_site_fract_x
_atom_site_fract_y
_atom_site_fract_z
_atom_site_U_iso_or_equiv
_atom_site_adp_type
_atom_site_occupancy
Zn1    Zn    0.86657   0.84052   0.88164   0.01267  Uiso   1.00
Zn2    Zn    0.45755   0.27499   0.45868   0.01267  Uiso   1.00
Zn3    Zn    0.71952   0.85165   0.02233   0.01267  Uiso   1.00
Zn4    Zn    0.86905   0.71152   0.01707   0.01267  Uiso   1.00
Zn5    Zn    0.89105   0.85860   0.02352   0.01267  Uiso   1.00
Zn6    Zn    0.30982   0.42072   0.45933   0.01267  Uiso   1.00
Zn7    Zn    0.27672   0.27588   0.45310   0.01267  Uiso   1.00
Zn8    Zn    0.30633   0.29236   0.58939   0.01267  Uiso   1.00
H1     H     0.73960   0.56310   0.15830   0.01267  Uiso   1.00
H2     H     0.72820   0.44570   0.22970   0.01267  Uiso   1.00
H3     H     0.14280   0.38830   0.30010   0.01267  Uiso   1.00
H4     H     0.59940   0.14710   0.31370   0.01267  Uiso   1.00
H5     H     0.02170   0.52760   0.92440   0.01267  Uiso   1.00
H6     H     0.44400   0.18620   0.73580   0.01267  Uiso   1.00
H7     H     0.10910   0.67170   0.63970   0.01267  Uiso   1.00
H8     H     0.12760   0.99600   0.64140   0.01267  Uiso   1.00
H9     H     0.63910   0.14290   0.57160   0.01267  Uiso   1.00
H10    H     0.10360   0.44690   0.85290   0.01267  Uiso   1.00
H11    H     0.98720   0.04350   0.91930   0.01267  Uiso   1.00
H12    H     0.18790   0.42150   0.73690   0.01267  Uiso   1.00
H13    H     0.72960   0.08690   0.23240   0.01267  Uiso   1.00
H14    H     0.64580   0.37850   0.31450   0.01267  Uiso   1.00
H15    H     0.44830   0.55470   0.32580   0.01267  Uiso   1.00
H16    H     0.73800   0.00460   0.76790   0.01267  Uiso   1.00
H17    H     0.05200   0.13240   0.84830   0.01267  Uiso   1.00
H18    H     0.53350   0.74290   0.15720   0.01267  Uiso   1.00
H19    H     0.01350   0.57700   0.14850   0.01267  Uiso   1.00
H20    H     0.13270   0.18150   0.73090   0.01267  Uiso   1.00
H21    H     0.07020   0.45900   0.21730   0.01267  Uiso   1.00
H22    H     0.45920   0.67070   0.23950   0.01267  Uiso   1.00
H23    H     0.72330   0.07390   0.64360   0.01267  Uiso   1.00
H24    H     0.16010   0.68470   0.21550   0.01267  Uiso   1.00
H25    H     0.19860   0.59070   0.57000   0.01267  Uiso   1.00
H26    H     0.07380   0.75460   0.14360   0.01267  Uiso   1.00
H27    H     0.79580   0.00830   0.15740   0.01267  Uiso   1.00
H28    H     0.57930   0.96680   0.17980   0.01267  Uiso   1.00
H29    H     0.04120   0.94660   0.76060   0.01267  Uiso   1.00
H30    H     0.38970   0.10620   0.34110   0.01267  Uiso   1.00
H31    H     0.19880   0.07940   0.57190   0.01267  Uiso   1.00
H32    H     0.53660   0.03380   0.92970   0.01267  Uiso   1.00
H33    H     0.03390   0.69770   0.75670   0.01267  Uiso   1.00
H34    H     0.21580   0.56650   0.29070   0.01267  Uiso   1.00
H35    H     0.45830   0.12160   0.85910   0.01267  Uiso   1.00
H36    H     0.45380   0.02550   0.26510   0.01267  Uiso   1.00
C1     C     0.44690   0.09850   0.31850   0.01267  Uiso   1.00
C2     C     0.02290   0.62230   0.84610   0.01267  Uiso   1.00
C3     C     0.70380   0.70550   0.09390   0.01267  Uiso   1.00
C4     C     0.13010   0.03240   0.66010   0.01267  Uiso   1.00
C5     C     0.09880   0.48000   0.23300   0.01267  Uiso   1.00
C6     C     0.56540   0.03750   0.24210   0.01267  Uiso   1.00
C7     C     0.19350   0.47190   0.29930   0.01267  Uiso   1.00
C8     C     0.09080   0.09180   0.75850   0.01267  Uiso   1.00
C9     C     0.01190   0.98740   0.84570   0.01267  Uiso   1.00
C10    C     0.17130   0.47270   0.71750   0.01267  Uiso   1.00
C11    C     0.17380   0.13860   0.64530   0.01267  Uiso   1.00
C12    C     0.97730   0.71900   0.09580   0.01267  Uiso   1.00
C13    C     0.60840   0.98950   0.19300   0.01267  Uiso   1.00
C14    C     0.04630   0.98310   0.77760   0.01267  Uiso   1.00
C15    C     0.64560   0.01550   0.85510   0.01267  Uiso   1.00
C16    C     0.51410   0.09750   0.83940   0.01267  Uiso   1.00
C17    C     0.05150   0.09470   0.83010   0.01267  Uiso   1.00
C18    C     0.67130   0.46830   0.24780   0.01267  Uiso   1.00
C19    C     0.17130   0.08220   0.61900   0.01267  Uiso   1.00
C20    C     0.13040   0.66190   0.20290   0.01267  Uiso   1.00
C21    C     0.69300   0.97800   0.16610   0.01267  Uiso   1.00
C22    C     0.61520   0.07280   0.25680   0.01267  Uiso   1.00
C23    C     0.24260   0.42640   0.35480   0.01267  Uiso   1.00
C24    C     0.55930   0.69240   0.17310   0.01267  Uiso   1.00
C25    C     0.10160   0.59790   0.73260   0.01267  Uiso   1.00
C26    C     0.09010   0.03470   0.73230   0.01267  Uiso   1.00
C27    C     0.54960   0.57460   0.25010   0.01267  Uiso   1.00
C28    C     0.70000   0.95800   0.89950   0.01267  Uiso   1.00
C29    C     0.56120   0.04760   0.88130   0.01267  Uiso   1.00
C30    C     0.66600   0.09400   0.66260   0.01267  Uiso   1.00
C31    C     0.04350   0.59810   0.16280   0.01267  Uiso   1.00
C32    C     0.22340   0.19080   0.60060   0.01267  Uiso   1.00
C33    C     0.44620   0.18590   0.37970   0.01267  Uiso   1.00
C34    C     0.01330   0.04220   0.87170   0.01267  Uiso   1.00
C35    C     0.69940   0.06160   0.22370   0.01267  Uiso   1.00
C36    C     0.47870   0.21510   0.59900   0.01267  Uiso   1.00
C37    C     0.50030   0.16120   0.71840   0.01267  Uiso   1.00
C38    C     0.48540   0.04980   0.27340   0.01267  Uiso   1.00
C39    C     0.57060   0.12230   0.30270   0.01267  Uiso   1.00
C40    C     0.18740   0.54480   0.27540   0.01267  Uiso   1.00
C41    C     0.13960   0.58740   0.22870   0.01267  Uiso   1.00
C42    C     0.51650   0.64940   0.22210   0.01267  Uiso   1.00
C43    C     0.14310   0.43800   0.27980   0.01267  Uiso   1.00
C44    C     0.64660   0.66010   0.14440   0.01267  Uiso   1.00
C45    C     0.63150   0.07860   0.73750   0.01267  Uiso   1.00
C46    C     0.08000   0.70330   0.16010   0.01267  Uiso   1.00
C47    C     0.61770   0.13600   0.62080   0.01267  Uiso   1.00
C48    C     0.68180   0.58450   0.17400   0.01267  Uiso   1.00
C49    C     0.73850   0.01550   0.17940   0.01267  Uiso   1.00
C50    C     0.96640   0.67400   0.89270   0.01267  Uiso   1.00
C51    C     0.09050   0.49810   0.83290   0.01267  Uiso   1.00
C52    C     0.54810   0.11490   0.76430   0.01267  Uiso   1.00
C53    C     0.17710   0.57310   0.61840   0.01267  Uiso   1.00
C54    C     0.63560   0.54240   0.22340   0.01267  Uiso   1.00
C55    C     0.50430   0.53240   0.30460   0.01267  Uiso   1.00
C56    C     0.24140   0.44400   0.60300   0.01267  Uiso   1.00
C57    C     0.48950   0.13410   0.33010   0.01267  Uiso   1.00
C58    C     0.19620   0.49730   0.64810   0.01267  Uiso   1.00
C59    C     0.62220   0.42950   0.29830   0.01267  Uiso   1.00
C60    C     0.48430   0.41660   0.38360   0.01267  Uiso   1.00
C61    C     0.05010   0.64650   0.77650   0.01267  Uiso   1.00
C62    C     0.73670   0.92730   0.11530   0.01267  Uiso   1.00
C63    C     0.68130   0.02830   0.78530   0.01267  Uiso   1.00
C64    C     0.12130   0.52110   0.76190   0.01267  Uiso   1.00
C65    C     0.13260   0.14280   0.71380   0.01267  Uiso   1.00
C66    C     0.53850   0.46040   0.32790   0.01267  Uiso   1.00
C67    C     0.09490   0.55430   0.20750   0.01267  Uiso   1.00
C68    C     0.53420   0.17040   0.64940   0.01267  Uiso   1.00
C69    C     0.12710   0.62100   0.66040   0.01267  Uiso   1.00
C70    C     0.04200   0.54560   0.87590   0.01267  Uiso   1.00
C71    C     0.96730   0.93270   0.89330   0.01267  Uiso   1.00
C72    C     0.03720   0.66980   0.14070   0.01267  Uiso   1.00
O1     O     0.23280   0.23150   0.63260   0.01267  Uiso   1.00
O2     O     0.25750   0.37640   0.63120   0.01267  Uiso   1.00
O3     O     0.51830   0.34590   0.39840   0.01267  Uiso   1.00
O4     O     0.36790   0.20330   0.39760   0.01267  Uiso   1.00
O5     O     0.81370   0.91710   0.09200   0.01267  Uiso   1.00
O6     O     0.41250   0.44880   0.41140   0.01267  Uiso   1.00
O7     O     0.95800   0.88830   0.86480   0.01267  Uiso   1.00
O8     O     0.34050   0.31500   0.48840   0.01267  Uiso   1.00
O9     O     0.95760   0.74080   0.86580   0.01267  Uiso   1.00
O10    O     0.94610   0.92910   0.95860   0.01267  Uiso   1.00
O11    O     0.40470   0.24110   0.62630   0.01267  Uiso   1.00
O12    O     0.25750   0.35910   0.36640   0.01267  Uiso   1.00
O13    O     0.25140   0.19240   0.54030   0.01267  Uiso   1.00
O14    O     0.97120   0.78560   0.07280   0.01267  Uiso   1.00
O15    O     0.93270   0.64680   0.95560   0.01267  Uiso   1.00
O16    O     0.49090   0.20530   0.40120   0.01267  Uiso   1.00
O17    O     0.77360   0.94120   0.87810   0.01267  Uiso   1.00
O18    O     0.83790   0.81650   0.98650   0.01267  Uiso   1.00
O19    O     0.77730   0.67330   0.07440   0.01267  Uiso   1.00
O20    O     0.51370   0.22330   0.53450   0.01267  Uiso   1.00
O21    O     0.26290   0.47150   0.53680   0.01267  Uiso   1.00
O22    O     0.65690   0.92750   0.96150   0.01267  Uiso   1.00
O23    O     0.25400   0.46600   0.38840   0.01267  Uiso   1.00
O24    O     0.69070   0.90250   0.09950   0.01267  Uiso   1.00
O25    O     0.66650   0.77410   0.07320   0.01267  Uiso   1.00
O26    O     0.94010   0.68350   0.08100   0.01267  Uiso   1.00
Zn9    Zn    0.10895   0.14140   0.97648   0.01267  Uiso   1.00
Zn10   Zn    0.28048   0.14835   0.97767   0.01267  Uiso   1.00
Zn11   Zn    0.13343   0.15948   0.11836   0.01267  Uiso   1.00
Zn12   Zn    0.69018   0.57928   0.54067   0.01267  Uiso   1.00
Zn13   Zn    0.72328   0.72412   0.54690   0.01267  Uiso   1.00
Zn14   Zn    0.13095   0.28848   0.98293   0.01267  Uiso   1.00
Zn15   Zn    0.54245   0.72501   0.54132   0.01267  Uiso   1.00
Zn16   Zn    0.69367   0.70764   0.41061   0.01267  Uiso   1.00
H37    H     0.80120   0.92060   0.42810   0.01267  Uiso   1.00
H38    H     0.92620   0.24540   0.85640   0.01267  Uiso   1.00
H39    H     0.92980   0.54100   0.78270   0.01267  Uiso   1.00
H40    H     0.89640   0.55310   0.14710   0.01267  Uiso   1.00
H41    H     0.85720   0.61170   0.69990   0.01267  Uiso   1.00
H42    H     0.36090   0.85710   0.42840   0.01267  Uiso   1.00
H43    H     0.20420   0.99170   0.84260   0.01267  Uiso   1.00
H44    H     0.40060   0.85290   0.68630   0.01267  Uiso   1.00
H45    H     0.98650   0.42300   0.85150   0.01267  Uiso   1.00
H46    H     0.46650   0.25710   0.84280   0.01267  Uiso   1.00
H47    H     0.61030   0.89380   0.65890   0.01267  Uiso   1.00
H48    H     0.54170   0.87840   0.14090   0.01267  Uiso   1.00
H49    H     0.35420   0.62150   0.68550   0.01267  Uiso   1.00
H50    H     0.46340   0.96620   0.07030   0.01267  Uiso   1.00
H51    H     0.97830   0.47240   0.07560   0.01267  Uiso   1.00
H52    H     0.27180   0.55430   0.77030   0.01267  Uiso   1.00
H53    H     0.54620   0.97450   0.73490   0.01267  Uiso   1.00
H54    H     0.55600   0.81380   0.26420   0.01267  Uiso   1.00
H55    H     0.54080   0.32930   0.76050   0.01267  Uiso   1.00
H56    H     0.86730   0.81850   0.26910   0.01267  Uiso   1.00
H57    H     0.87240   0.00400   0.35860   0.01267  Uiso   1.00
H58    H     0.89090   0.32830   0.36030   0.01267  Uiso   1.00
H59    H     0.96610   0.30230   0.24330   0.01267  Uiso   1.00
H60    H     0.55170   0.44530   0.67420   0.01267  Uiso   1.00
H61    H     0.80140   0.40930   0.43000   0.01267  Uiso   1.00
H62    H     0.42070   0.03320   0.82020   0.01267  Uiso   1.00
H63    H     0.78420   0.43350   0.70930   0.01267  Uiso   1.00
H64    H     0.27040   0.91310   0.76760   0.01267  Uiso   1.00
H65    H     0.95880   0.05340   0.23940   0.01267  Uiso   1.00
H66    H     0.83990   0.31530   0.78450   0.01267  Uiso   1.00
H67    H     0.27670   0.92610   0.35640   0.01267  Uiso   1.00
H68    H     0.81210   0.57850   0.26310   0.01267  Uiso   1.00
H69    H     0.26040   0.43690   0.84170   0.01267  Uiso   1.00
H70    H     0.94800   0.86760   0.15170   0.01267  Uiso   1.00
H71    H     0.01280   0.95650   0.08070   0.01267  Uiso   1.00
H72    H     0.26200   0.99540   0.23210   0.01267  Uiso   1.00
C73    C     0.43880   0.95240   0.11870   0.01267  Uiso   1.00
C74    C     0.82870   0.91780   0.38100   0.01267  Uiso   1.00
C75    C     0.97710   0.37770   0.15390   0.01267  Uiso   1.00
C76    C     0.75740   0.57360   0.64520   0.01267  Uiso   1.00
C77    C     0.80380   0.50270   0.35190   0.01267  Uiso   1.00
C78    C     0.29620   0.29450   0.90610   0.01267  Uiso   1.00
C79    C     0.30000   0.04200   0.10050   0.01267  Uiso   1.00
C80    C     0.36440   0.45760   0.77660   0.01267  Uiso   1.00
C81    C     0.03270   0.06730   0.10670   0.01267  Uiso   1.00
C82    C     0.77660   0.80920   0.39940   0.01267  Uiso   1.00
C83    C     0.38230   0.86400   0.37920   0.01267  Uiso   1.00
C84    C     0.35340   0.33990   0.85560   0.01267  Uiso   1.00
C85    C     0.45040   0.42540   0.74990   0.01267  Uiso   1.00
C86    C     0.33400   0.90600   0.33740   0.01267  Uiso   1.00
C87    C     0.86990   0.96760   0.33990   0.01267  Uiso   1.00
C88    C     0.46580   0.82960   0.35060   0.01267  Uiso   1.00
C89    C     0.75860   0.55600   0.39700   0.01267  Uiso   1.00
C90    C     0.90510   0.44570   0.79250   0.01267  Uiso   1.00
C91    C     0.94990   0.35350   0.22350   0.01267  Uiso   1.00
C92    C     0.38480   0.92720   0.74320   0.01267  Uiso   1.00
C93    C     0.87870   0.47890   0.23810   0.01267  Uiso   1.00
C94    C     0.31870   0.97170   0.21470   0.01267  Uiso   1.00
C95    C     0.86740   0.85720   0.28620   0.01267  Uiso   1.00
C96    C     0.37780   0.57050   0.70170   0.01267  Uiso   1.00
C97    C     0.90950   0.50190   0.16710   0.01267  Uiso   1.00
C98    C     0.96280   0.33020   0.85930   0.01267  Uiso   1.00
C99    C     0.89840   0.40210   0.26740   0.01267  Uiso   1.00
C100   C     0.36850   0.92140   0.26250   0.01267  Uiso   1.00
C101   C     0.31820   0.41550   0.82600   0.01267  Uiso   1.00
C102   C     0.43460   0.96250   0.75790   0.01267  Uiso   1.00
C103   C     0.82870   0.52730   0.28250   0.01267  Uiso   1.00
C104   C     0.48590   0.90250   0.16060   0.01267  Uiso   1.00
C105   C     0.95650   0.40190   0.83720   0.01267  Uiso   1.00
C106   C     0.81260   0.45520   0.72460   0.01267  Uiso   1.00
C107   C     0.46150   0.53960   0.67210   0.01267  Uiso   1.00
C108   C     0.48350   0.35060   0.77790   0.01267  Uiso   1.00
C109   C     0.98810   0.01260   0.15430   0.01267  Uiso   1.00
C110   C     0.26330   0.07270   0.88470   0.01267  Uiso   1.00
C111   C     0.82620   0.86140   0.35470   0.01267  Uiso   1.00
C112   C     0.95800   0.45440   0.12410   0.01267  Uiso   1.00
C113   C     0.51460   0.95020   0.72660   0.01267  Uiso   1.00
C114   C     0.87290   0.37900   0.33960   0.01267  Uiso   1.00
C115   C     0.32870   0.53170   0.75220   0.01267  Uiso   1.00
C116   C     0.30700   0.02200   0.83390   0.01267  Uiso   1.00
C117   C     0.85690   0.56200   0.72020   0.01267  Uiso   1.00
C118   C     0.82290   0.42690   0.38160   0.01267  Uiso   1.00
C119   C     0.26150   0.98450   0.82060   0.01267  Uiso   1.00
C120   C     0.03360   0.32600   0.10730   0.01267  Uiso   1.00
C121   C     0.86040   0.41260   0.77130   0.01267  Uiso   1.00
C122   C     0.95370   0.01690   0.22240   0.01267  Uiso   1.00
C123   C     0.55310   0.90150   0.68150   0.01267  Uiso   1.00
C124   C     0.30060   0.93840   0.77630   0.01267  Uiso   1.00
C125   C     0.51570   0.58340   0.61640   0.01267  Uiso   1.00
C126   C     0.02270   0.28100   0.90420   0.01267  Uiso   1.00
C127   C     0.39160   0.01050   0.80700   0.01267  Uiso   1.00
C128   C     0.86960   0.33810   0.79710   0.01267  Uiso   1.00
C129   C     0.42940   0.87770   0.69730   0.01267  Uiso   1.00
C130   C     0.92000   0.29670   0.83990   0.01267  Uiso   1.00
C131   C     0.55380   0.81410   0.62030   0.01267  Uiso   1.00
C132   C     0.51050   0.86590   0.66990   0.01267  Uiso   1.00
C133   C     0.90990   0.96530   0.26770   0.01267  Uiso   1.00
C134   C     0.35440   0.98450   0.14490   0.01267  Uiso   1.00
C135   C     0.80650   0.52810   0.70070   0.01267  Uiso   1.00
C136   C     0.49970   0.83880   0.28160   0.01267  Uiso   1.00
C137   C     0.90120   0.52000   0.76700   0.01267  Uiso   1.00
C138   C     0.94850   0.90530   0.16990   0.01267  Uiso   1.00
C139   C     0.90920   0.90820   0.24150   0.01267  Uiso   1.00
C140   C     0.52130   0.78490   0.40100   0.01267  Uiso   1.00
C141   C     0.49570   0.46760   0.69540   0.01267  Uiso   1.00
C142   C     0.98670   0.95780   0.12830   0.01267  Uiso   1.00
C143   C     0.44070   0.30760   0.82690   0.01267  Uiso   1.00
C144   C     0.45190   0.88510   0.23570   0.01267  Uiso   1.00
O27    O     0.50910   0.79470   0.59880   0.01267  Uiso   1.00
O28    O     0.48170   0.65410   0.60160   0.01267  Uiso   1.00
O29    O     0.74250   0.62360   0.36880   0.01267  Uiso   1.00
O30    O     0.18630   0.08290   0.90800   0.01267  Uiso   1.00
O31    O     0.34310   0.07250   0.03850   0.01267  Uiso   1.00
O32    O     0.02880   0.21440   0.92720   0.01267  Uiso   1.00
O33    O     0.30930   0.09750   0.90050   0.01267  Uiso   1.00
O34    O     0.06730   0.35320   0.04440   0.01267  Uiso   1.00
O35    O     0.65950   0.68500   0.51160   0.01267  Uiso   1.00
O36    O     0.59530   0.75890   0.37370   0.01267  Uiso   1.00
O37    O     0.74600   0.53400   0.61160   0.01267  Uiso   1.00
O38    O     0.05390   0.07090   0.04140   0.01267  Uiso   1.00
O39    O     0.76720   0.76850   0.36740   0.01267  Uiso   1.00
O40    O     0.48630   0.77670   0.46550   0.01267  Uiso   1.00
O41    O     0.74860   0.80760   0.45970   0.01267  Uiso   1.00
O42    O     0.63210   0.79670   0.60240   0.01267  Uiso   1.00
O43    O     0.22640   0.05880   0.12190   0.01267  Uiso   1.00
O44    O     0.04200   0.11170   0.13520   0.01267  Uiso   1.00
O45    O     0.16210   0.18350   0.01350   0.01267  Uiso   1.00
O46    O     0.58750   0.55120   0.58860   0.01267  Uiso   1.00
O47    O     0.22270   0.32670   0.92560   0.01267  Uiso   1.00
O48    O     0.73710   0.52850   0.46320   0.01267  Uiso   1.00
O49    O     0.74250   0.64090   0.63360   0.01267  Uiso   1.00
O50    O     0.04240   0.25920   0.13420   0.01267  Uiso   1.00
O51    O     0.33350   0.22590   0.92680   0.01267  Uiso   1.00
O52    O     0.05990   0.31650   0.91900   0.01267  Uiso   1.00
