data_WORREC_clean
_audit_creation_date              2015-10-16
_audit_creation_method            'Materials Studio'
_symmetry_space_group_name_H-M    'P1'
_symmetry_Int_Tables_number       1
_symmetry_cell_setting            triclinic
loop_
_symmetry_equiv_pos_as_xyz
  x,y,z
_cell_length_a                    10.0062
_cell_length_b                    15.3874
_cell_length_c                    15.3874
_cell_angle_alpha                 75.4303
_cell_angle_beta                  71.0259
_cell_angle_gamma                 71.0259
loop_
_atom_site_label
_atom_site_type_symbol
_atom_site_fract_x
_atom_site_fract_y
_atom_site_fract_z
_atom_site_U_iso_or_equiv
_atom_site_adp_type
_atom_site_occupancy
Cu1    Cu    0.09987   0.45454   0.04546   0.01267  Uiso   1.00
Cu2    Cu    0.90013   0.54546   0.95454   0.01267  Uiso   1.00
Cu3    Cu    0.90013   0.95454   0.54546   0.01267  Uiso   1.00
Cu4    Cu    0.09987   0.04546   0.45454   0.01267  Uiso   1.00
H1     H     0.40350   0.43960   0.75900   0.01267  Uiso   1.00
H2     H     0.18970   0.67650   0.56130   0.01267  Uiso   1.00
H3     H     0.00000   0.12160   0.87840   0.01267  Uiso   1.00
H4     H     0.89790   0.93960   0.25900   0.01267  Uiso   1.00
H5     H     0.81030   0.43870   0.32350   0.01267  Uiso   1.00
H6     H     0.18970   0.56130   0.67650   0.01267  Uiso   1.00
H7     H     0.40350   0.75900   0.43960   0.01267  Uiso   1.00
H8     H     0.59650   0.56040   0.24100   0.01267  Uiso   1.00
H9     H     0.81030   0.32350   0.43870   0.01267  Uiso   1.00
H10    H     0.07250   0.17650   0.06130   0.01267  Uiso   1.00
H11    H     0.92750   0.82350   0.93870   0.01267  Uiso   1.00
H12    H     0.89790   0.25900   0.93960   0.01267  Uiso   1.00
H13    H     0.00000   0.87840   0.12160   0.01267  Uiso   1.00
H14    H     0.10210   0.74100   0.06040   0.01267  Uiso   1.00
H15    H     0.07250   0.06130   0.17650   0.01267  Uiso   1.00
H16    H     0.59650   0.24100   0.56040   0.01267  Uiso   1.00
H17    H     0.50000   0.37840   0.62160   0.01267  Uiso   1.00
H18    H     0.10210   0.06040   0.74100   0.01267  Uiso   1.00
H19    H     0.50000   0.62160   0.37840   0.01267  Uiso   1.00
H20    H     0.92750   0.93870   0.82350   0.01267  Uiso   1.00
C1     C     0.00000   0.92780   0.07220   0.01267  Uiso   1.00
C2     C     0.95364   0.25776   0.97816   0.01267  Uiso   1.00
C3     C     0.19247   0.84753   0.49053   0.01267  Uiso   1.00
C4     C     0.31044   0.75776   0.47816   0.01267  Uiso   1.00
C5     C     0.28284   0.52206   0.67606   0.01267  Uiso   1.00
C6     C     0.01904   0.02206   0.17606   0.01267  Uiso   1.00
C7     C     0.03053   0.00947   0.65247   0.01267  Uiso   1.00
C8     C     0.01107   0.01143   0.08423   0.01267  Uiso   1.00
C9     C     0.68956   0.52184   0.24224   0.01267  Uiso   1.00
C10    C     0.98096   0.97794   0.82394   0.01267  Uiso   1.00
C11    C     0.28284   0.67606   0.52206   0.01267  Uiso   1.00
C12    C     0.98096   0.82394   0.97794   0.01267  Uiso   1.00
C13    C     0.80753   0.50947   0.15247   0.01267  Uiso   1.00
C14    C     0.60673   0.48857   0.41577   0.01267  Uiso   1.00
C15    C     0.31044   0.47816   0.75776   0.01267  Uiso   1.00
C16    C     0.03053   0.65247   0.00947   0.01267  Uiso   1.00
C17    C     0.68956   0.24224   0.52184   0.01267  Uiso   1.00
C18    C     0.04636   0.74224   0.02184   0.01267  Uiso   1.00
C19    C     0.98893   0.98857   0.91577   0.01267  Uiso   1.00
C20    C     0.50000   0.57220   0.42780   0.01267  Uiso   1.00
C21    C     0.71716   0.47794   0.32394   0.01267  Uiso   1.00
C22    C     0.96947   0.34753   0.99053   0.01267  Uiso   1.00
C23    C     0.19247   0.49053   0.84753   0.01267  Uiso   1.00
C24    C     0.04636   0.02184   0.74224   0.01267  Uiso   1.00
C25    C     0.39327   0.51143   0.58423   0.01267  Uiso   1.00
C26    C     0.01107   0.08423   0.01143   0.01267  Uiso   1.00
C27    C     0.60673   0.41577   0.48857   0.01267  Uiso   1.00
C28    C     0.50000   0.42780   0.57220   0.01267  Uiso   1.00
C29    C     0.98893   0.91577   0.98857   0.01267  Uiso   1.00
C30    C     0.95364   0.97816   0.25776   0.01267  Uiso   1.00
C31    C     0.71716   0.32394   0.47794   0.01267  Uiso   1.00
C32    C     0.80753   0.15247   0.50947   0.01267  Uiso   1.00
C33    C     0.00000   0.07220   0.92780   0.01267  Uiso   1.00
C34    C     0.39327   0.58423   0.51143   0.01267  Uiso   1.00
C35    C     0.96947   0.99053   0.34753   0.01267  Uiso   1.00
C36    C     0.01904   0.17606   0.02206   0.01267  Uiso   1.00
O1     O     0.76436   0.54706   0.07882   0.01267  Uiso   1.00
O2     O     0.93364   0.46807   0.15565   0.01267  Uiso   1.00
O3     O     0.94264   0.96807   0.65565   0.01267  Uiso   1.00
O4     O     0.76436   0.07882   0.54706   0.01267  Uiso   1.00
O5     O     0.06636   0.84435   0.53193   0.01267  Uiso   1.00
O6     O     0.89024   0.95294   0.42118   0.01267  Uiso   1.00
O7     O     0.94264   0.65565   0.96807   0.01267  Uiso   1.00
O8     O     0.05736   0.34435   0.03193   0.01267  Uiso   1.00
O9     O     0.89024   0.42118   0.95294   0.01267  Uiso   1.00
O10    O     0.10976   0.04706   0.57882   0.01267  Uiso   1.00
O11    O     0.23564   0.92118   0.45294   0.01267  Uiso   1.00
O12    O     0.10976   0.57882   0.04706   0.01267  Uiso   1.00
O13    O     0.06636   0.53193   0.84435   0.01267  Uiso   1.00
O14    O     0.23564   0.45294   0.92118   0.01267  Uiso   1.00
O15    O     0.93364   0.15565   0.46807   0.01267  Uiso   1.00
O16    O     0.05736   0.03193   0.34435   0.01267  Uiso   1.00
