data_image0
_cell_length_a       11.446
_cell_length_b       13.434
_cell_length_c       15.352
_cell_angle_alpha    79.59
_cell_angle_beta     76.45
_cell_angle_gamma    79.82

_symmetry_space_group_name_H-M    "P 1"
_symmetry_int_tables_number       1

loop_
  _symmetry_equiv_pos_as_xyz
  'x, y, z'

loop_
  _atom_site_label
  _atom_site_occupancy
  _atom_site_fract_x
  _atom_site_fract_y
  _atom_site_fract_z
  _atom_site_thermal_displace_type
  _atom_site_B_iso_or_equiv
  _atom_site_type_symbol
  Cu1      1.0000 0.20021  0.63781  0.47923  Biso   1.000  Cu
  Cu2      1.0000 0.42746  0.33448  0.89380  Biso   1.000  Cu
  Cu3      1.0000 0.32764  0.62898  0.26946  Biso   1.000  Cu
  Cu4      1.0000 0.19201  0.51428  0.21743  Biso   1.000  Cu
  Cu5      1.0000 0.69859  0.02949  0.68497  Biso   1.000  Cu
  N1       1.0000 0.93100  0.50340  0.67300  Biso   1.000  N
  N2       1.0000 0.57390  0.23260  0.89270  Biso   1.000  N
  N3       1.0000 0.89690  0.29970  0.73770  Biso   1.000  N
  N4       1.0000 0.67170  0.25850  0.82570  Biso   1.000  N
  N5       1.0000 0.74170  0.12310  0.91720  Biso   1.000  N
  C1       1.0000 0.62030  0.15120  0.94650  Biso   1.000  C
  C2       1.0000 0.97800  0.58780  0.62050  Biso   1.000  C
  C3       1.0000 0.00060  0.31700  0.67910  Biso   1.000  C
  C4       1.0000 0.54680  0.10490  0.02880  Biso   1.000  C
  C5       1.0000 0.76610  0.19430  0.84100  Biso   1.000  C
  C6       1.0000 0.88590  0.20320  0.78170  Biso   1.000  C
  C7       1.0000 0.01160  0.42500  0.63880  Biso   1.000  C
  N6       1.0000 0.34140  0.52010  0.44660  Biso   1.000  N
  N7       1.0000 0.07970  0.55800  0.56270  Biso   1.000  N
  N8       1.0000 0.10080  0.45570  0.57310  Biso   1.000  N
  N9       1.0000 0.36450  0.51540  0.35620  Biso   1.000  N
  N10      1.0000 0.45110  0.36660  0.42080  Biso   1.000  N
  N11      1.0000 0.38980  0.43160  0.19610  Biso   1.000  N
  C8       1.0000 0.39420  0.42980  0.48320  Biso   1.000  C
  C9       1.0000 0.42040  0.40990  0.11000  Biso   1.000  C
  C10      1.0000 0.57530  0.33280  0.22570  Biso   1.000  C
  H1       1.0000 0.62730  0.30840  0.26560  Biso   1.000  H
  C11      1.0000 0.42820  0.42550  0.34340  Biso   1.000  C
  C12      1.0000 0.46550  0.39300  0.25300  Biso   1.000  C
  N12      1.0000 0.38710  0.34830  0.76930  Biso   1.000  N
  N13      1.0000 0.23730  0.49360  0.94230  Biso   1.000  N
  N14      1.0000 0.33760  0.43610  0.96920  Biso   1.000  N
  N15      1.0000 0.23240  0.51590  0.08660  Biso   1.000  N
  C13      1.0000 0.39020  0.39990  0.58240  Biso   1.000  C
  C14      1.0000 0.32940  0.43870  0.73490  Biso   1.000  C
  H2       1.0000 0.28540  0.48280  0.77500  Biso   1.000  H
  C15      1.0000 0.33220  0.46930  0.64310  Biso   1.000  C
  H3       1.0000 0.29660  0.53430  0.62210  Biso   1.000  H
  C16      1.0000 0.44550  0.30830  0.61560  Biso   1.000  C
  H4       1.0000 0.48400  0.26060  0.57730  Biso   1.000  H
  C17      1.0000 0.44420  0.28650  0.70770  Biso   1.000  C
  H5       1.0000 0.48610  0.22420  0.72850  Biso   1.000  H
  C18      1.0000 0.33300  0.45250  0.05440  Biso   1.000  C
  C19      1.0000 0.53120  0.34820  0.08080  Biso   1.000  C
  H6       1.0000 0.55240  0.33400  0.02160  Biso   1.000  H
  C20      1.0000 0.60650  0.30980  0.13780  Biso   1.000  C
  H7       1.0000 0.67870  0.26820  0.11860  Biso   1.000  H
  C21      1.0000 0.92060  0.69180  0.62970  Biso   1.000  C
  C22      1.0000 0.17700  0.54170  0.01180  Biso   1.000  C
  C23      1.0000 0.35720  0.08240  0.13010  Biso   1.000  C
  H8       1.0000 0.27300  0.09690  0.14100  Biso   1.000  H
  C24      1.0000 0.60040  0.03670  0.09490  Biso   1.000  C
  H9       1.0000 0.68420  0.01830  0.08400  Biso   1.000  H
  C25      1.0000 0.53010  0.99720  0.17500  Biso   1.000  C
  H10      1.0000 0.56880  0.95350  0.21710  Biso   1.000  H
  C26      1.0000 0.99410  0.65370  0.08350  Biso   1.000  C
  H11      1.0000 0.01700  0.63790  0.13920  Biso   1.000  H
  C27      1.0000 0.06550  0.61120  0.00900  Biso   1.000  C
  C28      1.0000 0.42140  0.12730  0.04880  Biso   1.000  C
  H12      1.0000 0.38090  0.17190  0.00820  Biso   1.000  H
  C29      1.0000 0.08590  0.14280  0.70280  Biso   1.000  C
  H13      1.0000 0.14870  0.08960  0.69080  Biso   1.000  H
  C30      1.0000 0.79720  0.71460  0.64220  Biso   1.000  C
  H14      1.0000 0.75100  0.66320  0.64540  Biso   1.000  H
  C31      1.0000 0.09910  0.24000  0.65870  Biso   1.000  C
  H15      1.0000 0.16990  0.25430  0.61740  Biso   1.000  H
  C32      1.0000 0.97700  0.12210  0.76660  Biso   1.000  C
  C33      1.0000 0.97900  0.77060  0.63050  Biso   1.000  C
  H16      1.0000 0.06270  0.75950  0.62560  Biso   1.000  H
  N16      1.0000 0.40790  0.01840  0.19570  Biso   1.000  N
  C34      1.0000 0.02160  0.63910  0.92740  Biso   1.000  C
  H17      1.0000 0.06560  0.61360  0.87510  Biso   1.000  H
  N17      1.0000 0.84690  0.74470  0.99890  Biso   1.000  N
  C35      1.0000 0.89000  0.71900  0.07430  Biso   1.000  C
  H18      1.0000 0.84590  0.74780  0.12490  Biso   1.000  H
  C36      1.0000 0.91470  0.70350  0.92540  Biso   1.000  C
  H19      1.0000 0.88740  0.71960  0.87130  Biso   1.000  H
  C37      1.0000 0.91590  0.86830  0.63880  Biso   1.000  C
  H20      1.0000 0.96050  0.92100  0.63490  Biso   1.000  H
  C38      1.0000 0.74060  0.81230  0.65030  Biso   1.000  C
  H21      1.0000 0.65690  0.82480  0.65510  Biso   1.000  H
  N18      1.0000 0.79680  0.89060  0.65160  Biso   1.000  N
  N19      1.0000 0.23140  0.76840  0.42180  Biso   1.000  N
  C39      1.0000 0.25670  0.84740  0.38190  Biso   1.000  C
  Cu6      1.0000 0.79979  0.36219  0.52077  Biso   1.000  Cu
  Cu7      1.0000 0.57254  0.66552  0.10620  Biso   1.000  Cu
  Cu8      1.0000 0.67236  0.37102  0.73054  Biso   1.000  Cu
  Cu9      1.0000 0.80799  0.48572  0.78257  Biso   1.000  Cu
  Cu10     1.0000 0.30141  0.97051  0.31503  Biso   1.000  Cu
  N20      1.0000 0.06900  0.49660  0.32700  Biso   1.000  N
  N21      1.0000 0.42610  0.76740  0.10730  Biso   1.000  N
  N22      1.0000 0.10310  0.70030  0.26230  Biso   1.000  N
  N23      1.0000 0.32830  0.74150  0.17430  Biso   1.000  N
  N24      1.0000 0.25830  0.87690  0.08280  Biso   1.000  N
  C40      1.0000 0.37970  0.84880  0.05350  Biso   1.000  C
  C41      1.0000 0.02200  0.41220  0.37950  Biso   1.000  C
  C42      1.0000 0.99940  0.68300  0.32090  Biso   1.000  C
  C43      1.0000 0.45320  0.89510  0.97120  Biso   1.000  C
  C44      1.0000 0.23390  0.80570  0.15900  Biso   1.000  C
  C45      1.0000 0.11410  0.79680  0.21830  Biso   1.000  C
  C46      1.0000 0.98840  0.57500  0.36120  Biso   1.000  C
  N25      1.0000 0.65860  0.47990  0.55340  Biso   1.000  N
  N26      1.0000 0.92030  0.44200  0.43730  Biso   1.000  N
  N27      1.0000 0.89920  0.54430  0.42690  Biso   1.000  N
  N28      1.0000 0.63550  0.48460  0.64380  Biso   1.000  N
  N29      1.0000 0.54890  0.63340  0.57920  Biso   1.000  N
  N30      1.0000 0.61020  0.56840  0.80390  Biso   1.000  N
  C47      1.0000 0.60580  0.57020  0.51680  Biso   1.000  C
  C48      1.0000 0.57960  0.59010  0.89000  Biso   1.000  C
  C49      1.0000 0.42470  0.66720  0.77430  Biso   1.000  C
  H22      1.0000 0.37270  0.69160  0.73440  Biso   1.000  H
  C50      1.0000 0.57180  0.57450  0.65660  Biso   1.000  C
  C51      1.0000 0.53450  0.60700  0.74700  Biso   1.000  C
  N31      1.0000 0.61290  0.65170  0.23070  Biso   1.000  N
  N32      1.0000 0.76270  0.50640  0.05770  Biso   1.000  N
  N33      1.0000 0.66240  0.56390  0.03080  Biso   1.000  N
  N34      1.0000 0.76760  0.48410  0.91340  Biso   1.000  N
  C52      1.0000 0.60980  0.60010  0.41760  Biso   1.000  C
  C53      1.0000 0.67060  0.56130  0.26510  Biso   1.000  C
  H23      1.0000 0.71460  0.51720  0.22500  Biso   1.000  H
  C54      1.0000 0.66780  0.53070  0.35690  Biso   1.000  C
  H24      1.0000 0.70340  0.46570  0.37790  Biso   1.000  H
  C55      1.0000 0.55450  0.69170  0.38440  Biso   1.000  C
  H25      1.0000 0.51600  0.73940  0.42270  Biso   1.000  H
  C56      1.0000 0.55580  0.71350  0.29230  Biso   1.000  C
  H26      1.0000 0.51390  0.77580  0.27150  Biso   1.000  H
  C57      1.0000 0.66700  0.54750  0.94560  Biso   1.000  C
  C58      1.0000 0.46880  0.65180  0.91920  Biso   1.000  C
  H27      1.0000 0.44760  0.66600  0.97840  Biso   1.000  H
  C59      1.0000 0.39350  0.69020  0.86220  Biso   1.000  C
  H28      1.0000 0.32130  0.73180  0.88140  Biso   1.000  H
  C60      1.0000 0.07940  0.30820  0.37030  Biso   1.000  C
  C61      1.0000 0.82300  0.45830  0.98820  Biso   1.000  C
  C62      1.0000 0.64280  0.91760  0.86990  Biso   1.000  C
  H29      1.0000 0.72700  0.90310  0.85900  Biso   1.000  H
  C63      1.0000 0.39960  0.96330  0.90510  Biso   1.000  C
  H30      1.0000 0.31580  0.98170  0.91600  Biso   1.000  H
  C64      1.0000 0.46990  0.00280  0.82500  Biso   1.000  C
  H31      1.0000 0.43120  0.04650  0.78290  Biso   1.000  H
  C65      1.0000 0.00590  0.34630  0.91650  Biso   1.000  C
  H32      1.0000 0.98300  0.36210  0.86080  Biso   1.000  H
  C66      1.0000 0.93450  0.38880  0.99100  Biso   1.000  C
  C67      1.0000 0.57860  0.87270  0.95120  Biso   1.000  C
  H33      1.0000 0.61910  0.82810  0.99180  Biso   1.000  H
  C68      1.0000 0.91410  0.85720  0.29720  Biso   1.000  C
  H34      1.0000 0.85130  0.91040  0.30920  Biso   1.000  H
  C69      1.0000 0.20280  0.28540  0.35780  Biso   1.000  C
  H35      1.0000 0.24900  0.33680  0.35460  Biso   1.000  H
  C70      1.0000 0.90090  0.76000  0.34130  Biso   1.000  C
  H36      1.0000 0.83010  0.74570  0.38260  Biso   1.000  H
  C71      1.0000 0.02300  0.87790  0.23340  Biso   1.000  C
  C72      1.0000 0.02100  0.22940  0.36950  Biso   1.000  C
  H37      1.0000 0.93730  0.24050  0.37440  Biso   1.000  H
  N35      1.0000 0.59210  0.98160  0.80430  Biso   1.000  N
  C73      1.0000 0.97840  0.36090  0.07260  Biso   1.000  C
  H38      1.0000 0.93440  0.38640  0.12490  Biso   1.000  H
  N36      1.0000 0.15310  0.25530  0.00110  Biso   1.000  N
  C74      1.0000 0.11000  0.28100  0.92570  Biso   1.000  C
  H39      1.0000 0.15410  0.25220  0.87510  Biso   1.000  H
  C75      1.0000 0.08530  0.29650  0.07460  Biso   1.000  C
  H40      1.0000 0.11260  0.28040  0.12870  Biso   1.000  H
  C76      1.0000 0.08410  0.13170  0.36120  Biso   1.000  C
  H41      1.0000 0.03950  0.07900  0.36510  Biso   1.000  H
  C77      1.0000 0.25940  0.18770  0.34970  Biso   1.000  C
  H42      1.0000 0.34310  0.17520  0.34490  Biso   1.000  H
  N37      1.0000 0.20320  0.10940  0.34840  Biso   1.000  N
  N38      1.0000 0.76860  0.23160  0.57820  Biso   1.000  N
  C78      1.0000 0.74330  0.15260  0.61810  Biso   1.000  C
