data_WOSZEL_charged
_audit_creation_date              2015-10-16
_audit_creation_method            'Materials Studio'
_symmetry_space_group_name_H-M    'P1'
_symmetry_Int_Tables_number       1
_symmetry_cell_setting            triclinic
loop_
_symmetry_equiv_pos_as_xyz
  x,y,z
_cell_length_a                    9.0269
_cell_length_b                    14.0797
_cell_length_c                    27.4319
_cell_angle_alpha                 91.1870
_cell_angle_beta                  90.0000
_cell_angle_gamma                 90.0000
loop_
_atom_site_label
_atom_site_type_symbol
_atom_site_fract_x
_atom_site_fract_y
_atom_site_fract_z
_atom_site_U_iso_or_equiv
_atom_site_adp_type
_atom_site_occupancy
Zn1    Zn    0.77891   0.08055   0.83810   0.01267  Uiso   1.00
Zn2    Zn    0.72109   0.58055   0.33810   0.01267  Uiso   1.00
H1     H     0.66980   0.10470   0.69180   0.01267  Uiso   1.00
H2     H     0.56600   0.29210   0.37030   0.01267  Uiso   1.00
H3     H     0.22560   0.40950   0.05580   0.01267  Uiso   1.00
H4     H     0.06720   0.67450   0.05830   0.01267  Uiso   1.00
H5     H     0.28510   0.78900   0.49330   0.01267  Uiso   1.00
H6     H     0.19730   0.24360   0.72430   0.01267  Uiso   1.00
H7     H     0.89100   0.85700   0.39240   0.01267  Uiso   1.00
H8     H     0.09320   0.65910   0.29460   0.01267  Uiso   1.00
H9     H     0.43280   0.17450   0.55830   0.01267  Uiso   1.00
H10    H     0.83020   0.60470   0.19180   0.01267  Uiso   1.00
H11    H     0.23180   0.43280   0.13820   0.01267  Uiso   1.00
H12    H     0.14290   0.76550   0.29990   0.01267  Uiso   1.00
H13    H     0.01910   0.97810   0.43050   0.01267  Uiso   1.00
H14    H     0.08150   0.95280   0.98140   0.01267  Uiso   1.00
H15    H     0.21490   0.28900   0.99330   0.01267  Uiso   1.00
H16    H     0.33600   0.31840   0.52020   0.01267  Uiso   1.00
H17    H     0.42260   0.66310   0.22480   0.01267  Uiso   1.00
H18    H     0.34380   0.16770   0.95450   0.01267  Uiso   1.00
H19    H     0.24560   0.13680   0.72000   0.01267  Uiso   1.00
H20    H     0.25420   0.56780   0.93630   0.01267  Uiso   1.00
H21    H     0.41850   0.45280   0.48140   0.01267  Uiso   1.00
H22    H     0.09150   0.15490   0.84890   0.01267  Uiso   1.00
H23    H     0.14480   0.41510   0.21650   0.01267  Uiso   1.00
H24    H     0.93400   0.79210   0.87030   0.01267  Uiso   1.00
H25    H     0.40680   0.15910   0.79460   0.01267  Uiso   1.00
H26    H     0.27440   0.90950   0.55580   0.01267  Uiso   1.00
H27    H     0.16400   0.81840   0.02020   0.01267  Uiso   1.00
H28    H     0.15620   0.66770   0.45450   0.01267  Uiso   1.00
H29    H     0.07740   0.16310   0.72480   0.01267  Uiso   1.00
H30    H     0.32880   0.19530   0.84250   0.01267  Uiso   1.00
H31    H     0.90980   0.61980   0.11270   0.01267  Uiso   1.00
H32    H     0.26820   0.93280   0.63820   0.01267  Uiso   1.00
H33    H     0.35710   0.26550   0.79990   0.01267  Uiso   1.00
H34    H     0.24580   0.06780   0.43630   0.01267  Uiso   1.00
H35    H     0.59020   0.11980   0.61270   0.01267  Uiso   1.00
H36    H     0.40850   0.65490   0.34890   0.01267  Uiso   1.00
H37    H     0.30270   0.74360   0.22430   0.01267  Uiso   1.00
H38    H     0.25440   0.63680   0.22000   0.01267  Uiso   1.00
H39    H     0.03430   0.65890   0.90550   0.01267  Uiso   1.00
H40    H     0.60900   0.35700   0.89240   0.01267  Uiso   1.00
H41    H     0.46570   0.15890   0.40550   0.01267  Uiso   1.00
H42    H     0.35520   0.91510   0.71650   0.01267  Uiso   1.00
H43    H     0.17120   0.69530   0.34250   0.01267  Uiso   1.00
H44    H     0.48090   0.47810   0.93050   0.01267  Uiso   1.00
C1     C     0.37990   0.31260   0.48959   0.01267  Uiso   1.00
C2     C     0.15040   0.46820   0.14870   0.01267  Uiso   1.00
C3     C     0.12010   0.81260   0.98959   0.01267  Uiso   1.00
C4     C     0.40180   0.95740   0.69588   0.01267  Uiso   1.00
C5     C     0.00440   0.74910   0.42117   0.01267  Uiso   1.00
C6     C     0.37340   0.23030   0.95034   0.01267  Uiso   1.00
C7     C     0.38810   0.12410   0.54143   0.01267  Uiso   1.00
C8     C     0.58150   0.16850   0.89776   0.01267  Uiso   1.00
C9     C     0.20830   0.46650   0.04021   0.01267  Uiso   1.00
C10    C     0.58880   0.06930   0.68102   0.01267  Uiso   1.00
C11    C     0.91120   0.56930   0.18102   0.01267  Uiso   1.00
C12    C     0.56400   0.47350   0.39915   0.01267  Uiso   1.00
C13    C     0.49560   0.24910   0.92117   0.01267  Uiso   1.00
C14    C     0.25420   0.47640   0.99226   0.01267  Uiso   1.00
C15    C     0.45330   0.41550   0.93591   0.01267  Uiso   1.00
C16    C     0.41570   0.03030   0.61682   0.01267  Uiso   1.00
C17    C     0.96870   0.84270   0.41328   0.01267  Uiso   1.00
C18    C     0.92060   0.49980   0.26439   0.01267  Uiso   1.00
C19    C     0.09820   0.45740   0.19588   0.01267  Uiso   1.00
C20    C     0.97790   0.50900   0.21235   0.01267  Uiso   1.00
C21    C     0.13720   0.53980   0.06548   0.01267  Uiso   1.00
C22    C     0.20520   0.80330   0.47331   0.01267  Uiso   1.00
C23    C     0.36280   0.03980   0.56548   0.01267  Uiso   1.00
C24    C     0.53980   0.07960   0.63351   0.01267  Uiso   1.00
C25    C     0.16530   0.89750   0.46658   0.01267  Uiso   1.00
C26    C     0.33270   0.20120   0.80780   0.01267  Uiso   1.00
C27    C     0.34890   0.13540   0.49303   0.01267  Uiso   1.00
C28    C     0.91850   0.66850   0.39776   0.01267  Uiso   1.00
C29    C     0.52210   0.00900   0.71235   0.01267  Uiso   1.00
C30    C     0.07560   0.15430   0.81540   0.01267  Uiso   1.00
C31    C     0.08430   0.53030   0.11682   0.01267  Uiso   1.00
C32    C     0.17610   0.18030   0.73460   0.01267  Uiso   1.00
C33    C     0.06760   0.89320   0.96681   0.01267  Uiso   1.00
C34    C     0.12660   0.73030   0.45034   0.01267  Uiso   1.00
C35    C     0.29170   0.96650   0.54021   0.01267  Uiso   1.00
C36    C     0.16730   0.70120   0.30780   0.01267  Uiso   1.00
C37    C     0.51790   0.29780   0.40021   0.01267  Uiso   1.00
C38    C     0.33470   0.39750   0.96658   0.01267  Uiso   1.00
C39    C     0.04040   0.71750   0.92173   0.01267  Uiso   1.00
C40    C     0.39210   0.22380   0.46739   0.01267  Uiso   1.00
C41    C     0.53130   0.34270   0.91328   0.01267  Uiso   1.00
C42    C     0.96020   0.57960   0.13351   0.01267  Uiso   1.00
C43    C     0.34960   0.96820   0.64870   0.01267  Uiso   1.00
C44    C     0.45960   0.21750   0.42173   0.01267  Uiso   1.00
C45    C     0.24580   0.97640   0.49226   0.01267  Uiso   1.00
C46    C     0.99460   0.88530   0.92246   0.01267  Uiso   1.00
C47    C     0.32390   0.68030   0.23460   0.01267  Uiso   1.00
C48    C     0.43240   0.39320   0.46681   0.01267  Uiso   1.00
C49    C     0.27520   0.06080   0.46854   0.01267  Uiso   1.00
C50    C     0.42440   0.65430   0.31540   0.01267  Uiso   1.00
C51    C     0.57940   0.99980   0.76439   0.01267  Uiso   1.00
C52    C     0.29480   0.30330   0.97331   0.01267  Uiso   1.00
C53    C     0.50540   0.38530   0.42246   0.01267  Uiso   1.00
C54    C     0.10790   0.72380   0.96739   0.01267  Uiso   1.00
C55    C     0.22480   0.56080   0.96854   0.01267  Uiso   1.00
C56    C     0.93600   0.97350   0.89915   0.01267  Uiso   1.00
C57    C     0.15110   0.63540   0.99303   0.01267  Uiso   1.00
C58    C     0.11190   0.62410   0.04143   0.01267  Uiso   1.00
C59    C     0.04670   0.91550   0.43591   0.01267  Uiso   1.00
C60    C     0.98210   0.79780   0.90021   0.01267  Uiso   1.00
N1     N     0.31240   0.67640   0.28668   0.01267  Uiso   1.00
N2     N     0.18760   0.17640   0.78668   0.01267  Uiso   1.00
O1     O     0.54650   0.08650   0.90547   0.01267  Uiso   1.00
O2     O     0.95350   0.58650   0.40547   0.01267  Uiso   1.00
O3     O     0.98280   0.05290   0.91097   0.01267  Uiso   1.00
O4     O     0.67250   0.06160   0.77696   0.01267  Uiso   1.00
O5     O     0.51720   0.55290   0.41097   0.01267  Uiso   1.00
O6     O     0.54670   0.63330   0.30043   0.01267  Uiso   1.00
O7     O     0.82750   0.56160   0.27696   0.01267  Uiso   1.00
O8     O     0.81160   0.69140   0.37063   0.01267  Uiso   1.00
O9     O     0.68840   0.19140   0.87063   0.01267  Uiso   1.00
O10    O     0.53290   0.93540   0.78910   0.01267  Uiso   1.00
O11    O     0.83700   0.95950   0.86598   0.01267  Uiso   1.00
O12    O     0.96710   0.43540   0.28910   0.01267  Uiso   1.00
O13    O     0.66300   0.45950   0.36598   0.01267  Uiso   1.00
O14    O     0.95330   0.13330   0.80043   0.01267  Uiso   1.00
Zn3    Zn    0.27891   0.41945   0.66190   0.01267  Uiso   1.00
Zn4    Zn    0.22109   0.91945   0.16190   0.01267  Uiso   1.00
H45    H     0.59320   0.84090   0.20540   0.01267  Uiso   1.00
H46    H     0.57740   0.33690   0.77520   0.01267  Uiso   1.00
H47    H     0.85710   0.23450   0.70010   0.01267  Uiso   1.00
H48    H     0.09020   0.38020   0.88730   0.01267  Uiso   1.00
H49    H     0.98090   0.02190   0.56950   0.01267  Uiso   1.00
H50    H     0.75440   0.86320   0.28000   0.01267  Uiso   1.00
H51    H     0.82880   0.30470   0.65750   0.01267  Uiso   1.00
H52    H     0.64480   0.08490   0.28350   0.01267  Uiso   1.00
H53    H     0.39100   0.64300   0.10760   0.01267  Uiso   1.00
H54    H     0.33020   0.89530   0.30820   0.01267  Uiso   1.00
H55    H     0.83600   0.18160   0.97980   0.01267  Uiso   1.00
H56    H     0.51910   0.52190   0.06950   0.01267  Uiso   1.00
H57    H     0.71490   0.21100   0.50670   0.01267  Uiso   1.00
H58    H     0.06600   0.20790   0.12970   0.01267  Uiso   1.00
H59    H     0.92260   0.83690   0.27520   0.01267  Uiso   1.00
H60    H     0.76820   0.56720   0.86180   0.01267  Uiso   1.00
H61    H     0.72560   0.09050   0.44420   0.01267  Uiso   1.00
H62    H     0.40980   0.88020   0.38730   0.01267  Uiso   1.00
H63    H     0.90850   0.84510   0.15110   0.01267  Uiso   1.00
H64    H     0.59150   0.34510   0.65110   0.01267  Uiso   1.00
H65    H     0.10900   0.14300   0.60760   0.01267  Uiso   1.00
H66    H     0.65620   0.83230   0.04550   0.01267  Uiso   1.00
H67    H     0.80270   0.75640   0.27570   0.01267  Uiso   1.00
H68    H     0.43400   0.70790   0.62970   0.01267  Uiso   1.00
H69    H     0.90680   0.34090   0.70540   0.01267  Uiso   1.00
H70    H     0.64290   0.73450   0.20010   0.01267  Uiso   1.00
H71    H     0.69730   0.25640   0.77570   0.01267  Uiso   1.00
H72    H     0.56720   0.82550   0.44170   0.01267  Uiso   1.00
H73    H     0.67120   0.80470   0.15750   0.01267  Uiso   1.00
H74    H     0.84380   0.33230   0.54550   0.01267  Uiso   1.00
H75    H     0.16980   0.39530   0.80820   0.01267  Uiso   1.00
H76    H     0.78510   0.71100   0.00670   0.01267  Uiso   1.00
H77    H     0.53430   0.84110   0.59450   0.01267  Uiso   1.00
H78    H     0.74580   0.43220   0.06370   0.01267  Uiso   1.00
H79    H     0.74560   0.36320   0.78000   0.01267  Uiso   1.00
H80    H     0.73180   0.06720   0.36180   0.01267  Uiso   1.00
H81    H     0.93280   0.32550   0.94170   0.01267  Uiso   1.00
H82    H     0.85520   0.58490   0.78350   0.01267  Uiso   1.00
H83    H     0.58150   0.54720   0.51860   0.01267  Uiso   1.00
H84    H     0.77440   0.59050   0.94420   0.01267  Uiso   1.00
H85    H     0.96570   0.34110   0.09450   0.01267  Uiso   1.00
H86    H     0.91850   0.04720   0.01860   0.01267  Uiso   1.00
H87    H     0.66400   0.68160   0.47980   0.01267  Uiso   1.00
H88    H     0.75420   0.93220   0.56370   0.01267  Uiso   1.00
C61    C     0.42060   0.00020   0.23561   0.01267  Uiso   1.00
C62    C     0.03980   0.42040   0.86649   0.01267  Uiso   1.00
C63    C     0.89210   0.27620   0.03261   0.01267  Uiso   1.00
C64    C     0.08150   0.33150   0.60224   0.01267  Uiso   1.00
C65    C     0.93240   0.10680   0.03319   0.01267  Uiso   1.00
C66    C     0.82390   0.81970   0.26540   0.01267  Uiso   1.00
C67    C     0.06400   0.02650   0.10085   0.01267  Uiso   1.00
C68    C     0.95960   0.28250   0.07827   0.01267  Uiso   1.00
C69    C     0.46870   0.65730   0.08672   0.01267  Uiso   1.00
C70    C     0.03130   0.15730   0.58672   0.01267  Uiso   1.00
C71    C     0.92440   0.84570   0.18460   0.01267  Uiso   1.00
C72    C     0.01790   0.20220   0.09979   0.01267  Uiso   1.00
C73    C     0.83470   0.10250   0.53342   0.01267  Uiso   1.00
C74    C     0.84960   0.53180   0.85130   0.01267  Uiso   1.00
C75    C     0.48210   0.70220   0.59979   0.01267  Uiso   1.00
C76    C     0.66730   0.79880   0.19220   0.01267  Uiso   1.00
C77    C     0.67610   0.31970   0.76540   0.01267  Uiso   1.00
C78    C     0.59820   0.04260   0.30412   0.01267  Uiso   1.00
C79    C     0.60790   0.77620   0.53261   0.01267  Uiso   1.00
C80    C     0.57560   0.34570   0.68460   0.01267  Uiso   1.00
C81    C     0.88810   0.37590   0.95857   0.01267  Uiso   1.00
C82    C     0.46020   0.92040   0.36649   0.01267  Uiso   1.00
C83    C     0.63720   0.96020   0.43452   0.01267  Uiso   1.00
C84    C     0.47790   0.99100   0.28765   0.01267  Uiso   1.00
C85    C     0.90180   0.54260   0.80412   0.01267  Uiso   1.00
C86    C     0.02210   0.49100   0.78765   0.01267  Uiso   1.00
C87    C     0.70830   0.03350   0.45979   0.01267  Uiso   1.00
C88    C     0.79480   0.19670   0.52669   0.01267  Uiso   1.00
C89    C     0.41120   0.93070   0.31898   0.01267  Uiso   1.00
C90    C     0.65110   0.86460   0.50697   0.01267  Uiso   1.00
C91    C     0.87990   0.18740   0.01041   0.01267  Uiso   1.00
C92    C     0.72480   0.93920   0.53146   0.01267  Uiso   1.00
C93    C     0.08880   0.43070   0.81898   0.01267  Uiso   1.00
C94    C     0.84890   0.36460   0.00697   0.01267  Uiso   1.00
C95    C     0.79170   0.53350   0.95979   0.01267  Uiso   1.00
C96    C     0.58430   0.96970   0.38318   0.01267  Uiso   1.00
C97    C     0.49460   0.61470   0.57754   0.01267  Uiso   1.00
C98    C     0.56760   0.60680   0.53319   0.01267  Uiso   1.00
C99    C     0.62660   0.76970   0.04966   0.01267  Uiso   1.00
C100   C     0.91570   0.46970   0.88318   0.01267  Uiso   1.00
C101   C     0.70520   0.69670   0.02669   0.01267  Uiso   1.00
C102   C     0.54670   0.58450   0.06409   0.01267  Uiso   1.00
C103   C     0.50440   0.75090   0.07883   0.01267  Uiso   1.00
C104   C     0.00540   0.11470   0.07754   0.01267  Uiso   1.00
C105   C     0.62010   0.68740   0.51041   0.01267  Uiso   1.00
C106   C     0.99560   0.25090   0.57883   0.01267  Uiso   1.00
C107   C     0.86280   0.46020   0.93452   0.01267  Uiso   1.00
C108   C     0.66530   0.60250   0.03342   0.01267  Uiso   1.00
C109   C     0.61190   0.87590   0.45857   0.01267  Uiso   1.00
C110   C     0.83270   0.29880   0.69220   0.01267  Uiso   1.00
C111   C     0.87340   0.26970   0.54966   0.01267  Uiso   1.00
C112   C     0.65040   0.03180   0.35130   0.01267  Uiso   1.00
C113   C     0.07940   0.50020   0.73561   0.01267  Uiso   1.00
C114   C     0.75420   0.02360   0.50774   0.01267  Uiso   1.00
C115   C     0.77520   0.43920   0.03146   0.01267  Uiso   1.00
C116   C     0.41850   0.83150   0.10224   0.01267  Uiso   1.00
C117   C     0.43600   0.52650   0.60085   0.01267  Uiso   1.00
C118   C     0.74580   0.52360   0.00774   0.01267  Uiso   1.00
C119   C     0.54040   0.78250   0.57827   0.01267  Uiso   1.00
C120   C     0.95330   0.08450   0.56409   0.01267  Uiso   1.00
N3     N     0.81240   0.82360   0.21332   0.01267  Uiso   1.00
N4     N     0.68760   0.32360   0.71332   0.01267  Uiso   1.00
O15    O     0.03290   0.56460   0.71090   0.01267  Uiso   1.00
O16    O     0.17250   0.43840   0.72304   0.01267  Uiso   1.00
O17    O     0.32750   0.93840   0.22304   0.01267  Uiso   1.00
O18    O     0.31160   0.80860   0.12937   0.01267  Uiso   1.00
O19    O     0.18840   0.30860   0.62937   0.01267  Uiso   1.00
O20    O     0.16300   0.04050   0.13402   0.01267  Uiso   1.00
O21    O     0.04650   0.41350   0.59453   0.01267  Uiso   1.00
O22    O     0.46710   0.06460   0.21090   0.01267  Uiso   1.00
O23    O     0.45330   0.36670   0.69957   0.01267  Uiso   1.00
O24    O     0.45350   0.91350   0.09453   0.01267  Uiso   1.00
O25    O     0.33700   0.54050   0.63402   0.01267  Uiso   1.00
O26    O     0.48280   0.44710   0.58903   0.01267  Uiso   1.00
O27    O     0.01720   0.94710   0.08903   0.01267  Uiso   1.00
O28    O     0.04670   0.86670   0.19957   0.01267  Uiso   1.00
H89    H     0.66420   0.86670   0.94240   0.01267  Uiso   1.00
H90    H     0.55070   0.95480   0.88720   0.01267  Uiso   1.00
H91    H     0.33810   0.91720   0.85030   0.01267  Uiso   1.00
H92    H     0.51560   0.90710   0.96380   0.01267  Uiso   1.00
H93    H     0.31020   0.93940   0.90570   0.01267  Uiso   1.00
H94    H     0.31810   0.83380   0.88670   0.01267  Uiso   1.00
H95    H     0.52340   0.80170   0.94440   0.01267  Uiso   1.00
H96    H     0.55820   0.85720   0.86920   0.01267  Uiso   1.00
C121   C     0.55820   0.86530   0.93960   0.01267  Uiso   1.00
C122   C     0.35710   0.89660   0.88280   0.01267  Uiso   1.00
N5     N     0.51530   0.89580   0.89156   0.01267  Uiso   1.00
H97    H     0.18980   0.43940   0.40570   0.01267  Uiso   1.00
H98    H     0.94180   0.35720   0.36920   0.01267  Uiso   1.00
H99    H     0.97660   0.30170   0.44440   0.01267  Uiso   1.00
H100   H     0.98440   0.40710   0.46380   0.01267  Uiso   1.00
H101   H     0.16190   0.41720   0.35030   0.01267  Uiso   1.00
H102   H     0.18190   0.33380   0.38670   0.01267  Uiso   1.00
H103   H     0.94930   0.45480   0.38720   0.01267  Uiso   1.00
H104   H     0.83580   0.36670   0.44240   0.01267  Uiso   1.00
C123   C     0.14290   0.39660   0.38280   0.01267  Uiso   1.00
C124   C     0.94180   0.36530   0.43960   0.01267  Uiso   1.00
N6     N     0.98470   0.39580   0.39156   0.01267  Uiso   1.00
H105   H     0.44180   0.14280   0.13080   0.01267  Uiso   1.00
H106   H     0.47660   0.19830   0.05560   0.01267  Uiso   1.00
H107   H     0.68980   0.06060   0.09430   0.01267  Uiso   1.00
H108   H     0.68190   0.16620   0.11330   0.01267  Uiso   1.00
H109   H     0.48440   0.09290   0.03620   0.01267  Uiso   1.00
H110   H     0.33580   0.13330   0.05760   0.01267  Uiso   1.00
H111   H     0.44930   0.04520   0.11280   0.01267  Uiso   1.00
H112   H     0.66190   0.08280   0.14970   0.01267  Uiso   1.00
C125   C     0.44180   0.13470   0.06040   0.01267  Uiso   1.00
C126   C     0.64290   0.10340   0.11720   0.01267  Uiso   1.00
N7     N     0.48470   0.10420   0.10844   0.01267  Uiso   1.00
H113   H     0.16420   0.63330   0.55760   0.01267  Uiso   1.00
H114   H     0.81020   0.56060   0.59430   0.01267  Uiso   1.00
H115   H     0.05820   0.64280   0.63080   0.01267  Uiso   1.00
H116   H     0.01560   0.59290   0.53620   0.01267  Uiso   1.00
H117   H     0.81810   0.66620   0.61330   0.01267  Uiso   1.00
H118   H     0.83810   0.58280   0.64970   0.01267  Uiso   1.00
H119   H     0.05070   0.54520   0.61280   0.01267  Uiso   1.00
H120   H     0.02340   0.69830   0.55560   0.01267  Uiso   1.00
C127   C     0.85710   0.60340   0.61720   0.01267  Uiso   1.00
C128   C     0.05820   0.63470   0.56040   0.01267  Uiso   1.00
N8     N     0.01530   0.60420   0.60844   0.01267  Uiso   1.00
