data_image0
_cell_length_a       11.3945
_cell_length_b       14.8843
_cell_length_c       15.869
_cell_angle_alpha    64.69
_cell_angle_beta     89.747
_cell_angle_gamma    89.661

_symmetry_space_group_name_H-M    "P 1"
_symmetry_int_tables_number       1

loop_
  _symmetry_equiv_pos_as_xyz
  'x, y, z'

loop_
  _atom_site_label
  _atom_site_occupancy
  _atom_site_fract_x
  _atom_site_fract_y
  _atom_site_fract_z
  _atom_site_thermal_displace_type
  _atom_site_B_iso_or_equiv
  _atom_site_type_symbol
  Cu1      1.0000 0.89375  0.63759  0.35754  Biso   1.000  Cu
  C1       1.0000 0.33940  0.63940  0.85830  Biso   1.000  C
  H1       1.0000 0.36520  0.69210  0.87000  Biso   1.000  H
  C2       1.0000 0.31030  0.49810  0.86330  Biso   1.000  C
  H2       1.0000 0.31300  0.42980  0.88200  Biso   1.000  H
  C3       1.0000 0.22910  0.74040  0.71200  Biso   1.000  C
  H3       1.0000 0.15790  0.72820  0.68530  Biso   1.000  H
  H4       1.0000 0.21160  0.78970  0.73500  Biso   1.000  H
  C4       1.0000 0.32120  0.77820  0.63960  Biso   1.000  C
  C5       1.0000 0.32220  0.75820  0.56410  Biso   1.000  C
  H5       1.0000 0.25970  0.72310  0.55570  Biso   1.000  H
  C6       1.0000 0.40910  0.78650  0.50060  Biso   1.000  C
  H6       1.0000 0.40650  0.76890  0.45100  Biso   1.000  H
  C7       1.0000 0.50140  0.84110  0.50830  Biso   1.000  C
  C8       1.0000 0.50140  0.86310  0.57980  Biso   1.000  C
  H7       1.0000 0.56310  0.90040  0.58610  Biso   1.000  H
  C9       1.0000 0.41210  0.83280  0.64730  Biso   1.000  C
  H8       1.0000 0.41520  0.85000  0.69710  Biso   1.000  H
  C10      1.0000 0.70140  0.75200  0.39810  Biso   1.000  C
  H9       1.0000 0.66100  0.76640  0.34300  Biso   1.000  H
  C11      1.0000 0.81370  0.69460  0.50680  Biso   1.000  C
  H10      1.0000 0.87180  0.65530  0.54680  Biso   1.000  H
  C12      1.0000 0.69120  0.62770  0.88680  Biso   1.000  C
  H11      1.0000 0.71290  0.64550  0.93410  Biso   1.000  H
  C13      1.0000 0.61030  0.56070  0.81160  Biso   1.000  C
  H12      1.0000 0.55940  0.52190  0.79550  Biso   1.000  H
  C14      1.0000 0.83230  0.73740  0.76560  Biso   1.000  C
  H13      1.0000 0.79950  0.80400  0.74010  Biso   1.000  H
  H14      1.0000 0.87210  0.72810  0.71570  Biso   1.000  H
  C15      1.0000 0.92290  0.78500  0.88620  Biso   1.000  C
  H15      1.0000 0.87060  0.83820  0.86780  Biso   1.000  H
  C16      1.0000 0.91900  0.72460  0.84210  Biso   1.000  C
  C17      1.0000 0.99600  0.64150  0.87480  Biso   1.000  C
  H16      1.0000 0.99520  0.59730  0.84750  Biso   1.000  H
  C18      1.0000 0.07100  0.62650  0.94630  Biso   1.000  C
  H17      1.0000 0.12050  0.57140  0.96740  Biso   1.000  H
  C19      1.0000 0.07590  0.69090  0.98840  Biso   1.000  C
  C20      1.0000 0.00040  0.77160  0.95690  Biso   1.000  C
  H18      1.0000 0.00200  0.81660  0.98340  Biso   1.000  H
  C21      1.0000 0.16030  0.67300  0.06530  Biso   1.000  C
  H19      1.0000 0.22300  0.62970  0.06290  Biso   1.000  H
  H20      1.0000 0.19490  0.73560  0.05710  Biso   1.000  H
  C22      1.0000 0.05050  0.67320  0.20110  Biso   1.000  C
  H21      1.0000 0.05320  0.74100  0.18480  Biso   1.000  H
  C23      1.0000 0.01600  0.52480  0.26560  Biso   1.000  C
  H22      1.0000 0.98690  0.46420  0.30850  Biso   1.000  H
  C24      1.0000 0.97430  0.84540  0.31300  Biso   1.000  C
  H23      1.0000 0.90680  0.87570  0.28020  Biso   1.000  H
  C25      1.0000 0.14220  0.82760  0.38120  Biso   1.000  C
  H24      1.0000 0.21210  0.84060  0.40380  Biso   1.000  H
  C26      1.0000 0.06080  0.99390  0.32520  Biso   1.000  C
  H25      1.0000 0.00630  0.03470  0.27710  Biso   1.000  H
  H26      1.0000 0.13910  0.02030  0.30630  Biso   1.000  H
  C27      1.0000 0.02960  0.99790  0.41530  Biso   1.000  C
  C28      1.0000 0.91610  0.01410  0.43460  Biso   1.000  C
  H27      1.0000 0.85840  0.02660  0.38970  Biso   1.000  H
  C29      1.0000 0.11340  0.98800  0.48130  Biso   1.000  C
  H28      1.0000 0.19200  0.98250  0.46800  Biso   1.000  H
  C30      1.0000 0.59970  0.87360  0.43990  Biso   1.000  C
  H29      1.0000 0.56750  0.90020  0.37740  Biso   1.000  H
  H30      1.0000 0.64200  0.92650  0.44650  Biso   1.000  H
  N1       1.0000 0.36820  0.54300  0.90830  Biso   1.000  N
  N2       1.0000 0.25010  0.55800  0.79150  Biso   1.000  N
  N3       1.0000 0.26900  0.64680  0.79020  Biso   1.000  N
  N4       1.0000 0.68020  0.79480  0.45120  Biso   1.000  N
  N5       1.0000 0.75590  0.76090  0.52430  Biso   1.000  N
  N6       1.0000 0.78590  0.68580  0.42910  Biso   1.000  N
  N7       1.0000 0.61020  0.56350  0.89440  Biso   1.000  N
  N8       1.0000 0.73740  0.66350  0.80430  Biso   1.000  N
  N9       1.0000 0.68960  0.61830  0.75580  Biso   1.000  N
  N10      1.0000 0.10300  0.62790  0.15470  Biso   1.000  N
  N11      1.0000 0.07930  0.53180  0.19600  Biso   1.000  N
  N12      1.0000 0.99440  0.60800  0.27310  Biso   1.000  N
  N13      1.0000 0.99900  0.75070  0.34320  Biso   1.000  N
  N14      1.0000 0.10260  0.74070  0.38680  Biso   1.000  N
  N15      1.0000 0.05670  0.89090  0.33520  Biso   1.000  N
  Cu2      1.0000 0.10625  0.36241  0.64246  Biso   1.000  Cu
  C31      1.0000 0.66060  0.36060  0.14170  Biso   1.000  C
  H31      1.0000 0.63480  0.30790  0.13000  Biso   1.000  H
  C32      1.0000 0.68970  0.50190  0.13670  Biso   1.000  C
  H32      1.0000 0.68700  0.57020  0.11800  Biso   1.000  H
  C33      1.0000 0.77090  0.25960  0.28800  Biso   1.000  C
  H33      1.0000 0.84210  0.27180  0.31470  Biso   1.000  H
  H34      1.0000 0.78840  0.21030  0.26500  Biso   1.000  H
  C34      1.0000 0.67880  0.22180  0.36040  Biso   1.000  C
  C35      1.0000 0.67780  0.24180  0.43590  Biso   1.000  C
  H35      1.0000 0.74030  0.27690  0.44430  Biso   1.000  H
  C36      1.0000 0.59090  0.21350  0.49940  Biso   1.000  C
  H36      1.0000 0.59350  0.23110  0.54900  Biso   1.000  H
  C37      1.0000 0.49860  0.15890  0.49170  Biso   1.000  C
  C38      1.0000 0.49860  0.13690  0.42020  Biso   1.000  C
  H37      1.0000 0.43690  0.09960  0.41390  Biso   1.000  H
  C39      1.0000 0.58790  0.16720  0.35270  Biso   1.000  C
  H38      1.0000 0.58480  0.15000  0.30290  Biso   1.000  H
  C40      1.0000 0.29860  0.24800  0.60190  Biso   1.000  C
  H39      1.0000 0.33900  0.23360  0.65700  Biso   1.000  H
  C41      1.0000 0.18630  0.30540  0.49320  Biso   1.000  C
  H40      1.0000 0.12820  0.34470  0.45320  Biso   1.000  H
  C42      1.0000 0.30880  0.37230  0.11320  Biso   1.000  C
  H41      1.0000 0.28710  0.35450  0.06590  Biso   1.000  H
  C43      1.0000 0.38970  0.43930  0.18840  Biso   1.000  C
  H42      1.0000 0.44060  0.47810  0.20450  Biso   1.000  H
  C44      1.0000 0.16770  0.26260  0.23440  Biso   1.000  C
  H43      1.0000 0.20050  0.19600  0.25990  Biso   1.000  H
  H44      1.0000 0.12790  0.27190  0.28430  Biso   1.000  H
  C45      1.0000 0.07710  0.21500  0.11380  Biso   1.000  C
  H45      1.0000 0.12940  0.16180  0.13220  Biso   1.000  H
  C46      1.0000 0.08100  0.27540  0.15790  Biso   1.000  C
  C47      1.0000 0.00400  0.35850  0.12520  Biso   1.000  C
  H46      1.0000 0.00480  0.40270  0.15250  Biso   1.000  H
  C48      1.0000 0.92900  0.37350  0.05370  Biso   1.000  C
  H47      1.0000 0.87950  0.42860  0.03260  Biso   1.000  H
  C49      1.0000 0.92410  0.30910  0.01160  Biso   1.000  C
  C50      1.0000 0.99960  0.22840  0.04310  Biso   1.000  C
  H48      1.0000 0.99800  0.18340  0.01660  Biso   1.000  H
  C51      1.0000 0.83970  0.32700  0.93470  Biso   1.000  C
  H49      1.0000 0.77700  0.37030  0.93710  Biso   1.000  H
  H50      1.0000 0.80510  0.26440  0.94290  Biso   1.000  H
  C52      1.0000 0.94950  0.32680  0.79890  Biso   1.000  C
  H51      1.0000 0.94680  0.25900  0.81520  Biso   1.000  H
  C53      1.0000 0.98400  0.47520  0.73440  Biso   1.000  C
  H52      1.0000 0.01310  0.53580  0.69150  Biso   1.000  H
  C54      1.0000 0.02570  0.15460  0.68700  Biso   1.000  C
  H53      1.0000 0.09320  0.12430  0.71980  Biso   1.000  H
  C55      1.0000 0.85780  0.17240  0.61880  Biso   1.000  C
  H54      1.0000 0.78790  0.15940  0.59620  Biso   1.000  H
  C56      1.0000 0.93920  0.00610  0.67480  Biso   1.000  C
  H55      1.0000 0.99370  0.96530  0.72290  Biso   1.000  H
  H56      1.0000 0.86090  0.97970  0.69370  Biso   1.000  H
  C57      1.0000 0.97040  0.00210  0.58470  Biso   1.000  C
  C58      1.0000 0.08390  0.98590  0.56540  Biso   1.000  C
  H57      1.0000 0.14160  0.97340  0.61030  Biso   1.000  H
  C59      1.0000 0.88660  0.01200  0.51870  Biso   1.000  C
  H58      1.0000 0.80800  0.01750  0.53200  Biso   1.000  H
  C60      1.0000 0.40030  0.12640  0.56010  Biso   1.000  C
  H59      1.0000 0.43250  0.09980  0.62260  Biso   1.000  H
  H60      1.0000 0.35800  0.07350  0.55350  Biso   1.000  H
  N16      1.0000 0.63180  0.45700  0.09170  Biso   1.000  N
  N17      1.0000 0.74990  0.44200  0.20850  Biso   1.000  N
  N18      1.0000 0.73100  0.35320  0.20980  Biso   1.000  N
  N19      1.0000 0.31980  0.20520  0.54880  Biso   1.000  N
  N20      1.0000 0.24410  0.23910  0.47570  Biso   1.000  N
  N21      1.0000 0.21410  0.31420  0.57090  Biso   1.000  N
  N22      1.0000 0.38980  0.43650  0.10560  Biso   1.000  N
  N23      1.0000 0.26260  0.33650  0.19570  Biso   1.000  N
  N24      1.0000 0.31040  0.38170  0.24420  Biso   1.000  N
  N25      1.0000 0.89700  0.37210  0.84530  Biso   1.000  N
  N26      1.0000 0.92070  0.46820  0.80400  Biso   1.000  N
  N27      1.0000 0.00560  0.39200  0.72690  Biso   1.000  N
  N28      1.0000 0.00100  0.24930  0.65680  Biso   1.000  N
  N29      1.0000 0.89740  0.25930  0.61320  Biso   1.000  N
  N30      1.0000 0.94330  0.10910  0.66480  Biso   1.000  N
  Cu3      1.0000 0.50000  0.50000  0.00000  Biso   1.000  Cu
  Cl1      1.0000 0.00000  0.50000  0.50000  Biso   1.000  Cl
