data_WOVDES_clean
_audit_creation_date              2015-10-16
_audit_creation_method            'Materials Studio'
_symmetry_space_group_name_H-M    'P1'
_symmetry_Int_Tables_number       1
_symmetry_cell_setting            triclinic
loop_
_symmetry_equiv_pos_as_xyz
  x,y,z
_cell_length_a                    10.0420
_cell_length_b                    15.9029
_cell_length_c                    24.7530
_cell_angle_alpha                 72.8858
_cell_angle_beta                  78.2967
_cell_angle_gamma                 71.5952
loop_
_atom_site_label
_atom_site_type_symbol
_atom_site_fract_x
_atom_site_fract_y
_atom_site_fract_z
_atom_site_U_iso_or_equiv
_atom_site_adp_type
_atom_site_occupancy
Ni1    Ni    0.97281   0.14757   0.72877   0.01267  Uiso   1.00
Ni2    Ni    0.15085   0.64757   0.22877   0.01267  Uiso   1.00
Ni3    Ni    0.84915   0.35243   0.77123   0.01267  Uiso   1.00
Ni4    Ni    0.02719   0.85243   0.27123   0.01267  Uiso   1.00
H1     H     0.53710   0.30510   0.63830   0.01267  Uiso   1.00
H2     H     0.99200   0.32790   0.43610   0.01267  Uiso   1.00
H3     H     0.75510   0.47020   0.54660   0.01267  Uiso   1.00
H4     H     0.73100   0.27910   0.90190   0.01267  Uiso   1.00
H5     H     0.50050   0.45020   0.78780   0.01267  Uiso   1.00
H6     H     0.98380   0.36030   0.05710   0.01267  Uiso   1.00
H7     H     0.54020   0.28620   0.99160   0.01267  Uiso   1.00
H8     H     0.94550   0.43350   0.59490   0.01267  Uiso   1.00
H9     H     0.94460   0.62410   0.03730   0.01267  Uiso   1.00
H10    H     0.91250   0.61700   0.17040   0.01267  Uiso   1.00
H11    H     0.48050   0.19490   0.86170   0.01267  Uiso   1.00
H12    H     0.70030   0.16240   0.52180   0.01267  Uiso   1.00
H13    H     0.51940   0.24050   0.35030   0.01267  Uiso   1.00
H14    H     0.46280   0.97710   0.37370   0.01267  Uiso   1.00
H15    H     0.69990   0.88300   0.32960   0.01267  Uiso   1.00
H16    H     0.10360   0.58130   0.86110   0.01267  Uiso   1.00
H17    H     0.01620   0.63970   0.94290   0.01267  Uiso   1.00
H18    H     0.95410   0.21310   0.01310   0.01267  Uiso   1.00
H19    H     0.77190   0.02980   0.95340   0.01267  Uiso   1.00
H20    H     0.32420   0.31020   0.69500   0.01267  Uiso   1.00
H21    H     0.48060   0.75950   0.64970   0.01267  Uiso   1.00
H22    H     0.58730   0.82070   0.04210   0.01267  Uiso   1.00
H23    H     0.81360   0.52290   0.12630   0.01267  Uiso   1.00
H24    H     0.51950   0.80510   0.13830   0.01267  Uiso   1.00
H25    H     0.27160   0.44700   0.20020   0.01267  Uiso   1.00
H26    H     0.42200   0.99550   0.11050   0.01267  Uiso   1.00
H27    H     0.08800   0.77910   0.40190   0.01267  Uiso   1.00
H28    H     0.64310   0.02160   0.08400   0.01267  Uiso   1.00
H29    H     0.67510   0.23290   0.40810   0.01267  Uiso   1.00
H30    H     0.91200   0.22090   0.59810   0.01267  Uiso   1.00
H31    H     0.61550   0.66240   0.02180   0.01267  Uiso   1.00
H32    H     0.39400   0.12410   0.53730   0.01267  Uiso   1.00
H33    H     0.67580   0.68980   0.30500   0.01267  Uiso   1.00
H34    H     0.49950   0.54980   0.21220   0.01267  Uiso   1.00
H35    H     0.18640   0.47710   0.87370   0.01267  Uiso   1.00
H36    H     0.45400   0.08130   0.36110   0.01267  Uiso   1.00
H37    H     0.91880   0.05300   0.29980   0.01267  Uiso   1.00
H38    H     0.54600   0.91870   0.63890   0.01267  Uiso   1.00
H39    H     0.81800   0.21380   0.50840   0.01267  Uiso   1.00
H40    H     0.36680   0.37600   0.31180   0.01267  Uiso   1.00
H41    H     0.24400   0.82790   0.93610   0.01267  Uiso   1.00
H42    H     0.08750   0.38300   0.82960   0.01267  Uiso   1.00
H43    H     0.64450   0.46430   0.47250   0.01267  Uiso   1.00
H44    H     0.23030   0.96380   0.51720   0.01267  Uiso   1.00
H45    H     0.57800   0.00450   0.88950   0.01267  Uiso   1.00
H46    H     0.59880   0.86030   0.55710   0.01267  Uiso   1.00
H47    H     0.02610   0.93350   0.09490   0.01267  Uiso   1.00
H48    H     0.19680   0.15360   0.99820   0.01267  Uiso   1.00
H49    H     0.52800   0.50450   0.38950   0.01267  Uiso   1.00
H50    H     0.65140   0.65360   0.49820   0.01267  Uiso   1.00
H51    H     0.47200   0.49550   0.61050   0.01267  Uiso   1.00
H52    H     0.69920   0.40860   0.96060   0.01267  Uiso   1.00
H53    H     0.40120   0.13970   0.44290   0.01267  Uiso   1.00
H54    H     0.80320   0.84640   0.00180   0.01267  Uiso   1.00
H55    H     0.89640   0.41870   0.13890   0.01267  Uiso   1.00
H56    H     0.53720   0.02290   0.62630   0.01267  Uiso   1.00
H57    H     0.22810   0.97020   0.04660   0.01267  Uiso   1.00
H58    H     0.88980   0.74050   0.85030   0.01267  Uiso   1.00
H59    H     0.46290   0.69490   0.36170   0.01267  Uiso   1.00
H60    H     0.77240   0.20020   0.77100   0.01267  Uiso   1.00
H61    H     0.41870   0.96430   0.97250   0.01267  Uiso   1.00
H62    H     0.30080   0.59140   0.03940   0.01267  Uiso   1.00
H63    H     0.74360   0.29980   0.72900   0.01267  Uiso   1.00
H64    H     0.67060   0.81020   0.19500   0.01267  Uiso   1.00
H65    H     0.97390   0.06650   0.90510   0.01267  Uiso   1.00
H66    H     0.24490   0.52980   0.45340   0.01267  Uiso   1.00
H67    H     0.71130   0.53620   0.98280   0.01267  Uiso   1.00
H68    H     0.18030   0.28690   0.48690   0.01267  Uiso   1.00
H69    H     0.76970   0.03620   0.48280   0.01267  Uiso   1.00
H70    H     0.72840   0.55300   0.79980   0.01267  Uiso   1.00
H71    H     0.94540   0.87600   0.81180   0.01267  Uiso   1.00
H72    H     0.06840   0.09140   0.53940   0.01267  Uiso   1.00
H73    H     0.08120   0.94700   0.70020   0.01267  Uiso   1.00
H74    H     0.05460   0.12400   0.18820   0.01267  Uiso   1.00
H75    H     0.30010   0.11700   0.67040   0.01267  Uiso   1.00
H76    H     0.73850   0.04980   0.71220   0.01267  Uiso   1.00
H77    H     0.18200   0.78620   0.49160   0.01267  Uiso   1.00
H78    H     0.34860   0.34640   0.50180   0.01267  Uiso   1.00
H79    H     0.68390   0.73290   0.90810   0.01267  Uiso   1.00
H80    H     0.35690   0.97840   0.91600   0.01267  Uiso   1.00
H81    H     0.41270   0.17930   0.95790   0.01267  Uiso   1.00
H82    H     0.54990   0.32070   0.54210   0.01267  Uiso   1.00
H83    H     0.93160   0.90860   0.46060   0.01267  Uiso   1.00
H84    H     0.63320   0.62400   0.68820   0.01267  Uiso   1.00
H85    H     0.74870   0.47840   0.41600   0.01267  Uiso   1.00
H86    H     0.35550   0.53570   0.52750   0.01267  Uiso   1.00
H87    H     0.38450   0.33760   0.97820   0.01267  Uiso   1.00
H88    H     0.05450   0.56650   0.40510   0.01267  Uiso   1.00
H89    H     0.26900   0.72090   0.09810   0.01267  Uiso   1.00
H90    H     0.25130   0.52160   0.58400   0.01267  Uiso   1.00
H91    H     0.81970   0.71310   0.51310   0.01267  Uiso   1.00
H92    H     0.29970   0.83760   0.47820   0.01267  Uiso   1.00
H93    H     0.25640   0.70020   0.27100   0.01267  Uiso   1.00
H94    H     0.26150   0.95020   0.28780   0.01267  Uiso   1.00
H95    H     0.22760   0.79980   0.22900   0.01267  Uiso   1.00
H96    H     0.58130   0.03570   0.02750   0.01267  Uiso   1.00
H97    H     0.75600   0.17210   0.06390   0.01267  Uiso   1.00
H98    H     0.04590   0.78690   0.98690   0.01267  Uiso   1.00
H99    H     0.11020   0.25950   0.14970   0.01267  Uiso   1.00
H100   H     0.45980   0.71380   0.00840   0.01267  Uiso   1.00
H101   H     0.45010   0.67930   0.45790   0.01267  Uiso   1.00
H102   H     0.31610   0.26710   0.09190   0.01267  Uiso   1.00
H103   H     0.60600   0.87590   0.46270   0.01267  Uiso   1.00
H104   H     0.28870   0.46380   0.01720   0.01267  Uiso   1.00
H105   H     0.05540   0.37590   0.96270   0.01267  Uiso   1.00
H106   H     0.32490   0.76710   0.59190   0.01267  Uiso   1.00
H107   H     0.00800   0.67210   0.56390   0.01267  Uiso   1.00
H108   H     0.32940   0.18980   0.80500   0.01267  Uiso   1.00
C1     C     0.34410   0.67910   0.11650   0.01267  Uiso   1.00
C2     C     0.03260   0.42670   0.97770   0.01267  Uiso   1.00
C3     C     0.90480   0.67420   0.50160   0.01267  Uiso   1.00
C4     C     0.38890   0.13130   0.09530   0.01267  Uiso   1.00
C5     C     0.79970   0.15060   0.03180   0.01267  Uiso   1.00
C6     C     0.54370   0.68680   0.37760   0.01267  Uiso   1.00
C7     C     0.49060   0.42320   0.98600   0.01267  Uiso   1.00
C8     C     0.60810   0.81320   0.12240   0.01267  Uiso   1.00
C9     C     0.29510   0.21130   0.10730   0.01267  Uiso   1.00
C10    C     0.86060   0.87450   0.83510   0.01267  Uiso   1.00
C11    C     0.89980   0.07680   0.51400   0.01267  Uiso   1.00
C12    C     0.35860   0.04860   0.11840   0.01267  Uiso   1.00
C13    C     0.64810   0.82340   0.06500   0.01267  Uiso   1.00
C14    C     0.19040   0.93450   0.03350   0.01267  Uiso   1.00
C15    C     0.16594   0.17472   0.86700   0.01267  Uiso   1.00
C16    C     0.49460   0.98990   0.55850   0.01267  Uiso   1.00
C17    C     0.45630   0.31320   0.62240   0.01267  Uiso   1.00
C18    C     0.91940   0.17420   0.00160   0.01267  Uiso   1.00
C19    C     0.79260   0.15830   0.53030   0.01267  Uiso   1.00
C20    C     0.99080   0.56650   0.17210   0.01267  Uiso   1.00
C21    C     0.53650   0.67660   0.43500   0.01267  Uiso   1.00
C22    C     0.08181   0.30738   0.67480   0.01267  Uiso   1.00
C23    C     0.65590   0.32090   0.88350   0.01267  Uiso   1.00
C24    C     0.61550   0.36870   0.40470   0.01267  Uiso   1.00
C25    C     0.64140   0.95140   0.88160   0.01267  Uiso   1.00
C26    C     0.18310   0.47400   0.18760   0.01267  Uiso   1.00
C27    C     0.06940   0.91210   0.06270   0.01267  Uiso   1.00
C28    C     0.27060   0.06650   0.67210   0.01267  Uiso   1.00
C29    C     0.79760   0.04600   0.81760   0.01267  Uiso   1.00
C30    C     0.91819   0.69262   0.32520   0.01267  Uiso   1.00
C31    C     0.61800   0.44560   0.97640   0.01267  Uiso   1.00
C32    C     0.76570   0.08640   0.67740   0.01267  Uiso   1.00
C33    C     0.56300   0.92670   0.47770   0.01267  Uiso   1.00
C34    C     0.81690   0.52600   0.81240   0.01267  Uiso   1.00
C35    C     0.91463   0.64194   0.45480   0.01267  Uiso   1.00
C36    C     0.87407   0.83836   0.07430   0.01267  Uiso   1.00
C37    C     0.50770   0.02000   0.37840   0.01267  Uiso   1.00
C38    C     0.78673   0.66164   0.42570   0.01267  Uiso   1.00
C39    C     0.38290   0.93510   0.95150   0.01267  Uiso   1.00
C40    C     0.90610   0.48000   0.12160   0.01267  Uiso   1.00
C41    C     0.82700   0.79370   0.85830   0.01267  Uiso   1.00
C42    C     0.37460   0.47810   0.00990   0.01267  Uiso   1.00
C43    C     0.84470   0.02600   0.31240   0.01267  Uiso   1.00
C44    C     0.73050   0.43510   0.45150   0.01267  Uiso   1.00
C45    C     0.47900   0.70630   0.64170   0.01267  Uiso   1.00
C46    C     0.95580   0.41210   0.56270   0.01267  Uiso   1.00
C47    C     0.38630   0.71130   0.60730   0.01267  Uiso   1.00
C48    C     0.86260   0.02190   0.49010   0.01267  Uiso   1.00
C49    C     0.69900   0.81530   0.15630   0.01267  Uiso   1.00
C50    C     0.13940   0.12550   0.16490   0.01267  Uiso   1.00
C51    C     0.62540   0.52190   0.99010   0.01267  Uiso   1.00
C52    C     0.96740   0.57330   0.02230   0.01267  Uiso   1.00
C53    C     0.21327   0.33836   0.57430   0.01267  Uiso   1.00
C54    C     0.01137   0.85806   0.04520   0.01267  Uiso   1.00
C55    C     0.09520   0.32580   0.49840   0.01267  Uiso   1.00
C56    C     0.80960   0.06550   0.96650   0.01267  Uiso   1.00
C57    C     0.43120   0.45490   0.34650   0.01267  Uiso   1.00
C58    C     0.51880   0.65830   0.03030   0.01267  Uiso   1.00
C59    C     0.39190   0.18680   0.87760   0.01267  Uiso   1.00
C60    C     0.47440   0.54860   0.61840   0.01267  Uiso   1.00
C61    C     0.14730   0.59440   0.51400   0.01267  Uiso   1.00
C62    C     0.32940   0.31530   0.65630   0.01267  Uiso   1.00
C63    C     0.93601   0.80738   0.17480   0.01267  Uiso   1.00
C64    C     0.38200   0.55440   0.02360   0.01267  Uiso   1.00
C65    C     0.00920   0.43350   0.82790   0.01267  Uiso   1.00
C66    C     0.96000   0.94560   0.47640   0.01267  Uiso   1.00
C67    C     0.98863   0.14194   0.95480   0.01267  Uiso   1.00
C68    C     0.20766   0.32528   0.63300   0.01267  Uiso   1.00
C69    C     0.61370   0.28870   0.39270   0.01267  Uiso   1.00
C70    C     0.52560   0.45140   0.38160   0.01267  Uiso   1.00
C71    C     0.99040   0.41710   0.03430   0.01267  Uiso   1.00
C72    C     0.67060   0.68470   0.34370   0.01267  Uiso   1.00
C73    C     0.15840   0.56550   0.46650   0.01267  Uiso   1.00
C74    C     0.26950   0.56490   0.54850   0.01267  Uiso   1.00
C75    C     0.50940   0.57680   0.01400   0.01267  Uiso   1.00
C76    C     0.30100   0.18470   0.84370   0.01267  Uiso   1.00
C77    C     0.01790   0.65060   0.53180   0.01267  Uiso   1.00
C78    C     0.49230   0.98000   0.62160   0.01267  Uiso   1.00
C79    C     0.13970   0.82090   0.38350   0.01267  Uiso   1.00
C80    C     0.34290   0.33740   0.54100   0.01267  Uiso   1.00
C81    C     0.04420   0.58790   0.43730   0.01267  Uiso   1.00
C82    C     0.76740   0.95490   0.84650   0.01267  Uiso   1.00
C83    C     0.06399   0.19262   0.82520   0.01267  Uiso   1.00
C84    C     0.25570   0.90560   0.98600   0.01267  Uiso   1.00
C85    C     0.50540   0.01010   0.44150   0.01267  Uiso   1.00
C86    C     0.42980   0.37450   0.33510   0.01267  Uiso   1.00
C87    C     0.61710   0.06490   0.04850   0.01267  Uiso   1.00
C88    C     0.20740   0.84170   0.46970   0.01267  Uiso   1.00
C89    C     0.52100   0.29370   0.35830   0.01267  Uiso   1.00
C90    C     0.83406   0.82528   0.13300   0.01267  Uiso   1.00
C91    C     0.84160   0.43450   0.53350   0.01267  Uiso   1.00
C92    C     0.79234   0.67472   0.36700   0.01267  Uiso   1.00
C93    C     0.15530   0.97400   0.68760   0.01267  Uiso   1.00
C94    C     0.95700   0.48990   0.05850   0.01267  Uiso   1.00
C95    C     0.70490   0.78870   0.89270   0.01267  Uiso   1.00
C96    C     0.65710   0.66260   0.45900   0.01267  Uiso   1.00
C97    C     0.47050   0.58640   0.17740   0.01267  Uiso   1.00
C98    C     0.13740   0.97810   0.50990   0.01267  Uiso   1.00
C99    C     0.43700   0.07330   0.52230   0.01267  Uiso   1.00
C100   C     0.61110   0.86870   0.90470   0.01267  Uiso   1.00
C101   C     0.04300   0.51010   0.94150   0.01267  Uiso   1.00
C102   C     0.23430   0.91360   0.32260   0.01267  Uiso   1.00
C103   C     0.86030   0.17910   0.61650   0.01267  Uiso   1.00
C104   C     0.20030   0.84940   0.96820   0.01267  Uiso   1.00
C105   C     0.33880   0.54600   0.31760   0.01267  Uiso   1.00
C106   C     0.52950   0.41360   0.82260   0.01267  Uiso   1.00
C107   C     0.55820   0.91710   0.53430   0.01267  Uiso   1.00
C108   C     0.46350   0.32340   0.56500   0.01267  Uiso   1.00
C109   C     0.98210   0.34940   0.46820   0.01267  Uiso   1.00
C110   C     0.72940   0.93350   0.32790   0.01267  Uiso   1.00
C111   C     0.44180   0.08290   0.46570   0.01267  Uiso   1.00
C112   C     0.57020   0.62550   0.66490   0.01267  Uiso   1.00
C113   C     0.56880   0.54510   0.65350   0.01267  Uiso   1.00
C114   C     0.20240   0.95400   0.18240   0.01267  Uiso   1.00
C115   C     0.77870   0.83740   0.04100   0.01267  Uiso   1.00
C116   C     0.66120   0.45400   0.68240   0.01267  Uiso   1.00
C117   C     0.10020   0.92320   0.48600   0.01267  Uiso   1.00
C118   C     0.38450   0.63130   0.59530   0.01267  Uiso   1.00
C119   C     0.08060   0.82580   0.99840   0.01267  Uiso   1.00
C120   C     0.12593   0.16164   0.92570   0.01267  Uiso   1.00
C121   C     0.35190   0.17660   0.93500   0.01267  Uiso   1.00
C122   C     0.08537   0.35806   0.54520   0.01267  Uiso   1.00
C123   C     0.00960   0.58290   0.96570   0.01267  Uiso   1.00
C124   C     0.09390   0.52000   0.87840   0.01267  Uiso   1.00
C125   C     0.93060   0.08790   0.93730   0.01267  Uiso   1.00
C126   C     0.17300   0.20630   0.14170   0.01267  Uiso   1.00
C127   C     0.23260   0.04510   0.15350   0.01267  Uiso   1.00
C128   C     0.04000   0.05440   0.52360   0.01267  Uiso   1.00
C129   C     0.22130   0.16260   0.95900   0.01267  Uiso   1.00
C130   C     0.85270   0.40560   0.48600   0.01267  Uiso   1.00
C131   C     0.48120   0.34170   0.96970   0.01267  Uiso   1.00
C132   C     0.74430   0.09440   0.01400   0.01267  Uiso   1.00
N1     N     0.89787   0.44553   0.80373   0.01267  Uiso   1.00
N2     N     0.78658   0.15004   0.59160   0.01267  Uiso   1.00
N3     N     0.65289   0.00252   0.34910   0.01267  Uiso   1.00
N4     N     0.14713   0.05447   0.69627   0.01267  Uiso   1.00
N5     N     0.34711   0.99748   0.65090   0.01267  Uiso   1.00
N6     N     0.85287   0.94553   0.30373   0.01267  Uiso   1.00
N7     N     0.14934   0.85979   0.32793   0.01267  Uiso   1.00
N8     N     0.33706   0.64021   0.17207   0.01267  Uiso   1.00
N9     N     0.86868   0.56404   0.83960   0.01267  Uiso   1.00
N10    N     0.27481   0.91038   0.37020   0.01267  Uiso   1.00
N11    N     0.10213   0.55447   0.19627   0.01267  Uiso   1.00
N12    N     0.00451   0.49748   0.15090   0.01267  Uiso   1.00
N13    N     0.47178   0.65004   0.09160   0.01267  Uiso   1.00
N14    N     0.85066   0.14021   0.67207   0.01267  Uiso   1.00
N15    N     0.99549   0.50252   0.84910   0.01267  Uiso   1.00
N16    N     0.21342   0.84996   0.40840   0.01267  Uiso   1.00
N17    N     0.72768   0.06404   0.33960   0.01267  Uiso   1.00
N18    N     0.72519   0.08962   0.62980   0.01267  Uiso   1.00
N19    N     0.52822   0.34996   0.90840   0.01267  Uiso   1.00
N20    N     0.13132   0.43596   0.16040   0.01267  Uiso   1.00
N21    N     0.44461   0.41038   0.87020   0.01267  Uiso   1.00
N22    N     0.27232   0.93596   0.66040   0.01267  Uiso   1.00
N23    N     0.55539   0.58962   0.12980   0.01267  Uiso   1.00
N24    N     0.66294   0.35979   0.82793   0.01267  Uiso   1.00
O1     O     0.90207   0.84968   0.21318   0.01267  Uiso   1.00
O2     O     0.96493   0.65032   0.28682   0.01267  Uiso   1.00
O3     O     0.03682   0.24684   0.66752   0.01267  Uiso   1.00
O4     O     0.95118   0.25316   0.83248   0.01267  Uiso   1.00
O5     O     0.20490   0.75000   0.25000   0.01267  Uiso   1.00
O6     O     0.91534   0.04228   0.78724   0.01267  Uiso   1.00
O7     O     0.79510   0.25000   0.75000   0.01267  Uiso   1.00
O8     O     0.70948   0.11704   0.82380   0.01267  Uiso   1.00
O9     O     0.65032   0.38296   0.67620   0.01267  Uiso   1.00
O10    O     0.48845   0.85588   0.94042   0.01267  Uiso   1.00
O11    O     0.04882   0.74684   0.16752   0.01267  Uiso   1.00
O12    O     0.28475   0.64412   0.55958   0.01267  Uiso   1.00
O13    O     0.09793   0.15032   0.78682   0.01267  Uiso   1.00
O14    O     0.96318   0.75316   0.33248   0.01267  Uiso   1.00
O15    O     0.03507   0.34968   0.71318   0.01267  Uiso   1.00
O16    O     0.71525   0.35588   0.44042   0.01267  Uiso   1.00
O17    O     0.29052   0.88296   0.17620   0.01267  Uiso   1.00
O18    O     0.34968   0.61704   0.32380   0.01267  Uiso   1.00
O19    O     0.25514   0.54228   0.28724   0.01267  Uiso   1.00
O20    O     0.74486   0.45772   0.71276   0.01267  Uiso   1.00
O21    O     0.51155   0.14412   0.05958   0.01267  Uiso   1.00
O22    O     0.08466   0.95772   0.21276   0.01267  Uiso   1.00
