data_WOWBER_clean
_audit_creation_date              2015-10-16
_audit_creation_method            'Materials Studio'
_symmetry_space_group_name_H-M    'P1'
_symmetry_Int_Tables_number       1
_symmetry_cell_setting            triclinic
loop_
_symmetry_equiv_pos_as_xyz
  x,y,z
_cell_length_a                    6.6820
_cell_length_b                    11.0483
_cell_length_c                    17.6380
_cell_angle_alpha                 107.8330
_cell_angle_beta                  90.0000
_cell_angle_gamma                 90.0000
loop_
_atom_site_label
_atom_site_type_symbol
_atom_site_fract_x
_atom_site_fract_y
_atom_site_fract_z
_atom_site_U_iso_or_equiv
_atom_site_adp_type
_atom_site_occupancy
Cd1    Cd    0.99647   0.53468   0.40973   0.01267  Uiso   1.00
Cd2    Cd    0.50353   0.53468   0.90973   0.01267  Uiso   1.00
Cd3    Cd    0.49647   0.46532   0.09027   0.01267  Uiso   1.00
Cd4    Cd    0.50000   0.50000   0.50000   0.01267  Uiso   1.00
Cd5    Cd    0.00000   0.50000  -0.00000   0.01267  Uiso   1.00
Cd6    Cd    0.00353   0.46532   0.59027   0.01267  Uiso   1.00
H1     H     0.69300   0.35800   0.95200   0.01267  Uiso   1.00
H2     H     0.65510   0.16980   0.29480   0.01267  Uiso   1.00
H3     H     0.61610   0.14980   0.44330   0.01267  Uiso   1.00
H4     H     0.80700   0.35800   0.45200   0.01267  Uiso   1.00
H5     H     0.26620   0.99730   0.81660   0.01267  Uiso   1.00
H6     H     0.00980   0.06160   0.42220   0.01267  Uiso   1.00
H7     H     0.49020   0.06160   0.92220   0.01267  Uiso   1.00
H8     H     0.99020   0.93840   0.57780   0.01267  Uiso   1.00
H9     H     0.88390   0.14980   0.94330   0.01267  Uiso   1.00
H10    H     0.38390   0.85020   0.55670   0.01267  Uiso   1.00
H11    H     0.23380   0.99730   0.31660   0.01267  Uiso   1.00
H12    H     0.50980   0.93840   0.07780   0.01267  Uiso   1.00
H13    H     0.87190   0.78930   0.80320   0.01267  Uiso   1.00
H14    H     0.34490   0.83020   0.70520   0.01267  Uiso   1.00
H15    H     0.62810   0.78930   0.30320   0.01267  Uiso   1.00
H16    H     0.11610   0.85020   0.05670   0.01267  Uiso   1.00
H17    H     0.12810   0.21070   0.19680   0.01267  Uiso   1.00
H18    H     0.73380   0.00270   0.18340   0.01267  Uiso   1.00
H19    H     0.76620   0.00270   0.68340   0.01267  Uiso   1.00
H20    H     0.84490   0.16980   0.79480   0.01267  Uiso   1.00
H21    H     0.30700   0.64200   0.04800   0.01267  Uiso   1.00
H22    H     0.19300   0.64200   0.54800   0.01267  Uiso   1.00
H23    H     0.37190   0.21070   0.69680   0.01267  Uiso   1.00
H24    H     0.15510   0.83020   0.20520   0.01267  Uiso   1.00
C1     C     0.38230   0.20750   0.25730   0.01267  Uiso   1.00
C2     C     0.47810   0.00620   0.12240   0.01267  Uiso   1.00
C3     C     0.66760   0.74480   0.45580   0.01267  Uiso   1.00
C4     C     0.43510   0.85550   0.74720   0.01267  Uiso   1.00
C5     C     0.29700   0.07000   0.12610   0.01267  Uiso   1.00
C6     C     0.41890   0.12250   0.52370   0.01267  Uiso   1.00
C7     C     0.67450   0.68470   0.66990   0.01267  Uiso   1.00
C8     C     0.97810   0.99380   0.37760   0.01267  Uiso   1.00
C9     C     0.11210   0.95540   0.31400   0.01267  Uiso   1.00
C10    C     0.11770   0.20750   0.75730   0.01267  Uiso   1.00
C11    C     0.08110   0.12250   0.02370   0.01267  Uiso   1.00
C12    C     0.17450   0.31530   0.83010   0.01267  Uiso   1.00
C13    C     0.70300   0.93000   0.87390   0.01267  Uiso   1.00
C14    C     0.33240   0.25520   0.54420   0.01267  Uiso   1.00
C15    C     0.20300   0.07000   0.62610   0.01267  Uiso   1.00
C16    C     0.24970   0.16920   0.69390   0.01267  Uiso   1.00
C17    C     0.88790   0.04460   0.68600   0.01267  Uiso   1.00
C18    C     0.06910   0.91090   0.03430   0.01267  Uiso   1.00
C19    C     0.93510   0.14450   0.75280   0.01267  Uiso   1.00
C20    C     0.61210   0.04460   0.18600   0.01267  Uiso   1.00
C21    C     0.32550   0.31530   0.33010   0.01267  Uiso   1.00
C22    C     0.52190   0.99380   0.87760   0.01267  Uiso   1.00
C23    C     0.82550   0.68470   0.16990   0.01267  Uiso   1.00
C24    C     0.02190   0.00620   0.62240   0.01267  Uiso   1.00
C25    C     0.83240   0.74480   0.95580   0.01267  Uiso   1.00
C26    C     0.93090   0.08910   0.96570   0.01267  Uiso   1.00
C27    C     0.16760   0.25520   0.04420   0.01267  Uiso   1.00
C28    C     0.75030   0.83080   0.30610   0.01267  Uiso   1.00
C29    C     0.56490   0.14450   0.25280   0.01267  Uiso   1.00
C30    C     0.58110   0.87750   0.47630   0.01267  Uiso   1.00
C31    C     0.43090   0.91090   0.53430   0.01267  Uiso   1.00
C32    C     0.25030   0.16920   0.19390   0.01267  Uiso   1.00
C33    C     0.56910   0.08910   0.46570   0.01267  Uiso   1.00
C34    C     0.91890   0.87750   0.97630   0.01267  Uiso   1.00
C35    C     0.88230   0.79250   0.24270   0.01267  Uiso   1.00
C36    C     0.79700   0.93000   0.37390   0.01267  Uiso   1.00
C37    C     0.64960   0.96690   0.44070   0.01267  Uiso   1.00
C38    C     0.35040   0.03310   0.55930   0.01267  Uiso   1.00
C39    C     0.85040   0.96690   0.94070   0.01267  Uiso   1.00
C40    C     0.38790   0.95540   0.81400   0.01267  Uiso   1.00
C41    C     0.74970   0.83080   0.80610   0.01267  Uiso   1.00
C42    C     0.61770   0.79250   0.74270   0.01267  Uiso   1.00
C43    C     0.06490   0.85550   0.24720   0.01267  Uiso   1.00
C44    C     0.14960   0.03310   0.05930   0.01267  Uiso   1.00
O1     O     0.81410   0.43160   0.47823   0.01267  Uiso   1.00
O2     O     0.44480   0.34150   0.38720   0.01267  Uiso   1.00
O3     O     0.14870   0.26730   0.53856   0.01267  Uiso   1.00
O4     O     0.55520   0.65850   0.61280   0.01267  Uiso   1.00
O5     O     0.05520   0.34150   0.88720   0.01267  Uiso   1.00
O6     O     0.45630   0.34510   0.56530   0.01267  Uiso   1.00
O7     O     0.35130   0.26730   0.03856   0.01267  Uiso   1.00
O8     O     0.16370   0.36730   0.32970   0.01267  Uiso   1.00
O9     O     0.18590   0.56840   0.52177   0.01267  Uiso   1.00
O10    O     0.95630   0.65490   0.93470   0.01267  Uiso   1.00
O11    O     0.04370   0.34510   0.06530   0.01267  Uiso   1.00
O12    O     0.33630   0.36730   0.82970   0.01267  Uiso   1.00
O13    O     0.94480   0.65850   0.11280   0.01267  Uiso   1.00
O14    O     0.66370   0.63270   0.17030   0.01267  Uiso   1.00
O15    O     0.68590   0.43160   0.97823   0.01267  Uiso   1.00
O16    O     0.85130   0.73270   0.46144   0.01267  Uiso   1.00
O17    O     0.54370   0.65490   0.43470   0.01267  Uiso   1.00
O18    O     0.31410   0.56840   0.02177   0.01267  Uiso   1.00
O19    O     0.83630   0.63270   0.67030   0.01267  Uiso   1.00
O20    O     0.64870   0.73270   0.96144   0.01267  Uiso   1.00
