data_image0
_cell_length_a       5.2016
_cell_length_b       13.6024
_cell_length_c       17.2394
_cell_angle_alpha    97.869
_cell_angle_beta     93.302
_cell_angle_gamma    91.828

_symmetry_space_group_name_H-M    "P 1"
_symmetry_int_tables_number       1

loop_
  _symmetry_equiv_pos_as_xyz
  'x, y, z'

loop_
  _atom_site_label
  _atom_site_occupancy
  _atom_site_fract_x
  _atom_site_fract_y
  _atom_site_fract_z
  _atom_site_thermal_displace_type
  _atom_site_B_iso_or_equiv
  _atom_site_type_symbol
  Zn1      1.0000 0.16360  0.78326  0.65329  Biso   1.000  Zn
  Zn2      1.0000 0.79540  0.94654  0.57309  Biso   1.000  Zn
  Zn3      1.0000 0.27590  0.62561  0.49954  Biso   1.000  Zn
  Zn4      1.0000 0.78000  0.99650  0.90352  Biso   1.000  Zn
  P1       1.0000 0.69090  0.87007  0.73309  Biso   1.000  P
  P2       1.0000 0.24900  0.85279  0.48966  Biso   1.000  P
  P3       1.0000 0.81280  0.58769  0.59311  Biso   1.000  P
  P4       1.0000 0.72330  0.88430  0.05105  Biso   1.000  P
  O1       1.0000 0.50400  0.78040  0.70120  Biso   1.000  O
  O2       1.0000 0.96190  0.82690  0.73930  Biso   1.000  O
  O3       1.0000 0.07770  0.64740  0.59720  Biso   1.000  O
  O4       1.0000 0.11890  0.86740  0.56980  Biso   1.000  O
  O5       1.0000 0.53510  0.87580  0.50080  Biso   1.000  O
  O6       1.0000 0.11080  0.91860  0.43770  Biso   1.000  O
  O7       1.0000 0.67970  0.94850  0.67850  Biso   1.000  O
  O8       1.0000 0.63350  0.62380  0.53180  Biso   1.000  O
  O9       1.0000 0.20490  0.74380  0.45160  Biso   1.000  O
  O10      1.0000 0.86260  0.47940  0.57840  Biso   1.000  O
  O11      1.0000 0.82990  0.89170  0.97150  Biso   1.000  O
  O12      1.0000 0.61200  0.91410  0.81400  Biso   1.000  O
  O13      1.0000 0.43770  0.90160  0.05090  Biso   1.000  O
  O14      1.0000 0.88190  0.95070  0.11570  Biso   1.000  O
  O15      1.0000 0.70520  0.60850  0.67640  Biso   1.000  O
  O16      1.0000 0.74480  0.77230  0.06660  Biso   1.000  O
  Zn5      1.0000 0.83640  0.21674  0.34671  Biso   1.000  Zn
  Zn6      1.0000 0.20460  0.05346  0.42691  Biso   1.000  Zn
  Zn7      1.0000 0.72410  0.37439  0.50046  Biso   1.000  Zn
  Zn8      1.0000 0.22000  0.00350  0.09648  Biso   1.000  Zn
  P5       1.0000 0.30910  0.12993  0.26691  Biso   1.000  P
  P6       1.0000 0.75100  0.14721  0.51034  Biso   1.000  P
  P7       1.0000 0.18720  0.41231  0.40689  Biso   1.000  P
  P8       1.0000 0.27670  0.11570  0.94895  Biso   1.000  P
  O17      1.0000 0.49600  0.21960  0.29880  Biso   1.000  O
  O18      1.0000 0.03810  0.17310  0.26070  Biso   1.000  O
  O19      1.0000 0.92230  0.35260  0.40280  Biso   1.000  O
  O20      1.0000 0.88110  0.13260  0.43020  Biso   1.000  O
  O21      1.0000 0.46490  0.12420  0.49920  Biso   1.000  O
  O22      1.0000 0.88920  0.08140  0.56230  Biso   1.000  O
  O23      1.0000 0.32030  0.05150  0.32150  Biso   1.000  O
  O24      1.0000 0.36650  0.37620  0.46820  Biso   1.000  O
  O25      1.0000 0.79510  0.25620  0.54840  Biso   1.000  O
  O26      1.0000 0.13740  0.52060  0.42160  Biso   1.000  O
  O27      1.0000 0.17010  0.10830  0.02850  Biso   1.000  O
  O28      1.0000 0.38800  0.08590  0.18600  Biso   1.000  O
  O29      1.0000 0.56230  0.09840  0.94910  Biso   1.000  O
  O30      1.0000 0.11810  0.04930  0.88430  Biso   1.000  O
  O31      1.0000 0.29480  0.39150  0.32360  Biso   1.000  O
  O32      1.0000 0.25520  0.22770  0.93340  Biso   1.000  O
  N1       1.0000 0.76770  0.19680  0.11870  Biso   1.000  N
  N2       1.0000 0.73100  0.74600  0.36230  Biso   1.000  N
  C1       1.0000 0.69400  0.30180  0.11950  Biso   1.000  C
  C2       1.0000 0.92800  0.36870  0.12300  Biso   1.000  C
  C3       1.0000 0.86100  0.48000  0.13700  Biso   1.000  C
  C4       1.0000 0.74600  0.50980  0.21700  Biso   1.000  C
  C5       1.0000 0.78400  0.61700  0.24840  Biso   1.000  C
  C6       1.0000 0.65000  0.64290  0.32370  Biso   1.000  C
  H1       1.0000 0.60950  0.15240  0.11550  Biso   1.000  H
  H2       1.0000 0.87410  0.19090  0.16800  Biso   1.000  H
  H3       1.0000 0.87050  0.17690  0.07230  Biso   1.000  H
  H4       1.0000 0.64100  0.76240  0.41190  Biso   1.000  H
  H5       1.0000 0.92200  0.74980  0.37460  Biso   1.000  H
  H6       1.0000 0.68500  0.79450  0.32560  Biso   1.000  H
  H7       1.0000 0.59200  0.32190  0.16590  Biso   1.000  H
  H8       1.0000 0.58800  0.30790  0.07030  Biso   1.000  H
  H9       1.0000 0.04400  0.35550  0.16830  Biso   1.000  H
  H10      1.0000 0.01800  0.35400  0.07330  Biso   1.000  H
  H11      1.0000 0.02000  0.52300  0.13500  Biso   1.000  H
  H12      1.0000 0.73100  0.49200  0.09500  Biso   1.000  H
  H13      1.0000 0.83100  0.47070  0.25500  Biso   1.000  H
  H14      1.0000 0.55700  0.49260  0.21100  Biso   1.000  H
  H15      1.0000 0.97300  0.63350  0.25890  Biso   1.000  H
  H16      1.0000 0.71300  0.65690  0.20810  Biso   1.000  H
  H17      1.0000 0.69600  0.59440  0.36040  Biso   1.000  H
  H18      1.0000 0.45900  0.63910  0.31150  Biso   1.000  H
  N3       1.0000 0.23230  0.80320  0.88130  Biso   1.000  N
  N4       1.0000 0.26900  0.25400  0.63770  Biso   1.000  N
  C7       1.0000 0.30600  0.69820  0.88050  Biso   1.000  C
  C8       1.0000 0.07200  0.63130  0.87700  Biso   1.000  C
  C9       1.0000 0.13900  0.52000  0.86300  Biso   1.000  C
  C10      1.0000 0.25400  0.49020  0.78300  Biso   1.000  C
  C11      1.0000 0.21600  0.38300  0.75160  Biso   1.000  C
  C12      1.0000 0.35000  0.35710  0.67630  Biso   1.000  C
  H19      1.0000 0.39050  0.84760  0.88450  Biso   1.000  H
  H20      1.0000 0.12590  0.80910  0.83200  Biso   1.000  H
  H21      1.0000 0.12950  0.82310  0.92770  Biso   1.000  H
  H22      1.0000 0.35900  0.23760  0.58810  Biso   1.000  H
  H23      1.0000 0.07800  0.25020  0.62540  Biso   1.000  H
  H24      1.0000 0.31500  0.20550  0.67440  Biso   1.000  H
  H25      1.0000 0.40800  0.67810  0.83410  Biso   1.000  H
  H26      1.0000 0.41200  0.69210  0.92970  Biso   1.000  H
  H27      1.0000 0.95600  0.64450  0.83170  Biso   1.000  H
  H28      1.0000 0.98200  0.64600  0.92670  Biso   1.000  H
  H29      1.0000 0.98000  0.47700  0.86500  Biso   1.000  H
  H30      1.0000 0.26900  0.50800  0.90500  Biso   1.000  H
  H31      1.0000 0.16900  0.52930  0.74500  Biso   1.000  H
  H32      1.0000 0.44300  0.50740  0.78900  Biso   1.000  H
  H33      1.0000 0.02700  0.36650  0.74110  Biso   1.000  H
  H34      1.0000 0.28700  0.34310  0.79190  Biso   1.000  H
  H35      1.0000 0.30400  0.40560  0.63960  Biso   1.000  H
  H36      1.0000 0.54100  0.36090  0.68850  Biso   1.000  H
