data_WOWHAR_clean
_audit_creation_date              2014-07-02
_audit_creation_method            'Materials Studio'
_symmetry_space_group_name_H-M    'P1'
_symmetry_Int_Tables_number       1
_symmetry_cell_setting            triclinic
loop_
_symmetry_equiv_pos_as_xyz
  x,y,z
_cell_length_a                    12.4616
_cell_length_b                    13.9703
_cell_length_c                    13.9703
_cell_angle_alpha                 78.5262
_cell_angle_beta                  63.5124
_cell_angle_gamma                 63.5124
loop_
_atom_site_label
_atom_site_type_symbol
_atom_site_fract_x
_atom_site_fract_y
_atom_site_fract_z
_atom_site_U_iso_or_equiv
_atom_site_adp_type
_atom_site_occupancy
V1     V     0.24776   0.50231   0.79179   0.01267  Uiso   1.00
V2     V     0.02643   0.79652   0.49886   0.01267  Uiso   1.00
V3     V     0.37859   0.37645   0.56625   0.01267  Uiso   1.00
V4     V     0.54186   0.49769   0.20821   0.01267  Uiso   1.00
V5     V     0.32181   0.20348   0.50114   0.01267  Uiso   1.00
V6     V     0.32129   0.62355   0.43375   0.01267  Uiso   1.00
V7     V     0.03955   0.20821   0.50231   0.01267  Uiso   1.00
V8     V     0.52529   0.50114   0.79652   0.01267  Uiso   1.00
V9     V     0.94484   0.43375   0.37645   0.01267  Uiso   1.00
V10    V     0.75007   0.79179   0.49769   0.01267  Uiso   1.00
V11    V     0.82295   0.49886   0.20348   0.01267  Uiso   1.00
V12    V     0.75504   0.56625   0.62355   0.01267  Uiso   1.00
Co1    Co    0.02140   0.77018   0.76730   0.01267  Uiso   1.00
Co2    Co    0.46033   0.99876   0.66740   0.01267  Uiso   1.00
Co3    Co    0.55888   0.22982   0.23270   0.01267  Uiso   1.00
Co4    Co    0.12649   0.00124   0.33260   0.01267  Uiso   1.00
Co5    Co    0.78870   0.23270   0.77018   0.01267  Uiso   1.00
Co6    Co    0.12773   0.33260   0.99876   0.01267  Uiso   1.00
Co7    Co    0.79158   0.76730   0.22982   0.01267  Uiso   1.00
Co8    Co    0.45909   0.66740   0.00124   0.01267  Uiso   1.00
H1     H     0.34090   0.69330   0.67650   0.01267  Uiso   1.00
H2     H     0.48140   0.78440   0.64560   0.01267  Uiso   1.00
H3     H     0.17720   0.06510   0.71310   0.01267  Uiso   1.00
H4     H     0.73280   0.55690   0.01230   0.01267  Uiso   1.00
H5     H     0.93110   0.59980   0.91640   0.01267  Uiso   1.00
H6     H     0.74670   0.83480   0.77400   0.01267  Uiso   1.00
H7     H     0.71070   0.30670   0.32350   0.01267  Uiso   1.00
H8     H     0.91140   0.21560   0.35440   0.01267  Uiso   1.00
H9     H     0.95540   0.93490   0.28690   0.01267  Uiso   1.00
H10    H     0.30200   0.44310   0.98770   0.01267  Uiso   1.00
H11    H     0.44730   0.40020   0.08360   0.01267  Uiso   1.00
H12    H     0.35550   0.16520   0.22600   0.01267  Uiso   1.00
H13    H     0.01740   0.32350   0.69330   0.01267  Uiso   1.00
H14    H     0.12700   0.35440   0.78440   0.01267  Uiso   1.00
H15    H     0.89030   0.28690   0.06510   0.01267  Uiso   1.00
H16    H     0.74510   0.98770   0.55690   0.01267  Uiso   1.00
H17    H     0.84750   0.08360   0.59980   0.01267  Uiso   1.00
H18    H     0.52070   0.22600   0.83480   0.01267  Uiso   1.00
H19    H     0.03420   0.67650   0.30670   0.01267  Uiso   1.00
H20    H     0.26580   0.64560   0.21560   0.01267  Uiso   1.00
H21    H     0.24230   0.71310   0.93490   0.01267  Uiso   1.00
H22    H     0.28970   0.01230   0.44310   0.01267  Uiso   1.00
H23    H     0.53090   0.91640   0.40020   0.01267  Uiso   1.00
H24    H     0.58150   0.77400   0.16520   0.01267  Uiso   1.00
C1     C     0.30570   0.76770   0.68510   0.01267  Uiso   1.00
C2     C     0.38640   0.81700   0.67020   0.01267  Uiso   1.00
C3     C     0.20950   0.97990   0.70650   0.01267  Uiso   1.00
C4     C     0.12930   0.92980   0.72280   0.01267  Uiso   1.00
C5     C     0.98280   0.99030   0.75670   0.01267  Uiso   1.00
C6     C     0.75320   0.61290   0.94470   0.01267  Uiso   1.00
C7     C     0.86150   0.63900   0.89940   0.01267  Uiso   1.00
C8     C     0.75460   0.78050   0.81370   0.01267  Uiso   1.00
C9     C     0.64810   0.75470   0.85890   0.01267  Uiso   1.00
C10    C     0.52420   0.81760   0.83780   0.01267  Uiso   1.00
C11    C     0.75850   0.23230   0.31490   0.01267  Uiso   1.00
C12    C     0.87360   0.18300   0.32980   0.01267  Uiso   1.00
C13    C     0.89590   0.02010   0.29350   0.01267  Uiso   1.00
C14    C     0.78190   0.07020   0.27720   0.01267  Uiso   1.00
C15    C     0.72980   0.00970   0.24330   0.01267  Uiso   1.00
C16    C     0.31080   0.38710   0.05530   0.01267  Uiso   1.00
C17    C     0.39990   0.36100   0.10060   0.01267  Uiso   1.00
C18    C     0.34880   0.21950   0.18630   0.01267  Uiso   1.00
C19    C     0.26170   0.24530   0.14110   0.01267  Uiso   1.00
C20    C     0.17960   0.18240   0.16220   0.01267  Uiso   1.00
C21    C     0.99080   0.31490   0.76770   0.01267  Uiso   1.00
C22    C     0.05660   0.32980   0.81700   0.01267  Uiso   1.00
C23    C     0.91600   0.29350   0.97990   0.01267  Uiso   1.00
C24    C     0.85210   0.27720   0.92980   0.01267  Uiso   1.00
C25    C     0.73950   0.24330   0.99030   0.01267  Uiso   1.00
C26    C     0.69790   0.05530   0.61290   0.01267  Uiso   1.00
C27    C     0.76090   0.10060   0.63900   0.01267  Uiso   1.00
C28    C     0.56830   0.18630   0.78050   0.01267  Uiso   1.00
C29    C     0.50700   0.14110   0.75470   0.01267  Uiso   1.00
C30    C     0.36200   0.16220   0.81760   0.01267  Uiso   1.00
C31    C     0.07340   0.68510   0.23230   0.01267  Uiso   1.00
C32    C     0.20340   0.67020   0.18300   0.01267  Uiso   1.00
C33    C     0.18940   0.70650   0.02010   0.01267  Uiso   1.00
C34    C     0.05910   0.72280   0.07020   0.01267  Uiso   1.00
C35    C     0.97310   0.75670   0.00970   0.01267  Uiso   1.00
C36    C     0.36610   0.94470   0.38710   0.01267  Uiso   1.00
C37    C     0.50050   0.89940   0.36100   0.01267  Uiso   1.00
C38    C     0.53510   0.81370   0.21950   0.01267  Uiso   1.00
C39    C     0.40280   0.85890   0.24530   0.01267  Uiso   1.00
C40    C     0.34180   0.83780   0.18240   0.01267  Uiso   1.00
N1     N     0.17700   0.82230   0.71190   0.01267  Uiso   1.00
N2     N     0.33910   0.92360   0.68100   0.01267  Uiso   1.00
N3     N     0.64680   0.67090   0.92510   0.01267  Uiso   1.00
N4     N     0.86170   0.72450   0.83370   0.01267  Uiso   1.00
N5     N     0.71120   0.17770   0.28810   0.01267  Uiso   1.00
N6     N     0.94370   0.07640   0.31900   0.01267  Uiso   1.00
N7     N     0.24280   0.32910   0.07490   0.01267  Uiso   1.00
N8     N     0.41990   0.27550   0.16630   0.01267  Uiso   1.00
N9     N     0.88890   0.28810   0.82230   0.01267  Uiso   1.00
N10    N     0.02010   0.31900   0.92360   0.01267  Uiso   1.00
N11    N     0.57190   0.07490   0.67090   0.01267  Uiso   1.00
N12    N     0.69540   0.16630   0.72450   0.01267  Uiso   1.00
N13    N     0.99930   0.71190   0.17770   0.01267  Uiso   1.00
N14    N     0.26270   0.68100   0.07640   0.01267  Uiso   1.00
N15    N     0.31770   0.92510   0.32910   0.01267  Uiso   1.00
N16    N     0.58620   0.83370   0.27550   0.01267  Uiso   1.00
O1     O     0.91600   0.93630   0.78190   0.01267  Uiso   1.00
O2     O     0.94450   0.08950   0.75530   0.01267  Uiso   1.00
O3     O     0.43150   0.78970   0.88830   0.01267  Uiso   1.00
O4     O     0.53140   0.89000   0.77000   0.01267  Uiso   1.00
O5     O     0.15900   0.60910   0.74270   0.01267  Uiso   1.00
O6     O     0.61640   0.90240   0.53600   0.01267  Uiso   1.00
O7     O     0.34020   0.39260   0.70000   0.01267  Uiso   1.00
O8     O     0.36390   0.52670   0.81350   0.01267  Uiso   1.00
O9     O     0.40740   0.10210   0.55450   0.01267  Uiso   1.00
O10    O     0.99840   0.78720   0.62620   0.01267  Uiso   1.00
O11    O     0.16500   0.67400   0.43420   0.01267  Uiso   1.00
O12    O     0.63420   0.06370   0.21810   0.01267  Uiso   1.00
O13    O     0.78930   0.91050   0.24470   0.01267  Uiso   1.00
O14    O     0.10950   0.21030   0.11170   0.01267  Uiso   1.00
O15    O     0.19140   0.11000   0.23000   0.01267  Uiso   1.00
O16    O     0.51080   0.39090   0.25730   0.01267  Uiso   1.00
O17    O     0.05480   0.09760   0.46400   0.01267  Uiso   1.00
O18    O     0.43280   0.60740   0.30000   0.01267  Uiso   1.00
O19    O     0.70410   0.47330   0.18650   0.01267  Uiso   1.00
O20    O     0.06400   0.89790   0.44550   0.01267  Uiso   1.00
O21    O     0.41180   0.21280   0.37380   0.01267  Uiso   1.00
O22    O     0.27320   0.32600   0.56580   0.01267  Uiso   1.00
O23    O     0.69790   0.21810   0.93630   0.01267  Uiso   1.00
O24    O     0.69980   0.24470   0.08950   0.01267  Uiso   1.00
O25    O     0.31980   0.11170   0.78970   0.01267  Uiso   1.00
O26    O     0.30140   0.23000   0.89000   0.01267  Uiso   1.00
O27    O     0.90170   0.25730   0.60910   0.01267  Uiso   1.00
O28    O     0.15240   0.46400   0.90240   0.01267  Uiso   1.00
O29    O     0.04020   0.30000   0.39260   0.01267  Uiso   1.00
O30    O     0.17740   0.18650   0.52670   0.01267  Uiso   1.00
O31    O     0.96190   0.44550   0.10210   0.01267  Uiso   1.00
O32    O     0.62460   0.37380   0.78720   0.01267  Uiso   1.00
O33    O     0.59920   0.56580   0.67400   0.01267  Uiso   1.00
O34    O     0.85230   0.78190   0.06370   0.01267  Uiso   1.00
O35    O     0.03400   0.75530   0.91050   0.01267  Uiso   1.00
O36    O     0.22120   0.88830   0.21030   0.01267  Uiso   1.00
O37    O     0.42140   0.77000   0.11000   0.01267  Uiso   1.00
O38    O     0.76810   0.74270   0.39090   0.01267  Uiso   1.00
O39    O     0.51880   0.53600   0.09760   0.01267  Uiso   1.00
O40    O     0.73280   0.70000   0.60740   0.01267  Uiso   1.00
O41    O     0.89060   0.81350   0.47330   0.01267  Uiso   1.00
O42    O     0.50950   0.55450   0.89790   0.01267  Uiso   1.00
O43    O     0.78560   0.62620   0.21280   0.01267  Uiso   1.00
O44    O     0.83900   0.43420   0.32600   0.01267  Uiso   1.00
O45    O     0.36170   0.50000   0.50000   0.01267  Uiso   1.00
O46    O     0.86170   0.50000   0.50000   0.01267  Uiso   1.00
