data_WOWHEV_clean
_audit_creation_date              2014-07-02
_audit_creation_method            'Materials Studio'
_symmetry_space_group_name_H-M    'P1'
_symmetry_Int_Tables_number       1
_symmetry_cell_setting            triclinic
loop_
_symmetry_equiv_pos_as_xyz
  x,y,z
_cell_length_a                    12.2679
_cell_length_b                    13.9199
_cell_length_c                    13.9199
_cell_angle_alpha                 78.8032
_cell_angle_beta                  63.8541
_cell_angle_gamma                 63.8541
loop_
_atom_site_label
_atom_site_type_symbol
_atom_site_fract_x
_atom_site_fract_y
_atom_site_fract_z
_atom_site_U_iso_or_equiv
_atom_site_adp_type
_atom_site_occupancy
V1     V     0.66259   0.50353   0.20691   0.01267  Uiso   1.00
V2     V     0.08728   0.49904   0.79766   0.01267  Uiso   1.00
V3     V     0.65354   0.37736   0.43356   0.01267  Uiso   1.00
V4     V     0.37303   0.49647   0.79309   0.01267  Uiso   1.00
V5     V     0.38398   0.50096   0.20234   0.01267  Uiso   1.00
V6     V     0.46446   0.62264   0.56644   0.01267  Uiso   1.00
V7     V     0.86950   0.79309   0.50353   0.01267  Uiso   1.00
V8     V     0.88494   0.20234   0.49904   0.01267  Uiso   1.00
V9     V     0.08710   0.56644   0.37736   0.01267  Uiso   1.00
V10    V     0.16612   0.20691   0.49647   0.01267  Uiso   1.00
V11    V     0.58632   0.79766   0.50096   0.01267  Uiso   1.00
V12    V     0.03090   0.43356   0.62264   0.01267  Uiso   1.00
Ni1    Ni    0.95433   0.33243   0.00227   0.01267  Uiso   1.00
Ni2    Ni    0.62662   0.22877   0.76867   0.01267  Uiso   1.00
Ni3    Ni    0.28903   0.66757   0.99773   0.01267  Uiso   1.00
Ni4    Ni    0.62406   0.77123   0.23133   0.01267  Uiso   1.00
Ni5    Ni    0.95660   0.99773   0.33243   0.01267  Uiso   1.00
Ni6    Ni    0.39529   0.23133   0.22877   0.01267  Uiso   1.00
Ni7    Ni    0.28676   0.00227   0.66757   0.01267  Uiso   1.00
Ni8    Ni    0.85539   0.76867   0.77123   0.01267  Uiso   1.00
H1     H     0.66710   0.44480   0.99060   0.01267  Uiso   1.00
H2     H     0.56520   0.39950   0.91410   0.01267  Uiso   1.00
H3     H     0.89740   0.16010   0.76830   0.01267  Uiso   1.00
H4     H     0.07570   0.32000   0.30720   0.01267  Uiso   1.00
H5     H     0.93890   0.34800   0.22340   0.01267  Uiso   1.00
H6     H     0.23990   0.28660   0.94580   0.01267  Uiso   1.00
H7     H     0.10250   0.55520   0.00940   0.01267  Uiso   1.00
H8     H     0.87880   0.60050   0.08590   0.01267  Uiso   1.00
H9     H     0.82580   0.83990   0.23170   0.01267  Uiso   1.00
H10    H     0.70290   0.68000   0.69280   0.01267  Uiso   1.00
H11    H     0.51030   0.65200   0.77660   0.01267  Uiso   1.00
H12    H     0.47230   0.71340   0.05420   0.01267  Uiso   1.00
H13    H     0.65770   0.00940   0.44480   0.01267  Uiso   1.00
H14    H     0.47930   0.08590   0.39950   0.01267  Uiso   1.00
H15    H     0.66570   0.23170   0.16010   0.01267  Uiso   1.00
H16    H     0.38290   0.69280   0.32000   0.01267  Uiso   1.00
H17    H     0.16230   0.77660   0.34800   0.01267  Uiso   1.00
H18    H     0.18570   0.05420   0.28660   0.01267  Uiso   1.00
H19    H     0.11190   0.99060   0.55520   0.01267  Uiso   1.00
H20    H     0.96470   0.91410   0.60050   0.01267  Uiso   1.00
H21    H     0.05750   0.76830   0.83990   0.01267  Uiso   1.00
H22    H     0.39570   0.30720   0.68000   0.01267  Uiso   1.00
H23    H     0.28690   0.22340   0.65200   0.01267  Uiso   1.00
H24    H     0.52650   0.94580   0.71340   0.01267  Uiso   1.00
C1     C     0.71520   0.38500   0.94640   0.01267  Uiso   1.00
C2     C     0.65430   0.35800   0.89980   0.01267  Uiso   1.00
C3     C     0.84750   0.21810   0.81490   0.01267  Uiso   1.00
C4     C     0.90690   0.24530   0.86190   0.01267  Uiso   1.00
C5     C     0.05410   0.18280   0.84060   0.01267  Uiso   1.00
C6     C     0.11120   0.31270   0.23330   0.01267  Uiso   1.00
C7     C     0.02910   0.32930   0.18230   0.01267  Uiso   1.00
C8     C     0.20480   0.29300   0.01980   0.01267  Uiso   1.00
C9     C     0.28970   0.27490   0.07010   0.01267  Uiso   1.00
C10    C     0.43420   0.24120   0.01140   0.01267  Uiso   1.00
C11    C     0.04660   0.61500   0.05360   0.01267  Uiso   1.00
C12    C     0.91210   0.64200   0.10020   0.01267  Uiso   1.00
C13    C     0.88050   0.78190   0.18510   0.01267  Uiso   1.00
C14    C     0.01410   0.75470   0.13810   0.01267  Uiso   1.00
C15    C     0.07750   0.81720   0.15940   0.01267  Uiso   1.00
C16    C     0.65720   0.68730   0.76670   0.01267  Uiso   1.00
C17    C     0.54070   0.67070   0.81770   0.01267  Uiso   1.00
C18    C     0.51760   0.70700   0.98020   0.01267  Uiso   1.00
C19    C     0.63470   0.72510   0.92990   0.01267  Uiso   1.00
C20    C     0.68680   0.75880   0.98860   0.01267  Uiso   1.00
C21    C     0.66160   0.05360   0.38500   0.01267  Uiso   1.00
C22    C     0.55410   0.10020   0.35800   0.01267  Uiso   1.00
C23    C     0.66240   0.18510   0.21810   0.01267  Uiso   1.00
C24    C     0.76880   0.13810   0.24530   0.01267  Uiso   1.00
C25    C     0.89470   0.15940   0.18280   0.01267  Uiso   1.00
C26    C     0.34450   0.76670   0.31270   0.01267  Uiso   1.00
C27    C     0.21140   0.81770   0.32930   0.01267  Uiso   1.00
C28    C     0.22460   0.98020   0.29300   0.01267  Uiso   1.00
C29    C     0.35980   0.92990   0.27490   0.01267  Uiso   1.00
C30    C     0.44560   0.98860   0.24120   0.01267  Uiso   1.00
C31    C     0.10020   0.94640   0.61500   0.01267  Uiso   1.00
C32    C     0.01230   0.89980   0.64200   0.01267  Uiso   1.00
C33    C     0.06560   0.81490   0.78190   0.01267  Uiso   1.00
C34    C     0.15220   0.86190   0.75470   0.01267  Uiso   1.00
C35    C     0.23690   0.84060   0.81720   0.01267  Uiso   1.00
C36    C     0.42390   0.23330   0.68730   0.01267  Uiso   1.00
C37    C     0.35840   0.18230   0.67070   0.01267  Uiso   1.00
C38    C     0.49780   0.01980   0.70700   0.01267  Uiso   1.00
C39    C     0.56460   0.07010   0.72510   0.01267  Uiso   1.00
C40    C     0.67540   0.01140   0.75880   0.01267  Uiso   1.00
N1     N     0.84400   0.32590   0.92870   0.01267  Uiso   1.00
N2     N     0.71980   0.27300   0.83420   0.01267  Uiso   1.00
N3     N     0.23980   0.28660   0.17680   0.01267  Uiso   1.00
N4     N     0.07490   0.31920   0.07600   0.01267  Uiso   1.00
N5     N     0.09860   0.67410   0.07130   0.01267  Uiso   1.00
N6     N     0.82700   0.72700   0.16580   0.01267  Uiso   1.00
N7     N     0.70320   0.71340   0.82320   0.01267  Uiso   1.00
N8     N     0.47010   0.68080   0.92400   0.01267  Uiso   1.00
N9     N     0.77270   0.07130   0.32590   0.01267  Uiso   1.00
N10    N     0.55400   0.16580   0.27300   0.01267  Uiso   1.00
N11    N     0.41660   0.82320   0.28660   0.01267  Uiso   1.00
N12    N     0.15090   0.92400   0.31920   0.01267  Uiso   1.00
N13    N     0.16990   0.92870   0.67410   0.01267  Uiso   1.00
N14    N     0.99280   0.83420   0.72700   0.01267  Uiso   1.00
N15    N     0.52640   0.17680   0.71340   0.01267  Uiso   1.00
N16    N     0.39410   0.07600   0.68080   0.01267  Uiso   1.00
O1     O     0.09780   0.21150   0.89170   0.01267  Uiso   1.00
O2     O     0.11640   0.10950   0.77290   0.01267  Uiso   1.00
O3     O     0.50450   0.21570   0.06470   0.01267  Uiso   1.00
O4     O     0.47220   0.24230   0.91130   0.01267  Uiso   1.00
O5     O     0.79800   0.46130   0.09850   0.01267  Uiso   1.00
O6     O     0.51150   0.38800   0.74560   0.01267  Uiso   1.00
O7     O     0.67540   0.39660   0.30040   0.01267  Uiso   1.00
O8     O     0.52170   0.52890   0.18330   0.01267  Uiso   1.00
O9     O     0.99920   0.44810   0.89970   0.01267  Uiso   1.00
O10    O     0.78310   0.21480   0.62660   0.01267  Uiso   1.00
O11    O     0.13630   0.43240   0.67660   0.01267  Uiso   1.00
O12    O     0.20100   0.78850   0.10830   0.01267  Uiso   1.00
O13    O     0.99880   0.89050   0.22710   0.01267  Uiso   1.00
O14    O     0.78490   0.78430   0.93530   0.01267  Uiso   1.00
O15    O     0.62580   0.75770   0.08870   0.01267  Uiso   1.00
O16    O     0.35780   0.53870   0.90150   0.01267  Uiso   1.00
O17    O     0.64510   0.61200   0.25440   0.01267  Uiso   1.00
O18    O     0.37240   0.60340   0.69960   0.01267  Uiso   1.00
O19    O     0.23390   0.47110   0.81670   0.01267  Uiso   1.00
O20    O     0.34700   0.55190   0.10030   0.01267  Uiso   1.00
O21    O     0.62450   0.78520   0.37340   0.01267  Uiso   1.00
O22    O     0.24530   0.56760   0.32340   0.01267  Uiso   1.00
O23    O     0.98950   0.10830   0.21150   0.01267  Uiso   1.00
O24    O     0.88930   0.22710   0.10950   0.01267  Uiso   1.00
O25    O     0.56920   0.93530   0.21570   0.01267  Uiso   1.00
O26    O     0.38350   0.08870   0.24230   0.01267  Uiso   1.00
O27    O     0.89650   0.90150   0.46130   0.01267  Uiso   1.00
O28    O     0.25710   0.25440   0.38800   0.01267  Uiso   1.00
O29    O     0.97580   0.69960   0.39660   0.01267  Uiso   1.00
O30    O     0.70500   0.81670   0.52890   0.01267  Uiso   1.00
O31    O     0.89890   0.10030   0.44810   0.01267  Uiso   1.00
O32    O     0.40970   0.37340   0.21480   0.01267  Uiso   1.00
O33    O     0.81290   0.32340   0.43240   0.01267  Uiso   1.00
O34    O     0.30930   0.89170   0.78850   0.01267  Uiso   1.00
O35    O     0.22590   0.77290   0.89050   0.01267  Uiso   1.00
O36    O     0.72020   0.06470   0.78430   0.01267  Uiso   1.00
O37    O     0.71450   0.91130   0.75770   0.01267  Uiso   1.00
O38    O     0.25930   0.09850   0.53870   0.01267  Uiso   1.00
O39    O     0.89950   0.74560   0.61200   0.01267  Uiso   1.00
O40    O     0.07200   0.30040   0.60340   0.01267  Uiso   1.00
O41    O     0.05060   0.18330   0.47110   0.01267  Uiso   1.00
O42    O     0.44730   0.89970   0.55190   0.01267  Uiso   1.00
O43    O     0.99790   0.62660   0.78520   0.01267  Uiso   1.00
O44    O     0.56870   0.67660   0.56760   0.01267  Uiso   1.00
O45    O     0.54960   0.50000   0.50000   0.01267  Uiso   1.00
O46    O     0.04960   0.50000   0.50000   0.01267  Uiso   1.00
