data_WOWMAY_clean
_audit_creation_date              2015-10-16
_audit_creation_method            'Materials Studio'
_symmetry_space_group_name_H-M    'P1'
_symmetry_Int_Tables_number       1
_symmetry_cell_setting            triclinic
loop_
_symmetry_equiv_pos_as_xyz
  x,y,z
_cell_length_a                    10.8140
_cell_length_b                    11.5230
_cell_length_c                    12.6159
_cell_angle_alpha                 110.5170
_cell_angle_beta                  115.3780
_cell_angle_gamma                 90.0000
loop_
_atom_site_label
_atom_site_type_symbol
_atom_site_fract_x
_atom_site_fract_y
_atom_site_fract_z
_atom_site_U_iso_or_equiv
_atom_site_adp_type
_atom_site_occupancy
Ni1    Ni    0.90294   0.06273   0.64344   0.01267  Uiso   1.00
Ni2    Ni    0.74050   0.56273   0.64344   0.01267  Uiso   1.00
Ni3    Ni    0.25950   0.43727   0.35656   0.01267  Uiso   1.00
Ni4    Ni    0.09706   0.93727   0.35656   0.01267  Uiso   1.00
H1     H     0.59680   0.78570   0.21020   0.01267  Uiso   1.00
H2     H     0.96070   0.67460   0.13520   0.01267  Uiso   1.00
H3     H     0.26890   0.18830   0.43140   0.01267  Uiso   1.00
H4     H     0.21330   0.43250   0.57560   0.01267  Uiso   1.00
H5     H     0.36230   0.93250   0.57560   0.01267  Uiso   1.00
H6     H     0.38150   0.91260   0.93300   0.01267  Uiso   1.00
H7     H     0.73180   0.96760   0.97300   0.01267  Uiso   1.00
H8     H     0.82550   0.82540   0.86480   0.01267  Uiso   1.00
H9     H     0.61850   0.08740   0.06700   0.01267  Uiso   1.00
H10    H     0.83750   0.31170   0.56860   0.01267  Uiso   1.00
H11    H     0.80440   0.91750   0.31800   0.01267  Uiso   1.00
H12    H     0.63770   0.06750   0.42440   0.01267  Uiso   1.00
H13    H     0.16250   0.68830   0.43140   0.01267  Uiso   1.00
H14    H     0.41400   0.95950   0.28860   0.01267  Uiso   1.00
H15    H     0.40320   0.21430   0.78980   0.01267  Uiso   1.00
H16    H     0.12540   0.54050   0.71140   0.01267  Uiso   1.00
H17    H     0.38660   0.71430   0.78980   0.01267  Uiso   1.00
H18    H     0.55150   0.41260   0.93300   0.01267  Uiso   1.00
H19    H     0.78670   0.56750   0.42440   0.01267  Uiso   1.00
H20    H     0.51360   0.41750   0.31800   0.01267  Uiso   1.00
H21    H     0.87460   0.45950   0.28860   0.01267  Uiso   1.00
H22    H     0.17450   0.17460   0.13520   0.01267  Uiso   1.00
H23    H     0.26820   0.03240   0.02700   0.01267  Uiso   1.00
H24    H     0.75880   0.53240   0.02700   0.01267  Uiso   1.00
H25    H     0.58600   0.04050   0.71140   0.01267  Uiso   1.00
H26    H     0.61340   0.28570   0.21020   0.01267  Uiso   1.00
H27    H     0.44850   0.58740   0.06700   0.01267  Uiso   1.00
H28    H     0.73110   0.81170   0.56860   0.01267  Uiso   1.00
H29    H     0.24120   0.46760   0.97300   0.01267  Uiso   1.00
H30    H     0.19560   0.08250   0.68200   0.01267  Uiso   1.00
H31    H     0.03930   0.32540   0.86480   0.01267  Uiso   1.00
H32    H     0.48640   0.58250   0.68200   0.01267  Uiso   1.00
C1     C     0.84686   0.34221   0.51272   0.01267  Uiso   1.00
C2     C     0.32102   0.11120   0.08564   0.01267  Uiso   1.00
C3     C     0.02067   0.75066   0.73642   0.01267  Uiso   1.00
C4     C     0.47304   0.94300   0.95672   0.01267  Uiso   1.00
C5     C     0.23538   0.38880   0.91436   0.01267  Uiso   1.00
C6     C     0.18312   0.50734   0.57218   0.01267  Uiso   1.00
C7     C     0.34891   0.35840   0.89358   0.01267  Uiso   1.00
C8     C     0.50038   0.64869   0.44294   0.01267  Uiso   1.00
C9     C     0.97933   0.24934   0.26358   0.01267  Uiso   1.00
C10    C     0.52341   0.25900   0.19348   0.01267  Uiso   1.00
C11    C     0.66586   0.84221   0.51272   0.01267  Uiso   1.00
C12    C     0.65109   0.64160   0.10642   0.01267  Uiso   1.00
C13    C     0.32993   0.24100   0.80652   0.01267  Uiso   1.00
C14    C     0.26538   0.19751   0.15182   0.01267  Uiso   1.00
C15    C     0.46794   0.22859   0.56590   0.01267  Uiso   1.00
C16    C     0.53206   0.77141   0.43410   0.01267  Uiso   1.00
C17    C     0.54467   0.85840   0.89358   0.01267  Uiso   1.00
C18    C     0.38906   0.00734   0.57218   0.01267  Uiso   1.00
C19    C     0.90204   0.27141   0.43410   0.01267  Uiso   1.00
C20    C     0.71575   0.25066   0.73642   0.01267  Uiso   1.00
C21    C     0.15314   0.65779   0.48728   0.01267  Uiso   1.00
C22    C     0.47659   0.74100   0.80652   0.01267  Uiso   1.00
C23    C     0.09796   0.72859   0.56590   0.01267  Uiso   1.00
C24    C     0.49962   0.35131   0.55706   0.01267  Uiso   1.00
C25    C     0.28425   0.74934   0.26358   0.01267  Uiso   1.00
C26    C     0.94256   0.14869   0.44294   0.01267  Uiso   1.00
C27    C     0.12992   0.57165   0.65412   0.01267  Uiso   1.00
C28    C     0.52696   0.05700   0.04328   0.01267  Uiso   1.00
C29    C     0.87008   0.42835   0.34588   0.01267  Uiso   1.00
C30    C     0.79556   0.83900   0.25732   0.01267  Uiso   1.00
C31    C     0.67898   0.88880   0.91436   0.01267  Uiso   1.00
C32    C     0.43343   0.81645   0.35008   0.01267  Uiso   1.00
C33    C     0.11356   0.30249   0.84818   0.01267  Uiso   1.00
C34    C     0.91665   0.31645   0.35008   0.01267  Uiso   1.00
C35    C     0.56657   0.18355   0.64992   0.01267  Uiso   1.00
C36    C     0.76462   0.61120   0.08564   0.01267  Uiso   1.00
C37    C     0.33414   0.15779   0.48728   0.01267  Uiso   1.00
C38    C     0.46176   0.33900   0.25732   0.01267  Uiso   1.00
C39    C     0.20444   0.16100   0.74268   0.01267  Uiso   1.00
C40    C     0.52420   0.07165   0.65412   0.01267  Uiso   1.00
C41    C     0.47580   0.92835   0.34588   0.01267  Uiso   1.00
C42    C     0.81688   0.49266   0.42782   0.01267  Uiso   1.00
C43    C     0.48368   0.44300   0.95672   0.01267  Uiso   1.00
C44    C     0.45533   0.14160   0.10642   0.01267  Uiso   1.00
C45    C     0.73462   0.80249   0.84818   0.01267  Uiso   1.00
C46    C     0.51632   0.55700   0.04328   0.01267  Uiso   1.00
C47    C     0.05744   0.85131   0.55706   0.01267  Uiso   1.00
C48    C     0.88644   0.69751   0.15182   0.01267  Uiso   1.00
C49    C     0.08335   0.68355   0.64992   0.01267  Uiso   1.00
C50    C     0.53824   0.66100   0.74268   0.01267  Uiso   1.00
C51    C     0.61094   0.99266   0.42782   0.01267  Uiso   1.00
C52    C     0.67007   0.75900   0.19348   0.01267  Uiso   1.00
N1     N     0.70500   0.95185   0.51182   0.01267  Uiso   1.00
N2     N     0.09571   0.18837   0.76188   0.01267  Uiso   1.00
N3     N     0.33383   0.31163   0.23812   0.01267  Uiso   1.00
N4     N     0.90429   0.81163   0.23812   0.01267  Uiso   1.00
N5     N     0.19318   0.54815   0.48818   0.01267  Uiso   1.00
N6     N     0.80682   0.45185   0.51182   0.01267  Uiso   1.00
N7     N     0.66617   0.68837   0.76188   0.01267  Uiso   1.00
N8     N     0.29500   0.04815   0.48818   0.01267  Uiso   1.00
O1     O     0.37473   0.59928   0.38998   0.01267  Uiso   1.00
O2     O     0.89523   0.71291   0.69994   0.01267  Uiso   1.00
O3     O     0.39772   0.39579   0.50244   0.01267  Uiso   1.00
O4     O     0.98475   0.90072   0.61002   0.01267  Uiso   1.00
O5     O     0.01525   0.09928   0.38998   0.01267  Uiso   1.00
O6     O     0.60228   0.60421   0.49756   0.01267  Uiso   1.00
O7     O     0.74047   0.33683   0.84020   0.01267  Uiso   1.00
O8     O     0.62527   0.40072   0.61002   0.01267  Uiso   1.00
O9     O     0.09973   0.83683   0.84020   0.01267  Uiso   1.00
O10    O     0.19529   0.78709   0.30006   0.01267  Uiso   1.00
O11    O     0.25953   0.66317   0.15980   0.01267  Uiso   1.00
O12    O     0.10472   0.89579   0.50244   0.01267  Uiso   1.00
O13    O     0.89528   0.10421   0.49756   0.01267  Uiso   1.00
O14    O     0.10477   0.28709   0.30006   0.01267  Uiso   1.00
O15    O     0.80471   0.21291   0.69994   0.01267  Uiso   1.00
O16    O     0.90027   0.16317   0.15980   0.01267  Uiso   1.00
