data_image0
_cell_length_a       16.6549
_cell_length_b       6.3378
_cell_length_c       22.208
_cell_angle_alpha    90
_cell_angle_beta     94.862
_cell_angle_gamma    90

_symmetry_space_group_name_H-M    "P 1"
_symmetry_int_tables_number       1

loop_
  _symmetry_equiv_pos_as_xyz
  'x, y, z'

loop_
  _atom_site_label
  _atom_site_occupancy
  _atom_site_fract_x
  _atom_site_fract_y
  _atom_site_fract_z
  _atom_site_thermal_displace_type
  _atom_site_B_iso_or_equiv
  _atom_site_type_symbol
  Ti1      1.0000 0.28270  0.00700  0.57530  Biso   1.000  Ti
  Ti2      1.0000 0.35950  0.99780  0.80110  Biso   1.000  Ti
  P1       1.0000 0.23060  0.50160  0.56910  Biso   1.000  P
  P2       1.0000 0.44240  0.92760  0.66690  Biso   1.000  P
  P3       1.0000 0.19560  0.00070  0.70640  Biso   1.000  P
  F1       1.0000 0.17590  0.01580  0.54460  Biso   1.000  F
  O1       1.0000 0.28760  0.31210  0.57720  Biso   1.000  O
  O2       1.0000 0.24850  0.99830  0.65380  Biso   1.000  O
  O3       1.0000 0.28260  0.70020  0.57250  Biso   1.000  O
  O4       1.0000 0.18210  0.48980  0.50720  Biso   1.000  O
  O5       1.0000 0.39480  0.99540  0.60800  Biso   1.000  O
  O6       1.0000 0.40500  0.00600  0.72270  Biso   1.000  O
  O7       1.0000 0.44070  0.68180  0.66380  Biso   1.000  O
  O8       1.0000 0.52880  0.00620  0.66500  Biso   1.000  O
  O9       1.0000 0.13960  0.80780  0.70350  Biso   1.000  O
  O10      1.0000 0.14040  0.19550  0.70300  Biso   1.000  O
  O11      1.0000 0.17160  0.50330  0.61860  Biso   1.000  O
  O12      1.0000 0.25010  0.00190  0.76560  Biso   1.000  O
  Ti3      1.0000 0.78270  0.50700  0.57530  Biso   1.000  Ti
  Ti4      1.0000 0.85950  0.49780  0.80110  Biso   1.000  Ti
  P4       1.0000 0.73060  0.00160  0.56910  Biso   1.000  P
  P5       1.0000 0.94240  0.42760  0.66690  Biso   1.000  P
  P6       1.0000 0.69560  0.50070  0.70640  Biso   1.000  P
  F2       1.0000 0.67590  0.51580  0.54460  Biso   1.000  F
  O13      1.0000 0.78760  0.81210  0.57720  Biso   1.000  O
  O14      1.0000 0.74850  0.49830  0.65380  Biso   1.000  O
  O15      1.0000 0.78260  0.20020  0.57250  Biso   1.000  O
  O16      1.0000 0.68210  0.98980  0.50720  Biso   1.000  O
  O17      1.0000 0.89480  0.49540  0.60800  Biso   1.000  O
  O18      1.0000 0.90500  0.50600  0.72270  Biso   1.000  O
  O19      1.0000 0.94070  0.18180  0.66380  Biso   1.000  O
  O20      1.0000 0.02880  0.50620  0.66500  Biso   1.000  O
  O21      1.0000 0.63960  0.30780  0.70350  Biso   1.000  O
  O22      1.0000 0.64040  0.69550  0.70300  Biso   1.000  O
  O23      1.0000 0.67160  0.00330  0.61860  Biso   1.000  O
  O24      1.0000 0.75010  0.50190  0.76560  Biso   1.000  O
  Ti5      1.0000 0.71730  0.00700  0.92470  Biso   1.000  Ti
  Ti6      1.0000 0.64050  0.99780  0.69890  Biso   1.000  Ti
  P7       1.0000 0.76940  0.50160  0.93090  Biso   1.000  P
  P8       1.0000 0.55760  0.92760  0.83310  Biso   1.000  P
  P9       1.0000 0.80440  0.00070  0.79360  Biso   1.000  P
  F3       1.0000 0.82410  0.01580  0.95540  Biso   1.000  F
  O25      1.0000 0.71240  0.31210  0.92280  Biso   1.000  O
  O26      1.0000 0.75150  0.99830  0.84620  Biso   1.000  O
  O27      1.0000 0.71740  0.70020  0.92750  Biso   1.000  O
  O28      1.0000 0.81790  0.48980  0.99280  Biso   1.000  O
  O29      1.0000 0.60520  0.99540  0.89200  Biso   1.000  O
  O30      1.0000 0.59500  0.00600  0.77730  Biso   1.000  O
  O31      1.0000 0.55930  0.68180  0.83620  Biso   1.000  O
  O32      1.0000 0.47120  0.00620  0.83500  Biso   1.000  O
  O33      1.0000 0.86040  0.80780  0.79650  Biso   1.000  O
  O34      1.0000 0.85960  0.19550  0.79700  Biso   1.000  O
  O35      1.0000 0.82840  0.50330  0.88140  Biso   1.000  O
  O36      1.0000 0.74990  0.00190  0.73440  Biso   1.000  O
  Ti7      1.0000 0.21730  0.50700  0.92470  Biso   1.000  Ti
  Ti8      1.0000 0.14050  0.49780  0.69890  Biso   1.000  Ti
  P10      1.0000 0.26940  0.00160  0.93090  Biso   1.000  P
  P11      1.0000 0.05760  0.42760  0.83310  Biso   1.000  P
  P12      1.0000 0.30440  0.50070  0.79360  Biso   1.000  P
  F4       1.0000 0.32410  0.51580  0.95540  Biso   1.000  F
  O37      1.0000 0.21240  0.81210  0.92280  Biso   1.000  O
  O38      1.0000 0.25150  0.49830  0.84620  Biso   1.000  O
  O39      1.0000 0.21740  0.20020  0.92750  Biso   1.000  O
  O40      1.0000 0.31790  0.98980  0.99280  Biso   1.000  O
  O41      1.0000 0.10520  0.49540  0.89200  Biso   1.000  O
  O42      1.0000 0.09500  0.50600  0.77730  Biso   1.000  O
  O43      1.0000 0.05930  0.18180  0.83620  Biso   1.000  O
  O44      1.0000 0.97120  0.50620  0.83500  Biso   1.000  O
  O45      1.0000 0.36040  0.30780  0.79650  Biso   1.000  O
  O46      1.0000 0.35960  0.69550  0.79700  Biso   1.000  O
  O47      1.0000 0.32840  0.00330  0.88140  Biso   1.000  O
  O48      1.0000 0.24990  0.50190  0.73440  Biso   1.000  O
  Ti9      1.0000 0.71730  0.99300  0.42470  Biso   1.000  Ti
  Ti10     1.0000 0.64050  0.00220  0.19890  Biso   1.000  Ti
  P13      1.0000 0.76940  0.49840  0.43090  Biso   1.000  P
  P14      1.0000 0.55760  0.07240  0.33310  Biso   1.000  P
  P15      1.0000 0.80440  0.99930  0.29360  Biso   1.000  P
  F5       1.0000 0.82410  0.98420  0.45540  Biso   1.000  F
  O49      1.0000 0.71240  0.68790  0.42280  Biso   1.000  O
  O50      1.0000 0.75150  0.00170  0.34620  Biso   1.000  O
  O51      1.0000 0.71740  0.29980  0.42750  Biso   1.000  O
  O52      1.0000 0.81790  0.51020  0.49280  Biso   1.000  O
  O53      1.0000 0.60520  0.00460  0.39200  Biso   1.000  O
  O54      1.0000 0.59500  0.99400  0.27730  Biso   1.000  O
  O55      1.0000 0.55930  0.31820  0.33620  Biso   1.000  O
  O56      1.0000 0.47120  0.99380  0.33500  Biso   1.000  O
  O57      1.0000 0.86040  0.19220  0.29650  Biso   1.000  O
  O58      1.0000 0.85960  0.80450  0.29700  Biso   1.000  O
  O59      1.0000 0.82840  0.49670  0.38140  Biso   1.000  O
  O60      1.0000 0.74990  0.99810  0.23440  Biso   1.000  O
  Ti11     1.0000 0.21730  0.49300  0.42470  Biso   1.000  Ti
  Ti12     1.0000 0.14050  0.50220  0.19890  Biso   1.000  Ti
  P16      1.0000 0.26940  0.99840  0.43090  Biso   1.000  P
  P17      1.0000 0.05760  0.57240  0.33310  Biso   1.000  P
  P18      1.0000 0.30440  0.49930  0.29360  Biso   1.000  P
  F6       1.0000 0.32410  0.48420  0.45540  Biso   1.000  F
  O61      1.0000 0.21240  0.18790  0.42280  Biso   1.000  O
  O62      1.0000 0.25150  0.50170  0.34620  Biso   1.000  O
  O63      1.0000 0.21740  0.79980  0.42750  Biso   1.000  O
  O64      1.0000 0.31790  0.01020  0.49280  Biso   1.000  O
  O65      1.0000 0.10520  0.50460  0.39200  Biso   1.000  O
  O66      1.0000 0.09500  0.49400  0.27730  Biso   1.000  O
  O67      1.0000 0.05930  0.81820  0.33620  Biso   1.000  O
  O68      1.0000 0.97120  0.49380  0.33500  Biso   1.000  O
  O69      1.0000 0.36040  0.69220  0.29650  Biso   1.000  O
  O70      1.0000 0.35960  0.30450  0.29700  Biso   1.000  O
  O71      1.0000 0.32840  0.99670  0.38140  Biso   1.000  O
  O72      1.0000 0.24990  0.49810  0.23440  Biso   1.000  O
  Ti13     1.0000 0.28270  0.99300  0.07530  Biso   1.000  Ti
  Ti14     1.0000 0.35950  0.00220  0.30110  Biso   1.000  Ti
  P19      1.0000 0.23060  0.49840  0.06910  Biso   1.000  P
  P20      1.0000 0.44240  0.07240  0.16690  Biso   1.000  P
  P21      1.0000 0.19560  0.99930  0.20640  Biso   1.000  P
  F7       1.0000 0.17590  0.98420  0.04460  Biso   1.000  F
  O73      1.0000 0.28760  0.68790  0.07720  Biso   1.000  O
  O74      1.0000 0.24850  0.00170  0.15380  Biso   1.000  O
  O75      1.0000 0.28260  0.29980  0.07250  Biso   1.000  O
  O76      1.0000 0.18210  0.51020  0.00720  Biso   1.000  O
  O77      1.0000 0.39480  0.00460  0.10800  Biso   1.000  O
  O78      1.0000 0.40500  0.99400  0.22270  Biso   1.000  O
  O79      1.0000 0.44070  0.31820  0.16380  Biso   1.000  O
  O80      1.0000 0.52880  0.99380  0.16500  Biso   1.000  O
  O81      1.0000 0.13960  0.19220  0.20350  Biso   1.000  O
  O82      1.0000 0.14040  0.80450  0.20300  Biso   1.000  O
  O83      1.0000 0.17160  0.49670  0.11860  Biso   1.000  O
  O84      1.0000 0.25010  0.99810  0.26560  Biso   1.000  O
  Ti15     1.0000 0.78270  0.49300  0.07530  Biso   1.000  Ti
  Ti16     1.0000 0.85950  0.50220  0.30110  Biso   1.000  Ti
  P22      1.0000 0.73060  0.99840  0.06910  Biso   1.000  P
  P23      1.0000 0.94240  0.57240  0.16690  Biso   1.000  P
  P24      1.0000 0.69560  0.49930  0.20640  Biso   1.000  P
  F8       1.0000 0.67590  0.48420  0.04460  Biso   1.000  F
  O85      1.0000 0.78760  0.18790  0.07720  Biso   1.000  O
  O86      1.0000 0.74850  0.50170  0.15380  Biso   1.000  O
  O87      1.0000 0.78260  0.79980  0.07250  Biso   1.000  O
  O88      1.0000 0.68210  0.01020  0.00720  Biso   1.000  O
  O89      1.0000 0.89480  0.50460  0.10800  Biso   1.000  O
  O90      1.0000 0.90500  0.49400  0.22270  Biso   1.000  O
  O91      1.0000 0.94070  0.81820  0.16380  Biso   1.000  O
  O92      1.0000 0.02880  0.49380  0.16500  Biso   1.000  O
  O93      1.0000 0.63960  0.69220  0.20350  Biso   1.000  O
  O94      1.0000 0.64040  0.30450  0.20300  Biso   1.000  O
  O95      1.0000 0.67160  0.99670  0.11860  Biso   1.000  O
  O96      1.0000 0.75010  0.49810  0.26560  Biso   1.000  O
