data_image0
_cell_length_a       17.7349
_cell_length_b       17.7349
_cell_length_c       28.1732
_cell_angle_alpha    90
_cell_angle_beta     90
_cell_angle_gamma    90

_symmetry_space_group_name_H-M    "P 1"
_symmetry_int_tables_number       1

loop_
  _symmetry_equiv_pos_as_xyz
  'x, y, z'

loop_
  _atom_site_label
  _atom_site_occupancy
  _atom_site_fract_x
  _atom_site_fract_y
  _atom_site_fract_z
  _atom_site_thermal_displace_type
  _atom_site_B_iso_or_equiv
  _atom_site_type_symbol
  C1       1.0000 0.46360  0.18510  0.07981  Biso   1.000  C
  C2       1.0000 0.41480  0.18620  0.11809  Biso   1.000  C
  H1       1.0000 0.38760  0.14180  0.12600  Biso   1.000  H
  C3       1.0000 0.44450  0.31600  0.13324  Biso   1.000  C
  H2       1.0000 0.43830  0.36090  0.15120  Biso   1.000  H
  C4       1.0000 0.49180  0.31380  0.09561  Biso   1.000  C
  C5       1.0000 0.50230  0.25000  0.06850  Biso   1.000  C
  H3       1.0000 0.53600  0.25080  0.04230  Biso   1.000  H
  C6       1.0000 0.53550  0.41240  0.03920  Biso   1.000  C
  H4       1.0000 0.50390  0.39930  0.01330  Biso   1.000  H
  C7       1.0000 0.35030  0.25080  0.18547  Biso   1.000  C
  C8       1.0000 0.47470  0.11560  0.05055  Biso   1.000  C
  C9       1.0000 0.40480  0.25030  0.14510  Biso   1.000  C
  N1       1.0000 0.53480  0.38060  0.08287  Biso   1.000  N
  O1       1.0000 0.51200  0.12238  0.01354  Biso   1.000  O
  O2       1.0000 0.44496  0.05594  0.06626  Biso   1.000  O
  O3       1.0000 0.31736  0.18975  0.19427  Biso   1.000  O
  O4       1.0000 0.33925  0.31238  0.20667  Biso   1.000  O
  C10      1.0000 0.03640  0.31490  0.07981  Biso   1.000  C
  C11      1.0000 0.08520  0.31380  0.11809  Biso   1.000  C
  H5       1.0000 0.11240  0.35820  0.12600  Biso   1.000  H
  C12      1.0000 0.05550  0.18400  0.13324  Biso   1.000  C
  H6       1.0000 0.06170  0.13910  0.15120  Biso   1.000  H
  C13      1.0000 0.00820  0.18620  0.09561  Biso   1.000  C
  C14      1.0000 0.99770  0.25000  0.06850  Biso   1.000  C
  H7       1.0000 0.96400  0.24920  0.04230  Biso   1.000  H
  C15      1.0000 0.96450  0.08760  0.03920  Biso   1.000  C
  H8       1.0000 0.99610  0.10070  0.01330  Biso   1.000  H
  C16      1.0000 0.14970  0.24920  0.18547  Biso   1.000  C
  C17      1.0000 0.02530  0.38440  0.05055  Biso   1.000  C
  C18      1.0000 0.09520  0.24970  0.14510  Biso   1.000  C
  N2       1.0000 0.96520  0.11940  0.08287  Biso   1.000  N
  O5       1.0000 0.98800  0.37762  0.01354  Biso   1.000  O
  O6       1.0000 0.05504  0.44406  0.06626  Biso   1.000  O
  O7       1.0000 0.18264  0.31025  0.19427  Biso   1.000  O
  O8       1.0000 0.16075  0.18762  0.20667  Biso   1.000  O
  C19      1.0000 0.31490  0.46360  0.57981  Biso   1.000  C
  C20      1.0000 0.31380  0.41480  0.61809  Biso   1.000  C
  H9       1.0000 0.35820  0.38760  0.62600  Biso   1.000  H
  C21      1.0000 0.18400  0.44450  0.63324  Biso   1.000  C
  H10      1.0000 0.13910  0.43830  0.65120  Biso   1.000  H
  C22      1.0000 0.18620  0.49180  0.59561  Biso   1.000  C
  C23      1.0000 0.25000  0.50230  0.56850  Biso   1.000  C
  H11      1.0000 0.24920  0.53600  0.54230  Biso   1.000  H
  C24      1.0000 0.08760  0.53550  0.53920  Biso   1.000  C
  H12      1.0000 0.10070  0.50390  0.51330  Biso   1.000  H
  C25      1.0000 0.24920  0.35030  0.68547  Biso   1.000  C
  C26      1.0000 0.38440  0.47470  0.55055  Biso   1.000  C
  C27      1.0000 0.24970  0.40480  0.64510  Biso   1.000  C
  N3       1.0000 0.11940  0.53480  0.58287  Biso   1.000  N
  O9       1.0000 0.37762  0.51200  0.51354  Biso   1.000  O
  O10      1.0000 0.44406  0.44496  0.56626  Biso   1.000  O
  O11      1.0000 0.31025  0.31736  0.69427  Biso   1.000  O
  O12      1.0000 0.18762  0.33925  0.70667  Biso   1.000  O
  C28      1.0000 0.18510  0.03640  0.57981  Biso   1.000  C
  C29      1.0000 0.18620  0.08520  0.61809  Biso   1.000  C
  H13      1.0000 0.14180  0.11240  0.62600  Biso   1.000  H
  C30      1.0000 0.31600  0.05550  0.63324  Biso   1.000  C
  H14      1.0000 0.36090  0.06170  0.65120  Biso   1.000  H
  C31      1.0000 0.31380  0.00820  0.59561  Biso   1.000  C
  C32      1.0000 0.25000  0.99770  0.56850  Biso   1.000  C
  H15      1.0000 0.25080  0.96400  0.54230  Biso   1.000  H
  C33      1.0000 0.41240  0.96450  0.53920  Biso   1.000  C
  H16      1.0000 0.39930  0.99610  0.51330  Biso   1.000  H
  C34      1.0000 0.25080  0.14970  0.68547  Biso   1.000  C
  C35      1.0000 0.11560  0.02530  0.55055  Biso   1.000  C
  C36      1.0000 0.25030  0.09520  0.64510  Biso   1.000  C
  N4       1.0000 0.38060  0.96520  0.58287  Biso   1.000  N
  O13      1.0000 0.12238  0.98800  0.51354  Biso   1.000  O
  O14      1.0000 0.05594  0.05504  0.56626  Biso   1.000  O
  O15      1.0000 0.18975  0.18264  0.69427  Biso   1.000  O
  O16      1.0000 0.31238  0.16075  0.70667  Biso   1.000  O
  C37      1.0000 0.03640  0.18510  0.42019  Biso   1.000  C
  C38      1.0000 0.08520  0.18620  0.38191  Biso   1.000  C
  H17      1.0000 0.11240  0.14180  0.37400  Biso   1.000  H
  C39      1.0000 0.05550  0.31600  0.36676  Biso   1.000  C
  H18      1.0000 0.06170  0.36090  0.34880  Biso   1.000  H
  C40      1.0000 0.00820  0.31380  0.40439  Biso   1.000  C
  C41      1.0000 0.99770  0.25000  0.43150  Biso   1.000  C
  H19      1.0000 0.96400  0.25080  0.45770  Biso   1.000  H
  C42      1.0000 0.96450  0.41240  0.46080  Biso   1.000  C
  H20      1.0000 0.99610  0.39930  0.48670  Biso   1.000  H
  C43      1.0000 0.14970  0.25080  0.31453  Biso   1.000  C
  C44      1.0000 0.02530  0.11560  0.44945  Biso   1.000  C
  C45      1.0000 0.09520  0.25030  0.35490  Biso   1.000  C
  N5       1.0000 0.96520  0.38060  0.41713  Biso   1.000  N
  O17      1.0000 0.98800  0.12238  0.48646  Biso   1.000  O
  O18      1.0000 0.05504  0.05594  0.43374  Biso   1.000  O
  O19      1.0000 0.18264  0.18975  0.30573  Biso   1.000  O
  O20      1.0000 0.16075  0.31238  0.29333  Biso   1.000  O
  C46      1.0000 0.46360  0.31490  0.42019  Biso   1.000  C
  C47      1.0000 0.41480  0.31380  0.38191  Biso   1.000  C
  H21      1.0000 0.38760  0.35820  0.37400  Biso   1.000  H
  C48      1.0000 0.44450  0.18400  0.36676  Biso   1.000  C
  H22      1.0000 0.43830  0.13910  0.34880  Biso   1.000  H
  C49      1.0000 0.49180  0.18620  0.40439  Biso   1.000  C
  C50      1.0000 0.50230  0.25000  0.43150  Biso   1.000  C
  H23      1.0000 0.53600  0.24920  0.45770  Biso   1.000  H
  C51      1.0000 0.53550  0.08760  0.46080  Biso   1.000  C
  H24      1.0000 0.50390  0.10070  0.48670  Biso   1.000  H
  C52      1.0000 0.35030  0.24920  0.31453  Biso   1.000  C
  C53      1.0000 0.47470  0.38440  0.44945  Biso   1.000  C
  C54      1.0000 0.40480  0.24970  0.35490  Biso   1.000  C
  N6       1.0000 0.53480  0.11940  0.41713  Biso   1.000  N
  O21      1.0000 0.51200  0.37762  0.48646  Biso   1.000  O
  O22      1.0000 0.44496  0.44406  0.43374  Biso   1.000  O
  O23      1.0000 0.31736  0.31025  0.30573  Biso   1.000  O
  O24      1.0000 0.33925  0.18762  0.29333  Biso   1.000  O
  C55      1.0000 0.18510  0.46360  0.92019  Biso   1.000  C
  C56      1.0000 0.18620  0.41480  0.88191  Biso   1.000  C
  H25      1.0000 0.14180  0.38760  0.87400  Biso   1.000  H
  C57      1.0000 0.31600  0.44450  0.86676  Biso   1.000  C
  H26      1.0000 0.36090  0.43830  0.84880  Biso   1.000  H
  C58      1.0000 0.31380  0.49180  0.90439  Biso   1.000  C
  C59      1.0000 0.25000  0.50230  0.93150  Biso   1.000  C
  H27      1.0000 0.25080  0.53600  0.95770  Biso   1.000  H
  C60      1.0000 0.41240  0.53550  0.96080  Biso   1.000  C
  H28      1.0000 0.39930  0.50390  0.98670  Biso   1.000  H
  C61      1.0000 0.25080  0.35030  0.81453  Biso   1.000  C
  C62      1.0000 0.11560  0.47470  0.94945  Biso   1.000  C
  C63      1.0000 0.25030  0.40480  0.85490  Biso   1.000  C
  N7       1.0000 0.38060  0.53480  0.91713  Biso   1.000  N
  O25      1.0000 0.12238  0.51200  0.98646  Biso   1.000  O
  O26      1.0000 0.05594  0.44496  0.93374  Biso   1.000  O
  O27      1.0000 0.18975  0.31736  0.80573  Biso   1.000  O
  O28      1.0000 0.31238  0.33925  0.79333  Biso   1.000  O
  C64      1.0000 0.31490  0.03640  0.92019  Biso   1.000  C
  C65      1.0000 0.31380  0.08520  0.88191  Biso   1.000  C
  H29      1.0000 0.35820  0.11240  0.87400  Biso   1.000  H
  C66      1.0000 0.18400  0.05550  0.86676  Biso   1.000  C
  H30      1.0000 0.13910  0.06170  0.84880  Biso   1.000  H
  C67      1.0000 0.18620  0.00820  0.90439  Biso   1.000  C
  C68      1.0000 0.25000  0.99770  0.93150  Biso   1.000  C
  H31      1.0000 0.24920  0.96400  0.95770  Biso   1.000  H
  C69      1.0000 0.08760  0.96450  0.96080  Biso   1.000  C
  H32      1.0000 0.10070  0.99610  0.98670  Biso   1.000  H
  C70      1.0000 0.24920  0.14970  0.81453  Biso   1.000  C
  C71      1.0000 0.38440  0.02530  0.94945  Biso   1.000  C
  C72      1.0000 0.24970  0.09520  0.85490  Biso   1.000  C
  N8       1.0000 0.11940  0.96520  0.91713  Biso   1.000  N
  O29      1.0000 0.37762  0.98800  0.98646  Biso   1.000  O
  O30      1.0000 0.44406  0.05504  0.93374  Biso   1.000  O
  O31      1.0000 0.31025  0.18264  0.80573  Biso   1.000  O
  O32      1.0000 0.18762  0.16075  0.79333  Biso   1.000  O
  C73      1.0000 0.53640  0.81490  0.92019  Biso   1.000  C
  C74      1.0000 0.58520  0.81380  0.88191  Biso   1.000  C
  H33      1.0000 0.61240  0.85820  0.87400  Biso   1.000  H
  C75      1.0000 0.55550  0.68400  0.86676  Biso   1.000  C
  H34      1.0000 0.56170  0.63910  0.84880  Biso   1.000  H
  C76      1.0000 0.50820  0.68620  0.90439  Biso   1.000  C
  C77      1.0000 0.49770  0.75000  0.93150  Biso   1.000  C
  H35      1.0000 0.46400  0.74920  0.95770  Biso   1.000  H
  C78      1.0000 0.46450  0.58760  0.96080  Biso   1.000  C
  H36      1.0000 0.49610  0.60070  0.98670  Biso   1.000  H
  C79      1.0000 0.64970  0.74920  0.81453  Biso   1.000  C
  C80      1.0000 0.52530  0.88440  0.94945  Biso   1.000  C
  C81      1.0000 0.59520  0.74970  0.85490  Biso   1.000  C
  N9       1.0000 0.46520  0.61940  0.91713  Biso   1.000  N
  O33      1.0000 0.48800  0.87762  0.98646  Biso   1.000  O
  O34      1.0000 0.55504  0.94406  0.93374  Biso   1.000  O
  O35      1.0000 0.68264  0.81025  0.80573  Biso   1.000  O
  O36      1.0000 0.66075  0.68762  0.79333  Biso   1.000  O
  C82      1.0000 0.96360  0.68510  0.92019  Biso   1.000  C
  C83      1.0000 0.91480  0.68620  0.88191  Biso   1.000  C
  H37      1.0000 0.88760  0.64180  0.87400  Biso   1.000  H
  C84      1.0000 0.94450  0.81600  0.86676  Biso   1.000  C
  H38      1.0000 0.93830  0.86090  0.84880  Biso   1.000  H
  C85      1.0000 0.99180  0.81380  0.90439  Biso   1.000  C
  C86      1.0000 0.00230  0.75000  0.93150  Biso   1.000  C
  H39      1.0000 0.03600  0.75080  0.95770  Biso   1.000  H
  C87      1.0000 0.03550  0.91240  0.96080  Biso   1.000  C
  H40      1.0000 0.00390  0.89930  0.98670  Biso   1.000  H
  C88      1.0000 0.85030  0.75080  0.81453  Biso   1.000  C
  C89      1.0000 0.97470  0.61560  0.94945  Biso   1.000  C
  C90      1.0000 0.90480  0.75030  0.85490  Biso   1.000  C
  N10      1.0000 0.03480  0.88060  0.91713  Biso   1.000  N
  O37      1.0000 0.01200  0.62238  0.98646  Biso   1.000  O
  O38      1.0000 0.94496  0.55594  0.93374  Biso   1.000  O
  O39      1.0000 0.81736  0.68975  0.80573  Biso   1.000  O
  O40      1.0000 0.83925  0.81238  0.79333  Biso   1.000  O
  C91      1.0000 0.68510  0.53640  0.42019  Biso   1.000  C
  C92      1.0000 0.68620  0.58520  0.38191  Biso   1.000  C
  H41      1.0000 0.64180  0.61240  0.37400  Biso   1.000  H
  C93      1.0000 0.81600  0.55550  0.36676  Biso   1.000  C
  H42      1.0000 0.86090  0.56170  0.34880  Biso   1.000  H
  C94      1.0000 0.81380  0.50820  0.40439  Biso   1.000  C
  C95      1.0000 0.75000  0.49770  0.43150  Biso   1.000  C
  H43      1.0000 0.75080  0.46400  0.45770  Biso   1.000  H
  C96      1.0000 0.91240  0.46450  0.46080  Biso   1.000  C
  H44      1.0000 0.89930  0.49610  0.48670  Biso   1.000  H
  C97      1.0000 0.75080  0.64970  0.31453  Biso   1.000  C
  C98      1.0000 0.61560  0.52530  0.44945  Biso   1.000  C
  C99      1.0000 0.75030  0.59520  0.35490  Biso   1.000  C
  N11      1.0000 0.88060  0.46520  0.41713  Biso   1.000  N
  O41      1.0000 0.62238  0.48800  0.48646  Biso   1.000  O
  O42      1.0000 0.55594  0.55504  0.43374  Biso   1.000  O
  O43      1.0000 0.68975  0.68264  0.30573  Biso   1.000  O
  O44      1.0000 0.81238  0.66075  0.29333  Biso   1.000  O
  C100     1.0000 0.81490  0.96360  0.42019  Biso   1.000  C
  C101     1.0000 0.81380  0.91480  0.38191  Biso   1.000  C
  H45      1.0000 0.85820  0.88760  0.37400  Biso   1.000  H
  C102     1.0000 0.68400  0.94450  0.36676  Biso   1.000  C
  H46      1.0000 0.63910  0.93830  0.34880  Biso   1.000  H
  C103     1.0000 0.68620  0.99180  0.40439  Biso   1.000  C
  C104     1.0000 0.75000  0.00230  0.43150  Biso   1.000  C
  H47      1.0000 0.74920  0.03600  0.45770  Biso   1.000  H
  C105     1.0000 0.58760  0.03550  0.46080  Biso   1.000  C
  H48      1.0000 0.60070  0.00390  0.48670  Biso   1.000  H
  C106     1.0000 0.74920  0.85030  0.31453  Biso   1.000  C
  C107     1.0000 0.88440  0.97470  0.44945  Biso   1.000  C
  C108     1.0000 0.74970  0.90480  0.35490  Biso   1.000  C
  N12      1.0000 0.61940  0.03480  0.41713  Biso   1.000  N
  O45      1.0000 0.87762  0.01200  0.48646  Biso   1.000  O
  O46      1.0000 0.94406  0.94496  0.43374  Biso   1.000  O
  O47      1.0000 0.81025  0.81736  0.30573  Biso   1.000  O
  O48      1.0000 0.68762  0.83925  0.29333  Biso   1.000  O
  C109     1.0000 0.96360  0.81490  0.57981  Biso   1.000  C
  C110     1.0000 0.91480  0.81380  0.61809  Biso   1.000  C
  H49      1.0000 0.88760  0.85820  0.62600  Biso   1.000  H
  C111     1.0000 0.94450  0.68400  0.63324  Biso   1.000  C
  H50      1.0000 0.93830  0.63910  0.65120  Biso   1.000  H
  C112     1.0000 0.99180  0.68620  0.59561  Biso   1.000  C
  C113     1.0000 0.00230  0.75000  0.56850  Biso   1.000  C
  H51      1.0000 0.03600  0.74920  0.54230  Biso   1.000  H
  C114     1.0000 0.03550  0.58760  0.53920  Biso   1.000  C
  H52      1.0000 0.00390  0.60070  0.51330  Biso   1.000  H
  C115     1.0000 0.85030  0.74920  0.68547  Biso   1.000  C
  C116     1.0000 0.97470  0.88440  0.55055  Biso   1.000  C
  C117     1.0000 0.90480  0.74970  0.64510  Biso   1.000  C
  N13      1.0000 0.03480  0.61940  0.58287  Biso   1.000  N
  O49      1.0000 0.01200  0.87762  0.51354  Biso   1.000  O
  O50      1.0000 0.94496  0.94406  0.56626  Biso   1.000  O
  O51      1.0000 0.81736  0.81025  0.69427  Biso   1.000  O
  O52      1.0000 0.83925  0.68762  0.70667  Biso   1.000  O
  C118     1.0000 0.53640  0.68510  0.57981  Biso   1.000  C
  C119     1.0000 0.58520  0.68620  0.61809  Biso   1.000  C
  H53      1.0000 0.61240  0.64180  0.62600  Biso   1.000  H
  C120     1.0000 0.55550  0.81600  0.63324  Biso   1.000  C
  H54      1.0000 0.56170  0.86090  0.65120  Biso   1.000  H
  C121     1.0000 0.50820  0.81380  0.59561  Biso   1.000  C
  C122     1.0000 0.49770  0.75000  0.56850  Biso   1.000  C
  H55      1.0000 0.46400  0.75080  0.54230  Biso   1.000  H
  C123     1.0000 0.46450  0.91240  0.53920  Biso   1.000  C
  H56      1.0000 0.49610  0.89930  0.51330  Biso   1.000  H
  C124     1.0000 0.64970  0.75080  0.68547  Biso   1.000  C
  C125     1.0000 0.52530  0.61560  0.55055  Biso   1.000  C
  C126     1.0000 0.59520  0.75030  0.64510  Biso   1.000  C
  N14      1.0000 0.46520  0.88060  0.58287  Biso   1.000  N
  O53      1.0000 0.48800  0.62238  0.51354  Biso   1.000  O
  O54      1.0000 0.55504  0.55594  0.56626  Biso   1.000  O
  O55      1.0000 0.68264  0.68975  0.69427  Biso   1.000  O
  O56      1.0000 0.66075  0.81238  0.70667  Biso   1.000  O
  C127     1.0000 0.81490  0.53640  0.07981  Biso   1.000  C
  C128     1.0000 0.81380  0.58520  0.11809  Biso   1.000  C
  H57      1.0000 0.85820  0.61240  0.12600  Biso   1.000  H
  C129     1.0000 0.68400  0.55550  0.13324  Biso   1.000  C
  H58      1.0000 0.63910  0.56170  0.15120  Biso   1.000  H
  C130     1.0000 0.68620  0.50820  0.09561  Biso   1.000  C
  C131     1.0000 0.75000  0.49770  0.06850  Biso   1.000  C
  H59      1.0000 0.74920  0.46400  0.04230  Biso   1.000  H
  C132     1.0000 0.58760  0.46450  0.03920  Biso   1.000  C
  H60      1.0000 0.60070  0.49610  0.01330  Biso   1.000  H
  C133     1.0000 0.74920  0.64970  0.18547  Biso   1.000  C
  C134     1.0000 0.88440  0.52530  0.05055  Biso   1.000  C
  C135     1.0000 0.74970  0.59520  0.14510  Biso   1.000  C
  N15      1.0000 0.61940  0.46520  0.08287  Biso   1.000  N
  O57      1.0000 0.87762  0.48800  0.01354  Biso   1.000  O
  O58      1.0000 0.94406  0.55504  0.06626  Biso   1.000  O
  O59      1.0000 0.81025  0.68264  0.19427  Biso   1.000  O
  O60      1.0000 0.68762  0.66075  0.20667  Biso   1.000  O
  C136     1.0000 0.68510  0.96360  0.07981  Biso   1.000  C
  C137     1.0000 0.68620  0.91480  0.11809  Biso   1.000  C
  H61      1.0000 0.64180  0.88760  0.12600  Biso   1.000  H
  C138     1.0000 0.81600  0.94450  0.13324  Biso   1.000  C
  H62      1.0000 0.86090  0.93830  0.15120  Biso   1.000  H
  C139     1.0000 0.81380  0.99180  0.09561  Biso   1.000  C
  C140     1.0000 0.75000  0.00230  0.06850  Biso   1.000  C
  H63      1.0000 0.75080  0.03600  0.04230  Biso   1.000  H
  C141     1.0000 0.91240  0.03550  0.03920  Biso   1.000  C
  H64      1.0000 0.89930  0.00390  0.01330  Biso   1.000  H
  C142     1.0000 0.75080  0.85030  0.18547  Biso   1.000  C
  C143     1.0000 0.61560  0.97470  0.05055  Biso   1.000  C
  C144     1.0000 0.75030  0.90480  0.14510  Biso   1.000  C
  N16      1.0000 0.88060  0.03480  0.08287  Biso   1.000  N
  O61      1.0000 0.62238  0.01200  0.01354  Biso   1.000  O
  O62      1.0000 0.55594  0.94496  0.06626  Biso   1.000  O
  O63      1.0000 0.68975  0.81736  0.19427  Biso   1.000  O
  O64      1.0000 0.81238  0.83925  0.20667  Biso   1.000  O
  C145     1.0000 0.59180  0.40820  0.10350  Biso   1.000  C
  H65      1.0000 0.61200  0.38800  0.13200  Biso   1.000  H
  C146     1.0000 0.90820  0.09180  0.10350  Biso   1.000  C
  H66      1.0000 0.88800  0.11200  0.13200  Biso   1.000  H
  C147     1.0000 0.09180  0.59180  0.60350  Biso   1.000  C
  H67      1.0000 0.11200  0.61200  0.63200  Biso   1.000  H
  C148     1.0000 0.40820  0.90820  0.60350  Biso   1.000  C
  H68      1.0000 0.38800  0.88800  0.63200  Biso   1.000  H
  C149     1.0000 0.90820  0.40820  0.39650  Biso   1.000  C
  H69      1.0000 0.88800  0.38800  0.36800  Biso   1.000  H
  C150     1.0000 0.59180  0.09180  0.39650  Biso   1.000  C
  H70      1.0000 0.61200  0.11200  0.36800  Biso   1.000  H
  C151     1.0000 0.40820  0.59180  0.89650  Biso   1.000  C
  H71      1.0000 0.38800  0.61200  0.86800  Biso   1.000  H
  C152     1.0000 0.09180  0.90820  0.89650  Biso   1.000  C
  H72      1.0000 0.11200  0.88800  0.86800  Biso   1.000  H
  Zn1      1.0000 0.54554  0.04554  0.96497  Biso   1.000  Zn
  Zn2      1.0000 0.95446  0.45446  0.96497  Biso   1.000  Zn
  Zn3      1.0000 0.45446  0.54554  0.46497  Biso   1.000  Zn
  Zn4      1.0000 0.04554  0.95446  0.46497  Biso   1.000  Zn
  Zn5      1.0000 0.95446  0.04554  0.53503  Biso   1.000  Zn
  Zn6      1.0000 0.54554  0.45446  0.53503  Biso   1.000  Zn
  Zn7      1.0000 0.04554  0.54554  0.03503  Biso   1.000  Zn
  Zn8      1.0000 0.45446  0.95446  0.03503  Biso   1.000  Zn
  Zn9      1.0000 0.25000  0.16545  0.25000  Biso   1.000  Zn
  Zn10     1.0000 0.25000  0.33455  0.25000  Biso   1.000  Zn
  Zn11     1.0000 0.33455  0.25000  0.75000  Biso   1.000  Zn
  Zn12     1.0000 0.16545  0.25000  0.75000  Biso   1.000  Zn
  Zn13     1.0000 0.75000  0.83455  0.75000  Biso   1.000  Zn
  Zn14     1.0000 0.75000  0.66545  0.75000  Biso   1.000  Zn
  Zn15     1.0000 0.66545  0.75000  0.25000  Biso   1.000  Zn
  Zn16     1.0000 0.83455  0.75000  0.25000  Biso   1.000  Zn
