data_image0
_cell_length_a       10.3183
_cell_length_b       10.7501
_cell_length_c       10.8315
_cell_angle_alpha    73.436
_cell_angle_beta     79.648
_cell_angle_gamma    83.26

_symmetry_space_group_name_H-M    "P 1"
_symmetry_int_tables_number       1

loop_
  _symmetry_equiv_pos_as_xyz
  'x, y, z'

loop_
  _atom_site_label
  _atom_site_occupancy
  _atom_site_fract_x
  _atom_site_fract_y
  _atom_site_fract_z
  _atom_site_thermal_displace_type
  _atom_site_B_iso_or_equiv
  _atom_site_type_symbol
  Ti1      1.0000 0.08810  0.18350  0.29450  Biso   1.000  Ti
  Ti2      1.0000 0.48730  0.41680  0.30620  Biso   1.000  Ti
  Ti3      1.0000 0.89030  0.64090  0.32070  Biso   1.000  Ti
  P1       1.0000 0.93020  0.91620  0.37230  Biso   1.000  P
  P2       1.0000 0.15820  0.31940  0.98100  Biso   1.000  P
  P3       1.0000 0.40140  0.11600  0.31920  Biso   1.000  P
  P4       1.0000 0.16230  0.45340  0.34960  Biso   1.000  P
  P5       1.0000 0.79420  0.33700  0.35620  Biso   1.000  P
  P6       1.0000 0.56610  0.68680  0.36280  Biso   1.000  P
  P7       1.0000 0.45090  0.56770  0.00940  Biso   1.000  P
  O1       1.0000 0.03480  0.01260  0.30390  Biso   1.000  O
  O2       1.0000 0.93170  0.86350  0.51790  Biso   1.000  O
  O3       1.0000 0.79390  0.98770  0.34650  Biso   1.000  O
  O4       1.0000 0.95930  0.80640  0.30440  Biso   1.000  O
  O5       1.0000 0.09870  0.22480  0.10370  Biso   1.000  O
  O6       1.0000 0.31040  0.29250  0.96200  Biso   1.000  O
  O7       1.0000 0.12920  0.46370  0.99320  Biso   1.000  O
  O8       1.0000 0.09630  0.30480  0.87110  Biso   1.000  O
  O9       1.0000 0.26960  0.11050  0.27790  Biso   1.000  O
  O10      1.0000 0.43730  0.25350  0.29260  Biso   1.000  O
  O11      1.0000 0.39460  0.04080  0.46320  Biso   1.000  O
  O12      1.0000 0.51390  0.04720  0.24060  Biso   1.000  O
  O13      1.0000 0.14350  0.34960  0.28200  Biso   1.000  O
  O14      1.0000 0.30670  0.48850  0.31600  Biso   1.000  O
  O15      1.0000 0.07710  0.57760  0.29860  Biso   1.000  O
  O16      1.0000 0.12200  0.39910  0.49660  Biso   1.000  O
  O17      1.0000 0.67130  0.34020  0.29450  Biso   1.000  O
  O18      1.0000 0.76230  0.27330  0.50780  Biso   1.000  O
  O19      1.0000 0.90360  0.25330  0.29820  Biso   1.000  O
  O20      1.0000 0.83740  0.47300  0.33460  Biso   1.000  O
  O21      1.0000 0.54710  0.57900  0.30190  Biso   1.000  O
  O22      1.0000 0.53000  0.63800  0.51040  Biso   1.000  O
  O23      1.0000 0.71120  0.71730  0.32870  Biso   1.000  O
  O24      1.0000 0.47650  0.80410  0.31220  Biso   1.000  O
  O25      1.0000 0.50770  0.47460  0.11670  Biso   1.000  O
  O26      1.0000 0.30080  0.59030  0.03780  Biso   1.000  O
  O27      1.0000 0.49200  0.70200  0.99900  Biso   1.000  O
  H1       1.0000 0.77990  0.04830  0.38010  Biso   1.000  H
  H2       1.0000 0.34330  0.34360  0.89500  Biso   1.000  H
  H3       1.0000 0.04920  0.48000  0.00780  Biso   1.000  H
  H4       1.0000 0.49780  0.97140  0.25260  Biso   1.000  H
  H5       1.0000 0.82870  0.26910  0.54090  Biso   1.000  H
  H6       1.0000 0.27430  0.64300  0.97470  Biso   1.000  H
  Ti4      1.0000 0.91190  0.81650  0.70550  Biso   1.000  Ti
  Ti5      1.0000 0.51270  0.58320  0.69380  Biso   1.000  Ti
  Ti6      1.0000 0.10970  0.35910  0.67930  Biso   1.000  Ti
  P8       1.0000 0.06980  0.08380  0.62770  Biso   1.000  P
  P9       1.0000 0.84180  0.68060  0.01900  Biso   1.000  P
  P10      1.0000 0.59860  0.88400  0.68080  Biso   1.000  P
  P11      1.0000 0.83770  0.54660  0.65040  Biso   1.000  P
  P12      1.0000 0.20580  0.66300  0.64380  Biso   1.000  P
  P13      1.0000 0.43390  0.31320  0.63720  Biso   1.000  P
  P14      1.0000 0.54910  0.43230  0.99060  Biso   1.000  P
  O28      1.0000 0.96520  0.98740  0.69610  Biso   1.000  O
  O29      1.0000 0.06830  0.13650  0.48210  Biso   1.000  O
  O30      1.0000 0.20610  0.01230  0.65350  Biso   1.000  O
  O31      1.0000 0.04070  0.19360  0.69560  Biso   1.000  O
  O32      1.0000 0.90130  0.77520  0.89630  Biso   1.000  O
  O33      1.0000 0.68960  0.70750  0.03800  Biso   1.000  O
  O34      1.0000 0.87080  0.53630  0.00680  Biso   1.000  O
  O35      1.0000 0.90370  0.69520  0.12890  Biso   1.000  O
  O36      1.0000 0.73040  0.88950  0.72210  Biso   1.000  O
  O37      1.0000 0.56270  0.74650  0.70740  Biso   1.000  O
  O38      1.0000 0.60540  0.95920  0.53680  Biso   1.000  O
  O39      1.0000 0.48610  0.95280  0.75940  Biso   1.000  O
  O40      1.0000 0.85650  0.65040  0.71800  Biso   1.000  O
  O41      1.0000 0.69330  0.51150  0.68400  Biso   1.000  O
  O42      1.0000 0.92290  0.42240  0.70140  Biso   1.000  O
  O43      1.0000 0.87800  0.60090  0.50340  Biso   1.000  O
  O44      1.0000 0.32870  0.65980  0.70550  Biso   1.000  O
  O45      1.0000 0.23770  0.72670  0.49220  Biso   1.000  O
  O46      1.0000 0.09640  0.74670  0.70180  Biso   1.000  O
  O47      1.0000 0.16260  0.52700  0.66540  Biso   1.000  O
  O48      1.0000 0.45290  0.42100  0.69810  Biso   1.000  O
  O49      1.0000 0.47000  0.36200  0.48960  Biso   1.000  O
  O50      1.0000 0.28880  0.28270  0.67130  Biso   1.000  O
  O51      1.0000 0.52350  0.19590  0.68780  Biso   1.000  O
  O52      1.0000 0.49230  0.52540  0.88330  Biso   1.000  O
  O53      1.0000 0.69920  0.40970  0.96220  Biso   1.000  O
  O54      1.0000 0.50800  0.29800  0.00100  Biso   1.000  O
  H7       1.0000 0.22010  0.95170  0.61990  Biso   1.000  H
  H8       1.0000 0.65670  0.65640  0.10500  Biso   1.000  H
  H9       1.0000 0.95080  0.52000  0.99220  Biso   1.000  H
  H10      1.0000 0.50220  0.02860  0.74740  Biso   1.000  H
  H11      1.0000 0.17130  0.73090  0.45910  Biso   1.000  H
  H12      1.0000 0.72570  0.35700  0.02530  Biso   1.000  H
