data_image0
_cell_length_a       17.7179
_cell_length_b       17.7179
_cell_length_c       27.5566
_cell_angle_alpha    90
_cell_angle_beta     90
_cell_angle_gamma    90

_symmetry_space_group_name_H-M    "P 1"
_symmetry_int_tables_number       1

loop_
  _symmetry_equiv_pos_as_xyz
  'x, y, z'

loop_
  _atom_site_label
  _atom_site_occupancy
  _atom_site_fract_x
  _atom_site_fract_y
  _atom_site_fract_z
  _atom_site_thermal_displace_type
  _atom_site_B_iso_or_equiv
  _atom_site_type_symbol
  C1       1.0000 0.15420  0.24760  0.68498  Biso   1.000  C
  C2       1.0000 0.03680  0.31390  0.57730  Biso   1.000  C
  C3       1.0000 0.08530  0.31280  0.61668  Biso   1.000  C
  H1       1.0000 0.11040  0.35810  0.62570  Biso   1.000  H
  C4       1.0000 0.09860  0.24730  0.64360  Biso   1.000  C
  C5       1.0000 0.01090  0.18210  0.59260  Biso   1.000  C
  C6       1.0000 0.00040  0.24410  0.56610  Biso   1.000  C
  H2       1.0000 0.96760  0.24180  0.53890  Biso   1.000  H
  C7       1.0000 0.05800  0.18110  0.63070  Biso   1.000  C
  H3       1.0000 0.06430  0.13610  0.64900  Biso   1.000  H
  O1       1.0000 0.18220  0.31060  0.69464  Biso   1.000  O
  O2       1.0000 0.16480  0.18620  0.70539  Biso   1.000  O
  N1       1.0000 0.96980  0.11650  0.58070  Biso   1.000  N
  C8       1.0000 0.02450  0.38400  0.54760  Biso   1.000  C
  O3       1.0000 0.05390  0.44193  0.56428  Biso   1.000  O
  O4       1.0000 0.98510  0.37560  0.51046  Biso   1.000  O
  C9       1.0000 0.96710  0.09420  0.53120  Biso   1.000  C
  H4       1.0000 0.99600  0.11260  0.50470  Biso   1.000  H
  C10      1.0000 0.34580  0.25240  0.68498  Biso   1.000  C
  C11      1.0000 0.46320  0.18610  0.57730  Biso   1.000  C
  C12      1.0000 0.41470  0.18720  0.61668  Biso   1.000  C
  H5       1.0000 0.38960  0.14190  0.62570  Biso   1.000  H
  C13      1.0000 0.40140  0.25270  0.64360  Biso   1.000  C
  C14      1.0000 0.48910  0.31790  0.59260  Biso   1.000  C
  C15      1.0000 0.49960  0.25590  0.56610  Biso   1.000  C
  H6       1.0000 0.53240  0.25820  0.53890  Biso   1.000  H
  C16      1.0000 0.44200  0.31890  0.63070  Biso   1.000  C
  H7       1.0000 0.43570  0.36390  0.64900  Biso   1.000  H
  O5       1.0000 0.31780  0.18940  0.69464  Biso   1.000  O
  O6       1.0000 0.33520  0.31380  0.70539  Biso   1.000  O
  N2       1.0000 0.53020  0.38350  0.58070  Biso   1.000  N
  C17      1.0000 0.47550  0.11600  0.54760  Biso   1.000  C
  O7       1.0000 0.44610  0.05807  0.56428  Biso   1.000  O
  O8       1.0000 0.51490  0.12440  0.51046  Biso   1.000  O
  C18      1.0000 0.53290  0.40580  0.53120  Biso   1.000  C
  H8       1.0000 0.50400  0.38740  0.50470  Biso   1.000  H
  C19      1.0000 0.25240  0.15420  0.18498  Biso   1.000  C
  C20      1.0000 0.18610  0.03680  0.07730  Biso   1.000  C
  C21      1.0000 0.18720  0.08530  0.11668  Biso   1.000  C
  H9       1.0000 0.14190  0.11040  0.12570  Biso   1.000  H
  C22      1.0000 0.25270  0.09860  0.14360  Biso   1.000  C
  C23      1.0000 0.31790  0.01090  0.09260  Biso   1.000  C
  C24      1.0000 0.25590  0.00040  0.06610  Biso   1.000  C
  H10      1.0000 0.25820  0.96760  0.03890  Biso   1.000  H
  C25      1.0000 0.31890  0.05800  0.13070  Biso   1.000  C
  H11      1.0000 0.36390  0.06430  0.14900  Biso   1.000  H
  O9       1.0000 0.18940  0.18220  0.19464  Biso   1.000  O
  O10      1.0000 0.31380  0.16480  0.20539  Biso   1.000  O
  N3       1.0000 0.38350  0.96980  0.08070  Biso   1.000  N
  C26      1.0000 0.11600  0.02450  0.04760  Biso   1.000  C
  O11      1.0000 0.05807  0.05390  0.06428  Biso   1.000  O
  O12      1.0000 0.12440  0.98510  0.01046  Biso   1.000  O
  C27      1.0000 0.40580  0.96710  0.03120  Biso   1.000  C
  H12      1.0000 0.38740  0.99600  0.00470  Biso   1.000  H
  C28      1.0000 0.24760  0.34580  0.18498  Biso   1.000  C
  C29      1.0000 0.31390  0.46320  0.07730  Biso   1.000  C
  C30      1.0000 0.31280  0.41470  0.11668  Biso   1.000  C
  H13      1.0000 0.35810  0.38960  0.12570  Biso   1.000  H
  C31      1.0000 0.24730  0.40140  0.14360  Biso   1.000  C
  C32      1.0000 0.18210  0.48910  0.09260  Biso   1.000  C
  C33      1.0000 0.24410  0.49960  0.06610  Biso   1.000  C
  H14      1.0000 0.24180  0.53240  0.03890  Biso   1.000  H
  C34      1.0000 0.18110  0.44200  0.13070  Biso   1.000  C
  H15      1.0000 0.13610  0.43570  0.14900  Biso   1.000  H
  O13      1.0000 0.31060  0.31780  0.19464  Biso   1.000  O
  O14      1.0000 0.18620  0.33520  0.20539  Biso   1.000  O
  N4       1.0000 0.11650  0.53020  0.08070  Biso   1.000  N
  C35      1.0000 0.38400  0.47550  0.04760  Biso   1.000  C
  O15      1.0000 0.44193  0.44610  0.06428  Biso   1.000  O
  O16      1.0000 0.37560  0.51490  0.01046  Biso   1.000  O
  C36      1.0000 0.09420  0.53290  0.03120  Biso   1.000  C
  H16      1.0000 0.11260  0.50400  0.00470  Biso   1.000  H
  C37      1.0000 0.34580  0.24760  0.81502  Biso   1.000  C
  C38      1.0000 0.46320  0.31390  0.92270  Biso   1.000  C
  C39      1.0000 0.41470  0.31280  0.88332  Biso   1.000  C
  H17      1.0000 0.38960  0.35810  0.87430  Biso   1.000  H
  C40      1.0000 0.40140  0.24730  0.85640  Biso   1.000  C
  C41      1.0000 0.48910  0.18210  0.90740  Biso   1.000  C
  C42      1.0000 0.49960  0.24410  0.93390  Biso   1.000  C
  H18      1.0000 0.53240  0.24180  0.96110  Biso   1.000  H
  C43      1.0000 0.44200  0.18110  0.86930  Biso   1.000  C
  H19      1.0000 0.43570  0.13610  0.85100  Biso   1.000  H
  O17      1.0000 0.31780  0.31060  0.80536  Biso   1.000  O
  O18      1.0000 0.33520  0.18620  0.79461  Biso   1.000  O
  N5       1.0000 0.53020  0.11650  0.91930  Biso   1.000  N
  C44      1.0000 0.47550  0.38400  0.95240  Biso   1.000  C
  O19      1.0000 0.44610  0.44193  0.93572  Biso   1.000  O
  O20      1.0000 0.51490  0.37560  0.98954  Biso   1.000  O
  C45      1.0000 0.53290  0.09420  0.96880  Biso   1.000  C
  H20      1.0000 0.50400  0.11260  0.99530  Biso   1.000  H
  C46      1.0000 0.15420  0.25240  0.81502  Biso   1.000  C
  C47      1.0000 0.03680  0.18610  0.92270  Biso   1.000  C
  C48      1.0000 0.08530  0.18720  0.88332  Biso   1.000  C
  H21      1.0000 0.11040  0.14190  0.87430  Biso   1.000  H
  C49      1.0000 0.09860  0.25270  0.85640  Biso   1.000  C
  C50      1.0000 0.01090  0.31790  0.90740  Biso   1.000  C
  C51      1.0000 0.00040  0.25590  0.93390  Biso   1.000  C
  H22      1.0000 0.96760  0.25820  0.96110  Biso   1.000  H
  C52      1.0000 0.05800  0.31890  0.86930  Biso   1.000  C
  H23      1.0000 0.06430  0.36390  0.85100  Biso   1.000  H
  O21      1.0000 0.18220  0.18940  0.80536  Biso   1.000  O
  O22      1.0000 0.16480  0.31380  0.79461  Biso   1.000  O
  N6       1.0000 0.96980  0.38350  0.91930  Biso   1.000  N
  C53      1.0000 0.02450  0.11600  0.95240  Biso   1.000  C
  O23      1.0000 0.05390  0.05807  0.93572  Biso   1.000  O
  O24      1.0000 0.98510  0.12440  0.98954  Biso   1.000  O
  C54      1.0000 0.96710  0.40580  0.96880  Biso   1.000  C
  H24      1.0000 0.99600  0.38740  0.99530  Biso   1.000  H
  C55      1.0000 0.24760  0.15420  0.31502  Biso   1.000  C
  C56      1.0000 0.31390  0.03680  0.42270  Biso   1.000  C
  C57      1.0000 0.31280  0.08530  0.38332  Biso   1.000  C
  H25      1.0000 0.35810  0.11040  0.37430  Biso   1.000  H
  C58      1.0000 0.24730  0.09860  0.35640  Biso   1.000  C
  C59      1.0000 0.18210  0.01090  0.40740  Biso   1.000  C
  C60      1.0000 0.24410  0.00040  0.43390  Biso   1.000  C
  H26      1.0000 0.24180  0.96760  0.46110  Biso   1.000  H
  C61      1.0000 0.18110  0.05800  0.36930  Biso   1.000  C
  H27      1.0000 0.13610  0.06430  0.35100  Biso   1.000  H
  O25      1.0000 0.31060  0.18220  0.30536  Biso   1.000  O
  O26      1.0000 0.18620  0.16480  0.29461  Biso   1.000  O
  N7       1.0000 0.11650  0.96980  0.41930  Biso   1.000  N
  C62      1.0000 0.38400  0.02450  0.45240  Biso   1.000  C
  O27      1.0000 0.44193  0.05390  0.43572  Biso   1.000  O
  O28      1.0000 0.37560  0.98510  0.48954  Biso   1.000  O
  C63      1.0000 0.09420  0.96710  0.46880  Biso   1.000  C
  H28      1.0000 0.11260  0.99600  0.49530  Biso   1.000  H
  C64      1.0000 0.25240  0.34580  0.31502  Biso   1.000  C
  C65      1.0000 0.18610  0.46320  0.42270  Biso   1.000  C
  C66      1.0000 0.18720  0.41470  0.38332  Biso   1.000  C
  H29      1.0000 0.14190  0.38960  0.37430  Biso   1.000  H
  C67      1.0000 0.25270  0.40140  0.35640  Biso   1.000  C
  C68      1.0000 0.31790  0.48910  0.40740  Biso   1.000  C
  C69      1.0000 0.25590  0.49960  0.43390  Biso   1.000  C
  H30      1.0000 0.25820  0.53240  0.46110  Biso   1.000  H
  C70      1.0000 0.31890  0.44200  0.36930  Biso   1.000  C
  H31      1.0000 0.36390  0.43570  0.35100  Biso   1.000  H
  O29      1.0000 0.18940  0.31780  0.30536  Biso   1.000  O
  O30      1.0000 0.31380  0.33520  0.29461  Biso   1.000  O
  N8       1.0000 0.38350  0.53020  0.41930  Biso   1.000  N
  C71      1.0000 0.11600  0.47550  0.45240  Biso   1.000  C
  O31      1.0000 0.05807  0.44610  0.43572  Biso   1.000  O
  O32      1.0000 0.12440  0.51490  0.48954  Biso   1.000  O
  C72      1.0000 0.40580  0.53290  0.46880  Biso   1.000  C
  H32      1.0000 0.38740  0.50400  0.49530  Biso   1.000  H
  C73      1.0000 0.84580  0.75240  0.31502  Biso   1.000  C
  C74      1.0000 0.96320  0.68610  0.42270  Biso   1.000  C
  C75      1.0000 0.91470  0.68720  0.38332  Biso   1.000  C
  H33      1.0000 0.88960  0.64190  0.37430  Biso   1.000  H
  C76      1.0000 0.90140  0.75270  0.35640  Biso   1.000  C
  C77      1.0000 0.98910  0.81790  0.40740  Biso   1.000  C
  C78      1.0000 0.99960  0.75590  0.43390  Biso   1.000  C
  H34      1.0000 0.03240  0.75820  0.46110  Biso   1.000  H
  C79      1.0000 0.94200  0.81890  0.36930  Biso   1.000  C
  H35      1.0000 0.93570  0.86390  0.35100  Biso   1.000  H
  O33      1.0000 0.81780  0.68940  0.30536  Biso   1.000  O
  O34      1.0000 0.83520  0.81380  0.29461  Biso   1.000  O
  N9       1.0000 0.03020  0.88350  0.41930  Biso   1.000  N
  C80      1.0000 0.97550  0.61600  0.45240  Biso   1.000  C
  O35      1.0000 0.94610  0.55807  0.43572  Biso   1.000  O
  O36      1.0000 0.01490  0.62440  0.48954  Biso   1.000  O
  C81      1.0000 0.03290  0.90580  0.46880  Biso   1.000  C
  H36      1.0000 0.00400  0.88740  0.49530  Biso   1.000  H
  C82      1.0000 0.65420  0.74760  0.31502  Biso   1.000  C
  C83      1.0000 0.53680  0.81390  0.42270  Biso   1.000  C
  C84      1.0000 0.58530  0.81280  0.38332  Biso   1.000  C
  H37      1.0000 0.61040  0.85810  0.37430  Biso   1.000  H
  C85      1.0000 0.59860  0.74730  0.35640  Biso   1.000  C
  C86      1.0000 0.51090  0.68210  0.40740  Biso   1.000  C
  C87      1.0000 0.50040  0.74410  0.43390  Biso   1.000  C
  H38      1.0000 0.46760  0.74180  0.46110  Biso   1.000  H
  C88      1.0000 0.55800  0.68110  0.36930  Biso   1.000  C
  H39      1.0000 0.56430  0.63610  0.35100  Biso   1.000  H
  O37      1.0000 0.68220  0.81060  0.30536  Biso   1.000  O
  O38      1.0000 0.66480  0.68620  0.29461  Biso   1.000  O
  N10      1.0000 0.46980  0.61650  0.41930  Biso   1.000  N
  C89      1.0000 0.52450  0.88400  0.45240  Biso   1.000  C
  O39      1.0000 0.55390  0.94193  0.43572  Biso   1.000  O
  O40      1.0000 0.48510  0.87560  0.48954  Biso   1.000  O
  C90      1.0000 0.46710  0.59420  0.46880  Biso   1.000  C
  H40      1.0000 0.49600  0.61260  0.49530  Biso   1.000  H
  C91      1.0000 0.74760  0.84580  0.81502  Biso   1.000  C
  C92      1.0000 0.81390  0.96320  0.92270  Biso   1.000  C
  C93      1.0000 0.81280  0.91470  0.88332  Biso   1.000  C
  H41      1.0000 0.85810  0.88960  0.87430  Biso   1.000  H
  C94      1.0000 0.74730  0.90140  0.85640  Biso   1.000  C
  C95      1.0000 0.68210  0.98910  0.90740  Biso   1.000  C
  C96      1.0000 0.74410  0.99960  0.93390  Biso   1.000  C
  H42      1.0000 0.74180  0.03240  0.96110  Biso   1.000  H
  C97      1.0000 0.68110  0.94200  0.86930  Biso   1.000  C
  H43      1.0000 0.63610  0.93570  0.85100  Biso   1.000  H
  O41      1.0000 0.81060  0.81780  0.80536  Biso   1.000  O
  O42      1.0000 0.68620  0.83520  0.79461  Biso   1.000  O
  N11      1.0000 0.61650  0.03020  0.91930  Biso   1.000  N
  C98      1.0000 0.88400  0.97550  0.95240  Biso   1.000  C
  O43      1.0000 0.94193  0.94610  0.93572  Biso   1.000  O
  O44      1.0000 0.87560  0.01490  0.98954  Biso   1.000  O
  C99      1.0000 0.59420  0.03290  0.96880  Biso   1.000  C
  H44      1.0000 0.61260  0.00400  0.99530  Biso   1.000  H
  C100     1.0000 0.75240  0.65420  0.81502  Biso   1.000  C
  C101     1.0000 0.68610  0.53680  0.92270  Biso   1.000  C
  C102     1.0000 0.68720  0.58530  0.88332  Biso   1.000  C
  H45      1.0000 0.64190  0.61040  0.87430  Biso   1.000  H
  C103     1.0000 0.75270  0.59860  0.85640  Biso   1.000  C
  C104     1.0000 0.81790  0.51090  0.90740  Biso   1.000  C
  C105     1.0000 0.75590  0.50040  0.93390  Biso   1.000  C
  H46      1.0000 0.75820  0.46760  0.96110  Biso   1.000  H
  C106     1.0000 0.81890  0.55800  0.86930  Biso   1.000  C
  H47      1.0000 0.86390  0.56430  0.85100  Biso   1.000  H
  O45      1.0000 0.68940  0.68220  0.80536  Biso   1.000  O
  O46      1.0000 0.81380  0.66480  0.79461  Biso   1.000  O
  N12      1.0000 0.88350  0.46980  0.91930  Biso   1.000  N
  C107     1.0000 0.61600  0.52450  0.95240  Biso   1.000  C
  O47      1.0000 0.55807  0.55390  0.93572  Biso   1.000  O
  O48      1.0000 0.62440  0.48510  0.98954  Biso   1.000  O
  C108     1.0000 0.90580  0.46710  0.96880  Biso   1.000  C
  H48      1.0000 0.88740  0.49600  0.99530  Biso   1.000  H
  C109     1.0000 0.65420  0.75240  0.18498  Biso   1.000  C
  C110     1.0000 0.53680  0.68610  0.07730  Biso   1.000  C
  C111     1.0000 0.58530  0.68720  0.11668  Biso   1.000  C
  H49      1.0000 0.61040  0.64190  0.12570  Biso   1.000  H
  C112     1.0000 0.59860  0.75270  0.14360  Biso   1.000  C
  C113     1.0000 0.51090  0.81790  0.09260  Biso   1.000  C
  C114     1.0000 0.50040  0.75590  0.06610  Biso   1.000  C
  H50      1.0000 0.46760  0.75820  0.03890  Biso   1.000  H
  C115     1.0000 0.55800  0.81890  0.13070  Biso   1.000  C
  H51      1.0000 0.56430  0.86390  0.14900  Biso   1.000  H
  O49      1.0000 0.68220  0.68940  0.19464  Biso   1.000  O
  O50      1.0000 0.66480  0.81380  0.20539  Biso   1.000  O
  N13      1.0000 0.46980  0.88350  0.08070  Biso   1.000  N
  C116     1.0000 0.52450  0.61600  0.04760  Biso   1.000  C
  O51      1.0000 0.55390  0.55807  0.06428  Biso   1.000  O
  O52      1.0000 0.48510  0.62440  0.01046  Biso   1.000  O
  C117     1.0000 0.46710  0.90580  0.03120  Biso   1.000  C
  H52      1.0000 0.49600  0.88740  0.00470  Biso   1.000  H
  C118     1.0000 0.84580  0.74760  0.18498  Biso   1.000  C
  C119     1.0000 0.96320  0.81390  0.07730  Biso   1.000  C
  C120     1.0000 0.91470  0.81280  0.11668  Biso   1.000  C
  H53      1.0000 0.88960  0.85810  0.12570  Biso   1.000  H
  C121     1.0000 0.90140  0.74730  0.14360  Biso   1.000  C
  C122     1.0000 0.98910  0.68210  0.09260  Biso   1.000  C
  C123     1.0000 0.99960  0.74410  0.06610  Biso   1.000  C
  H54      1.0000 0.03240  0.74180  0.03890  Biso   1.000  H
  C124     1.0000 0.94200  0.68110  0.13070  Biso   1.000  C
  H55      1.0000 0.93570  0.63610  0.14900  Biso   1.000  H
  O53      1.0000 0.81780  0.81060  0.19464  Biso   1.000  O
  O54      1.0000 0.83520  0.68620  0.20539  Biso   1.000  O
  N14      1.0000 0.03020  0.61650  0.08070  Biso   1.000  N
  C125     1.0000 0.97550  0.88400  0.04760  Biso   1.000  C
  O55      1.0000 0.94610  0.94193  0.06428  Biso   1.000  O
  O56      1.0000 0.01490  0.87560  0.01046  Biso   1.000  O
  C126     1.0000 0.03290  0.59420  0.03120  Biso   1.000  C
  H56      1.0000 0.00400  0.61260  0.00470  Biso   1.000  H
  C127     1.0000 0.75240  0.84580  0.68498  Biso   1.000  C
  C128     1.0000 0.68610  0.96320  0.57730  Biso   1.000  C
  C129     1.0000 0.68720  0.91470  0.61668  Biso   1.000  C
  H57      1.0000 0.64190  0.88960  0.62570  Biso   1.000  H
  C130     1.0000 0.75270  0.90140  0.64360  Biso   1.000  C
  C131     1.0000 0.81790  0.98910  0.59260  Biso   1.000  C
  C132     1.0000 0.75590  0.99960  0.56610  Biso   1.000  C
  H58      1.0000 0.75820  0.03240  0.53890  Biso   1.000  H
  C133     1.0000 0.81890  0.94200  0.63070  Biso   1.000  C
  H59      1.0000 0.86390  0.93570  0.64900  Biso   1.000  H
  O57      1.0000 0.68940  0.81780  0.69464  Biso   1.000  O
  O58      1.0000 0.81380  0.83520  0.70539  Biso   1.000  O
  N15      1.0000 0.88350  0.03020  0.58070  Biso   1.000  N
  C134     1.0000 0.61600  0.97550  0.54760  Biso   1.000  C
  O59      1.0000 0.55807  0.94610  0.56428  Biso   1.000  O
  O60      1.0000 0.62440  0.01490  0.51046  Biso   1.000  O
  C135     1.0000 0.90580  0.03290  0.53120  Biso   1.000  C
  H60      1.0000 0.88740  0.00400  0.50470  Biso   1.000  H
  C136     1.0000 0.74760  0.65420  0.68498  Biso   1.000  C
  C137     1.0000 0.81390  0.53680  0.57730  Biso   1.000  C
  C138     1.0000 0.81280  0.58530  0.61668  Biso   1.000  C
  H61      1.0000 0.85810  0.61040  0.62570  Biso   1.000  H
  C139     1.0000 0.74730  0.59860  0.64360  Biso   1.000  C
  C140     1.0000 0.68210  0.51090  0.59260  Biso   1.000  C
  C141     1.0000 0.74410  0.50040  0.56610  Biso   1.000  C
  H62      1.0000 0.74180  0.46760  0.53890  Biso   1.000  H
  C142     1.0000 0.68110  0.55800  0.63070  Biso   1.000  C
  H63      1.0000 0.63610  0.56430  0.64900  Biso   1.000  H
  O61      1.0000 0.81060  0.68220  0.69464  Biso   1.000  O
  O62      1.0000 0.68620  0.66480  0.70539  Biso   1.000  O
  N16      1.0000 0.61650  0.46980  0.58070  Biso   1.000  N
  C143     1.0000 0.88400  0.52450  0.54760  Biso   1.000  C
  O63      1.0000 0.94193  0.55390  0.56428  Biso   1.000  O
  O64      1.0000 0.87560  0.48510  0.51046  Biso   1.000  O
  C144     1.0000 0.59420  0.46710  0.53120  Biso   1.000  C
  H64      1.0000 0.61260  0.49600  0.50470  Biso   1.000  H
  Cu1      1.0000 0.03972  0.53972  0.53215  Biso   1.000  Cu
  Cu2      1.0000 0.46028  0.96028  0.53215  Biso   1.000  Cu
  Cu3      1.0000 0.96028  0.03972  0.03215  Biso   1.000  Cu
  Cu4      1.0000 0.53972  0.46028  0.03215  Biso   1.000  Cu
  Cu5      1.0000 0.46028  0.53972  0.96785  Biso   1.000  Cu
  Cu6      1.0000 0.03972  0.96028  0.96785  Biso   1.000  Cu
  Cu7      1.0000 0.53972  0.03972  0.46785  Biso   1.000  Cu
  Cu8      1.0000 0.96028  0.46028  0.46785  Biso   1.000  Cu
  Cu9      1.0000 0.25000  0.32483  0.75000  Biso   1.000  Cu
  Cu10     1.0000 0.25000  0.17517  0.75000  Biso   1.000  Cu
  Cu11     1.0000 0.17517  0.25000  0.25000  Biso   1.000  Cu
  Cu12     1.0000 0.32483  0.25000  0.25000  Biso   1.000  Cu
  Cu13     1.0000 0.75000  0.67517  0.25000  Biso   1.000  Cu
  Cu14     1.0000 0.75000  0.82483  0.25000  Biso   1.000  Cu
  Cu15     1.0000 0.82483  0.75000  0.75000  Biso   1.000  Cu
  Cu16     1.0000 0.67517  0.75000  0.75000  Biso   1.000  Cu
  C145     1.0000 0.91240  0.08760  0.59930  Biso   1.000  C
  H65      1.0000 0.89070  0.10930  0.62760  Biso   1.000  H
  C146     1.0000 0.58760  0.41240  0.59930  Biso   1.000  C
  H66      1.0000 0.60930  0.39070  0.62760  Biso   1.000  H
  C147     1.0000 0.41240  0.91240  0.09930  Biso   1.000  C
  H67      1.0000 0.39070  0.89070  0.12760  Biso   1.000  H
  C148     1.0000 0.08760  0.58760  0.09930  Biso   1.000  C
  H68      1.0000 0.10930  0.60930  0.12760  Biso   1.000  H
  C149     1.0000 0.58760  0.08760  0.90070  Biso   1.000  C
  H69      1.0000 0.60930  0.10930  0.87240  Biso   1.000  H
  C150     1.0000 0.91240  0.41240  0.90070  Biso   1.000  C
  H70      1.0000 0.89070  0.39070  0.87240  Biso   1.000  H
  C151     1.0000 0.08760  0.91240  0.40070  Biso   1.000  C
  H71      1.0000 0.10930  0.89070  0.37240  Biso   1.000  H
  C152     1.0000 0.41240  0.58760  0.40070  Biso   1.000  C
  H72      1.0000 0.39070  0.60930  0.37240  Biso   1.000  H
